MODEL 1
REMARK VINA RESULT:      -8.0      0.000      0.000
REMARK  Name = 
REMARK  7 active torsions:
REMARK  status: ('A' for Active; 'I' for Inactive)
REMARK    1  A    between atoms: C_1  and  C_2
REMARK    2  A    between atoms: C_4  and  C_5
REMARK    3  A    between atoms: C_6  and  C_7
REMARK    4  A    between atoms: C_7  and  N_8
REMARK    5  A    between atoms: N_11  and  C_12
REMARK    6  A    between atoms: C_12  and  C_13
REMARK    7  A    between atoms: C_17  and  N_18
REMARK                            x       y       z     vdW  Elec       q    Type
REMARK                         _______ _______ _______ _____ _____    ______ ____
ROOT
ATOM      1  N   UNL     1       7.637   6.235  18.643  0.00  0.00    +0.000 N 
ATOM      2  C   UNL     1       7.871   7.276  17.787  0.00  0.00    +0.000 C 
ATOM      3  O   UNL     1       7.776   7.192  16.572  0.00  0.00    +0.000 OA
ATOM      4  N   UNL     1       8.246   8.419  18.447  0.00  0.00    +0.000 N 
ATOM      5  H   UNL     1       7.966   6.321  19.592  0.00  0.00    +0.000 HD
ATOM      6  H   UNL     1       7.912   8.517  19.395  0.00  0.00    +0.000 HD
ENDROOT
BRANCH   1   7
ATOM      7  C   UNL     1       7.391   4.898  18.143  0.00  0.00    +0.000 C 
BRANCH   7  13
ATOM      8  C   UNL     1       2.097   4.523  18.431  0.00  0.00    +0.000 C 
ATOM      9  C   UNL     1       3.521   4.530  17.998  0.00  0.00    +0.000 A 
ATOM     10  N   UNL     1       3.933   4.137  16.814  0.00  0.00    +0.000 NA
ATOM     11  C   UNL     1       5.313   4.242  16.728  0.00  0.00    +0.000 A 
ATOM     12  C   UNL     1       5.976   3.820  15.466  0.00  0.00    +0.000 C 
ATOM     13  C   UNL     1       5.935   4.722  17.869  0.00  0.00    +0.000 A 
ATOM     14  S   UNL     1       4.753   5.063  19.068  0.00  0.00    +0.000 S 
ENDBRANCH   7  13
ENDBRANCH   1   7
BRANCH   4  15
ATOM     15  C   UNL     1       8.421   9.645  17.698  0.00  0.00    +0.000 C 
BRANCH  15  16
ATOM     16  C   UNL     1       9.096  10.718  18.514  0.00  0.00    +0.000 A 
ATOM     17  C   UNL     1       9.419  10.470  19.856  0.00  0.00    +0.000 A 
ATOM     18  C   UNL     1      10.089  11.429  20.616  0.00  0.00    +0.000 A 
ATOM     19  C   UNL     1      10.431  12.660  20.053  0.00  0.00    +0.000 A 
ATOM     20  C   UNL     1      10.082  12.941  18.726  0.00  0.00    +0.000 A 
ATOM     21  C   UNL     1       9.418  11.966  17.959  0.00  0.00    +0.000 A 
BRANCH  20  22
ATOM     22  N   UNL     1      10.371  14.208  18.153  0.00  0.00    +0.000 N 
ATOM     23  C   UNL     1       9.938  15.452  18.545  0.00  0.00    +0.000 A 
ATOM     24  N   UNL     1      10.358  16.373  17.708  0.00  0.00    +0.000 NA
ATOM     25  C   UNL     1      11.075  15.649  16.808  0.00  0.00    +0.000 A 
ATOM     26  N   UNL     1      11.136  14.337  17.039  0.00  0.00    +0.000 NA
ENDBRANCH  20  22
ENDBRANCH  15  16
ENDBRANCH   4  15
TORSDOF 5
ENDMDL
MODEL 2
REMARK VINA RESULT:      -7.5      3.281      8.789
REMARK  Name = 
REMARK  7 active torsions:
REMARK  status: ('A' for Active; 'I' for Inactive)
REMARK    1  A    between atoms: C_1  and  C_2
REMARK    2  A    between atoms: C_4  and  C_5
REMARK    3  A    between atoms: C_6  and  C_7
REMARK    4  A    between atoms: C_7  and  N_8
REMARK    5  A    between atoms: N_11  and  C_12
REMARK    6  A    between atoms: C_12  and  C_13
REMARK    7  A    between atoms: C_17  and  N_18
REMARK                            x       y       z     vdW  Elec       q    Type
REMARK                         _______ _______ _______ _____ _____    ______ ____
ROOT
ATOM      1  N   UNL     1       8.089   9.185  17.956  0.00  0.00    +0.000 N 
ATOM      2  C   UNL     1       7.853   7.838  17.932  0.00  0.00    +0.000 C 
ATOM      3  O   UNL     1       8.254   7.062  18.786  0.00  0.00    +0.000 OA
ATOM      4  N   UNL     1       7.135   7.454  16.828  0.00  0.00    +0.000 N 
ATOM      5  H   UNL     1       7.935   9.706  17.107  0.00  0.00    +0.000 HD
ATOM      6  H   UNL     1       6.525   8.152  16.427  0.00  0.00    +0.000 HD
ENDROOT
BRANCH   1   7
ATOM      7  C   UNL     1       8.967   9.772  18.946  0.00  0.00    +0.000 C 
BRANCH   7  13
ATOM      8  C   UNL     1      12.332  13.654  17.581  0.00  0.00    +0.000 C 
ATOM      9  C   UNL     1      11.149  12.772  17.771  0.00  0.00    +0.000 A 
ATOM     10  N   UNL     1       9.933  13.072  17.371  0.00  0.00    +0.000 NA
ATOM     11  C   UNL     1       9.052  12.058  17.715  0.00  0.00    +0.000 A 
ATOM     12  C   UNL     1       7.616  12.223  17.368  0.00  0.00    +0.000 C 
ATOM     13  C   UNL     1       9.624  10.986  18.381  0.00  0.00    +0.000 A 
ATOM     14  S   UNL     1      11.311  11.257  18.563  0.00  0.00    +0.000 S 
ENDBRANCH   7  13
ENDBRANCH   1   7
BRANCH   4  15
ATOM     15  C   UNL     1       6.702   6.078  16.707  0.00  0.00    +0.000 C 
BRANCH  15  16
ATOM     16  C   UNL     1       5.268   5.893  17.131  0.00  0.00    +0.000 A 
ATOM     17  C   UNL     1       4.697   4.612  17.112  0.00  0.00    +0.000 A 
ATOM     18  C   UNL     1       3.388   4.410  17.548  0.00  0.00    +0.000 A 
ATOM     19  C   UNL     1       2.620   5.487  17.993  0.00  0.00    +0.000 A 
ATOM     20  C   UNL     1       3.159   6.779  17.983  0.00  0.00    +0.000 A 
ATOM     21  C   UNL     1       4.485   6.978  17.554  0.00  0.00    +0.000 A 
BRANCH  20  22
ATOM     22  N   UNL     1       2.375   7.895  18.379  0.00  0.00    +0.000 N 
ATOM     23  C   UNL     1       1.853   8.190  19.616  0.00  0.00    +0.000 A 
ATOM     24  N   UNL     1       1.114   9.274  19.561  0.00  0.00    +0.000 NA
ATOM     25  C   UNL     1       1.220   9.638  18.254  0.00  0.00    +0.000 A 
ATOM     26  N   UNL     1       1.989   8.853  17.498  0.00  0.00    +0.000 NA
ENDBRANCH  20  22
ENDBRANCH  15  16
ENDBRANCH   4  15
TORSDOF 5
ENDMDL
MODEL 3
REMARK VINA RESULT:      -7.4      2.862      9.761
REMARK  Name = 
REMARK  7 active torsions:
REMARK  status: ('A' for Active; 'I' for Inactive)
REMARK    1  A    between atoms: C_1  and  C_2
REMARK    2  A    between atoms: C_4  and  C_5
REMARK    3  A    between atoms: C_6  and  C_7
REMARK    4  A    between atoms: C_7  and  N_8
REMARK    5  A    between atoms: N_11  and  C_12
REMARK    6  A    between atoms: C_12  and  C_13
REMARK    7  A    between atoms: C_17  and  N_18
REMARK                            x       y       z     vdW  Elec       q    Type
REMARK                         _______ _______ _______ _____ _____    ______ ____
ROOT
ATOM      1  N   UNL     1       8.241   9.440  17.906  0.00  0.00    +0.000 N 
ATOM      2  C   UNL     1       7.876   8.123  17.958  0.00  0.00    +0.000 C 
ATOM      3  O   UNL     1       8.354   7.315  18.741  0.00  0.00    +0.000 OA
ATOM      4  N   UNL     1       6.931   7.806  17.016  0.00  0.00    +0.000 N 
ATOM      5  H   UNL     1       7.981   9.969  17.088  0.00  0.00    +0.000 HD
ATOM      6  H   UNL     1       6.327   8.559  16.719  0.00  0.00    +0.000 HD
ENDROOT
BRANCH   1   7
ATOM      7  C   UNL     1       9.342   9.942  18.701  0.00  0.00    +0.000 C 
BRANCH   7  13
ATOM      8  C   UNL     1       8.381  15.099  17.845  0.00  0.00    +0.000 C 
ATOM      9  C   UNL     1       8.876  13.788  18.347  0.00  0.00    +0.000 A 
ATOM     10  N   UNL     1       9.823  13.653  19.248  0.00  0.00    +0.000 NA
ATOM     11  C   UNL     1      10.071  12.309  19.484  0.00  0.00    +0.000 A 
ATOM     12  C   UNL     1      11.133  11.949  20.460  0.00  0.00    +0.000 C 
ATOM     13  C   UNL     1       9.294  11.432  18.744  0.00  0.00    +0.000 A 
ATOM     14  S   UNL     1       8.218  12.321  17.744  0.00  0.00    +0.000 S 
ENDBRANCH   7  13
ENDBRANCH   1   7
BRANCH   4  15
ATOM     15  C   UNL     1       6.353   6.478  17.010  0.00  0.00    +0.000 C 
BRANCH  15  16
ATOM     16  C   UNL     1       4.996   6.446  17.665  0.00  0.00    +0.000 A 
ATOM     17  C   UNL     1       4.049   7.431  17.351  0.00  0.00    +0.000 A 
ATOM     18  C   UNL     1       2.769   7.391  17.906  0.00  0.00    +0.000 A 
ATOM     19  C   UNL     1       2.421   6.377  18.799  0.00  0.00    +0.000 A 
ATOM     20  C   UNL     1       3.365   5.406  19.154  0.00  0.00    +0.000 A 
ATOM     21  C   UNL     1       4.651   5.442  18.582  0.00  0.00    +0.000 A 
BRANCH  20  22
ATOM     22  N   UNL     1       3.048   4.398  20.104  0.00  0.00    +0.000 N 
ATOM     23  C   UNL     1       3.408   3.071  20.109  0.00  0.00    +0.000 A 
ATOM     24  N   UNL     1       2.849   2.444  21.118  0.00  0.00    +0.000 NA
ATOM     25  C   UNL     1       2.154   3.437  21.735  0.00  0.00    +0.000 A 
ATOM     26  N   UNL     1       2.256   4.645  21.178  0.00  0.00    +0.000 NA
ENDBRANCH  20  22
ENDBRANCH  15  16
ENDBRANCH   4  15
TORSDOF 5
ENDMDL
MODEL 4
REMARK VINA RESULT:      -7.4      2.535      3.316
REMARK  Name = 
REMARK  7 active torsions:
REMARK  status: ('A' for Active; 'I' for Inactive)
REMARK    1  A    between atoms: C_1  and  C_2
REMARK    2  A    between atoms: C_4  and  C_5
REMARK    3  A    between atoms: C_6  and  C_7
REMARK    4  A    between atoms: C_7  and  N_8
REMARK    5  A    between atoms: N_11  and  C_12
REMARK    6  A    between atoms: C_12  and  C_13
REMARK    7  A    between atoms: C_17  and  N_18
REMARK                            x       y       z     vdW  Elec       q    Type
REMARK                         _______ _______ _______ _____ _____    ______ ____
ROOT
ATOM      1  N   UNL     1       7.716   6.175  18.662  0.00  0.00    +0.000 N 
ATOM      2  C   UNL     1       7.979   7.312  17.948  0.00  0.00    +0.000 C 
ATOM      3  O   UNL     1       7.796   7.417  16.745  0.00  0.00    +0.000 OA
ATOM      4  N   UNL     1       8.494   8.312  18.733  0.00  0.00    +0.000 N 
ATOM      5  H   UNL     1       8.114   6.094  19.584  0.00  0.00    +0.000 HD
ATOM      6  H   UNL     1       8.234   8.292  19.709  0.00  0.00    +0.000 HD
ENDROOT
BRANCH   1   7
ATOM      7  C   UNL     1       7.323   4.950  17.997  0.00  0.00    +0.000 C 
BRANCH   7  13
ATOM      8  C   UNL     1       2.122   4.541  19.013  0.00  0.00    +0.000 C 
ATOM      9  C   UNL     1       3.462   4.665  18.377  0.00  0.00    +0.000 A 
ATOM     10  N   UNL     1       3.668   4.632  17.080  0.00  0.00    +0.000 NA
ATOM     11  C   UNL     1       5.023   4.749  16.807  0.00  0.00    +0.000 A 
ATOM     12  C   UNL     1       5.463   4.710  15.388  0.00  0.00    +0.000 C 
ATOM     13  C   UNL     1       5.836   4.870  17.923  0.00  0.00    +0.000 A 
ATOM     14  S   UNL     1       4.869   4.854  19.342  0.00  0.00    +0.000 S 
ENDBRANCH   7  13
ENDBRANCH   1   7
BRANCH   4  15
ATOM     15  C   UNL     1       8.723   9.619  18.156  0.00  0.00    +0.000 C 
BRANCH  15  16
ATOM     16  C   UNL     1       9.421  10.550  19.114  0.00  0.00    +0.000 A 
ATOM     17  C   UNL     1      10.699  11.037  18.804  0.00  0.00    +0.000 A 
ATOM     18  C   UNL     1      11.342  11.939  19.652  0.00  0.00    +0.000 A 
ATOM     19  C   UNL     1      10.727  12.356  20.833  0.00  0.00    +0.000 A 
ATOM     20  C   UNL     1       9.467  11.852  21.179  0.00  0.00    +0.000 A 
ATOM     21  C   UNL     1       8.815  10.951  20.315  0.00  0.00    +0.000 A 
BRANCH  20  22
ATOM     22  N   UNL     1       8.849  12.220  22.404  0.00  0.00    +0.000 N 
ATOM     23  C   UNL     1       8.806  13.451  23.014  0.00  0.00    +0.000 A 
ATOM     24  N   UNL     1       8.207  13.370  24.180  0.00  0.00    +0.000 NA
ATOM     25  C   UNL     1       7.871  12.053  24.248  0.00  0.00    +0.000 A 
ATOM     26  N   UNL     1       8.215  11.315  23.191  0.00  0.00    +0.000 NA
ENDBRANCH  20  22
ENDBRANCH  15  16
ENDBRANCH   4  15
TORSDOF 5
ENDMDL
MODEL 5
REMARK VINA RESULT:      -7.3      3.229      8.689
REMARK  Name = 
REMARK  7 active torsions:
REMARK  status: ('A' for Active; 'I' for Inactive)
REMARK    1  A    between atoms: C_1  and  C_2
REMARK    2  A    between atoms: C_4  and  C_5
REMARK    3  A    between atoms: C_6  and  C_7
REMARK    4  A    between atoms: C_7  and  N_8
REMARK    5  A    between atoms: N_11  and  C_12
REMARK    6  A    between atoms: C_12  and  C_13
REMARK    7  A    between atoms: C_17  and  N_18
REMARK                            x       y       z     vdW  Elec       q    Type
REMARK                         _______ _______ _______ _____ _____    ______ ____
ROOT
ATOM      1  N   UNL     1       8.150   9.240  17.913  0.00  0.00    +0.000 N 
ATOM      2  C   UNL     1       7.891   7.897  17.904  0.00  0.00    +0.000 C 
ATOM      3  O   UNL     1       8.340   7.111  18.725  0.00  0.00    +0.000 OA
ATOM      4  N   UNL     1       7.088   7.529  16.854  0.00  0.00    +0.000 N 
ATOM      5  H   UNL     1       7.944   9.766  17.079  0.00  0.00    +0.000 HD
ATOM      6  H   UNL     1       6.462   8.238  16.500  0.00  0.00    +0.000 HD
ENDROOT
BRANCH   1   7
ATOM      7  C   UNL     1       9.108   9.808  18.838  0.00  0.00    +0.000 C 
BRANCH   7  13
ATOM      8  C   UNL     1       8.077  14.898  17.706  0.00  0.00    +0.000 C 
ATOM      9  C   UNL     1       8.543  13.622  18.313  0.00  0.00    +0.000 A 
ATOM     10  N   UNL     1       9.346  13.548  19.351  0.00  0.00    +0.000 NA
ATOM     11  C   UNL     1       9.610  12.221  19.658  0.00  0.00    +0.000 A 
ATOM     12  C   UNL     1      10.523  11.929  20.794  0.00  0.00    +0.000 C 
ATOM     13  C   UNL     1       8.993  11.295  18.833  0.00  0.00    +0.000 A 
ATOM     14  S   UNL     1       8.046  12.114  17.657  0.00  0.00    +0.000 S 
ENDBRANCH   7  13
ENDBRANCH   1   7
BRANCH   4  15
ATOM     15  C   UNL     1       6.625   6.160  16.761  0.00  0.00    +0.000 C 
BRANCH  15  16
ATOM     16  C   UNL     1       5.185   6.017  17.184  0.00  0.00    +0.000 A 
ATOM     17  C   UNL     1       4.583   4.751  17.181  0.00  0.00    +0.000 A 
ATOM     18  C   UNL     1       3.267   4.587  17.617  0.00  0.00    +0.000 A 
ATOM     19  C   UNL     1       2.526   5.689  18.045  0.00  0.00    +0.000 A 
ATOM     20  C   UNL     1       3.097   6.967  18.019  0.00  0.00    +0.000 A 
ATOM     21  C   UNL     1       4.428   7.127  17.590  0.00  0.00    +0.000 A 
BRANCH  20  22
ATOM     22  N   UNL     1       2.341   8.108  18.396  0.00  0.00    +0.000 N 
ATOM     23  C   UNL     1       1.694   8.362  19.583  0.00  0.00    +0.000 A 
ATOM     24  N   UNL     1       1.034   9.496  19.517  0.00  0.00    +0.000 NA
ATOM     25  C   UNL     1       1.316   9.929  18.259  0.00  0.00    +0.000 A 
ATOM     26  N   UNL     1       2.120   9.141  17.544  0.00  0.00    +0.000 NA
ENDBRANCH  20  22
ENDBRANCH  15  16
ENDBRANCH   4  15
TORSDOF 5
ENDMDL
MODEL 6
REMARK VINA RESULT:      -7.3      2.631      9.983
REMARK  Name = 
REMARK  7 active torsions:
REMARK  status: ('A' for Active; 'I' for Inactive)
REMARK    1  A    between atoms: C_1  and  C_2
REMARK    2  A    between atoms: C_4  and  C_5
REMARK    3  A    between atoms: C_6  and  C_7
REMARK    4  A    between atoms: C_7  and  N_8
REMARK    5  A    between atoms: N_11  and  C_12
REMARK    6  A    between atoms: C_12  and  C_13
REMARK    7  A    between atoms: C_17  and  N_18
REMARK                            x       y       z     vdW  Elec       q    Type
REMARK                         _______ _______ _______ _____ _____    ______ ____
ROOT
ATOM      1  N   UNL     1       8.124   9.455  17.822  0.00  0.00    +0.000 N 
ATOM      2  C   UNL     1       7.804   8.126  17.878  0.00  0.00    +0.000 C 
ATOM      3  O   UNL     1       8.346   7.327  18.626  0.00  0.00    +0.000 OA
ATOM      4  N   UNL     1       6.822   7.789  16.982  0.00  0.00    +0.000 N 
ATOM      5  H   UNL     1       7.807   9.983  17.025  0.00  0.00    +0.000 HD
ATOM      6  H   UNL     1       6.180   8.525  16.724  0.00  0.00    +0.000 HD
ENDROOT
BRANCH   1   7
ATOM      7  C   UNL     1       9.248   9.984  18.567  0.00  0.00    +0.000 C 
BRANCH   7  13
ATOM      8  C   UNL     1       8.237  15.157  17.877  0.00  0.00    +0.000 C 
ATOM      9  C   UNL     1       8.670  13.827  18.387  0.00  0.00    +0.000 A 
ATOM     10  N   UNL     1       9.384  13.652  19.477  0.00  0.00    +0.000 NA
ATOM     11  C   UNL     1       9.643  12.303  19.668  0.00  0.00    +0.000 A 
ATOM     12  C   UNL     1      10.462  11.901  20.842  0.00  0.00    +0.000 C 
ATOM     13  C   UNL     1       9.110  11.463  18.704  0.00  0.00    +0.000 A 
ATOM     14  S   UNL     1       8.253  12.392  17.541  0.00  0.00    +0.000 S 
ENDBRANCH   7  13
ENDBRANCH   1   7
BRANCH   4  15
ATOM     15  C   UNL     1       6.286   6.444  16.989  0.00  0.00    +0.000 C 
BRANCH  15  16
ATOM     16  C   UNL     1       4.852   6.406  17.452  0.00  0.00    +0.000 A 
ATOM     17  C   UNL     1       4.096   7.587  17.470  0.00  0.00    +0.000 A 
ATOM     18  C   UNL     1       2.753   7.566  17.847  0.00  0.00    +0.000 A 
ATOM     19  C   UNL     1       2.147   6.368  18.229  0.00  0.00    +0.000 A 
ATOM     20  C   UNL     1       2.896   5.185  18.254  0.00  0.00    +0.000 A 
ATOM     21  C   UNL     1       4.247   5.207  17.862  0.00  0.00    +0.000 A 
BRANCH  20  22
ATOM     22  N   UNL     1       2.313   3.967  18.694  0.00  0.00    +0.000 N 
ATOM     23  C   UNL     1       2.248   3.451  19.966  0.00  0.00    +0.000 A 
ATOM     24  N   UNL     1       1.698   2.258  19.954  0.00  0.00    +0.000 NA
ATOM     25  C   UNL     1       1.416   2.076  18.636  0.00  0.00    +0.000 A 
ATOM     26  N   UNL     1       1.746   3.087  17.831  0.00  0.00    +0.000 NA
ENDBRANCH  20  22
ENDBRANCH  15  16
ENDBRANCH   4  15
TORSDOF 5
ENDMDL
MODEL 7
REMARK VINA RESULT:      -7.3      1.076      1.093
REMARK  Name = 
REMARK  7 active torsions:
REMARK  status: ('A' for Active; 'I' for Inactive)
REMARK    1  A    between atoms: C_1  and  C_2
REMARK    2  A    between atoms: C_4  and  C_5
REMARK    3  A    between atoms: C_6  and  C_7
REMARK    4  A    between atoms: C_7  and  N_8
REMARK    5  A    between atoms: N_11  and  C_12
REMARK    6  A    between atoms: C_12  and  C_13
REMARK    7  A    between atoms: C_17  and  N_18
REMARK                            x       y       z     vdW  Elec       q    Type
REMARK                         _______ _______ _______ _____ _____    ______ ____
ROOT
ATOM      1  N   UNL     1       7.964   6.509  18.844  0.00  0.00    +0.000 N 
ATOM      2  C   UNL     1       8.059   7.588  18.008  0.00  0.00    +0.000 C 
ATOM      3  O   UNL     1       7.826   7.542  16.810  0.00  0.00    +0.000 OA
ATOM      4  N   UNL     1       8.468   8.721  18.665  0.00  0.00    +0.000 N 
ATOM      5  H   UNL     1       8.398   6.575  19.751  0.00  0.00    +0.000 HD
ATOM      6  H   UNL     1       8.243   8.773  19.648  0.00  0.00    +0.000 HD
ENDROOT
BRANCH   1   7
ATOM      7  C   UNL     1       7.709   5.182  18.324  0.00  0.00    +0.000 C 
BRANCH   7  13
ATOM      8  C   UNL     1       2.409   4.793  18.399  0.00  0.00    +0.000 C 
ATOM      9  C   UNL     1       3.846   4.844  18.015  0.00  0.00    +0.000 A 
ATOM     10  N   UNL     1       4.297   4.584  16.808  0.00  0.00    +0.000 NA
ATOM     11  C   UNL     1       5.679   4.694  16.779  0.00  0.00    +0.000 A 
ATOM     12  C   UNL     1       6.382   4.413  15.500  0.00  0.00    +0.000 C 
ATOM     13  C   UNL     1       6.263   5.042  17.986  0.00  0.00    +0.000 A 
ATOM     14  S   UNL     1       5.043   5.250  19.177  0.00  0.00    +0.000 S 
ENDBRANCH   7  13
ENDBRANCH   1   7
BRANCH   4  15
ATOM     15  C   UNL     1       8.511   9.979  17.949  0.00  0.00    +0.000 C 
BRANCH  15  16
ATOM     16  C   UNL     1       9.181  11.066  18.750  0.00  0.00    +0.000 A 
ATOM     17  C   UNL     1      10.046  10.723  19.799  0.00  0.00    +0.000 A 
ATOM     18  C   UNL     1      10.716  11.711  20.521  0.00  0.00    +0.000 A 
ATOM     19  C   UNL     1      10.520  13.059  20.218  0.00  0.00    +0.000 A 
ATOM     20  C   UNL     1       9.631  13.423  19.199  0.00  0.00    +0.000 A 
ATOM     21  C   UNL     1       8.966  12.423  18.465  0.00  0.00    +0.000 A 
BRANCH  20  22
ATOM     22  N   UNL     1       9.374  14.790  18.913  0.00  0.00    +0.000 N 
ATOM     23  C   UNL     1       9.765  15.907  19.613  0.00  0.00    +0.000 A 
ATOM     24  N   UNL     1       9.260  16.992  19.073  0.00  0.00    +0.000 NA
ATOM     25  C   UNL     1       8.566  16.499  18.012  0.00  0.00    +0.000 A 
ATOM     26  N   UNL     1       8.618  15.175  17.854  0.00  0.00    +0.000 NA
ENDBRANCH  20  22
ENDBRANCH  15  16
ENDBRANCH   4  15
TORSDOF 5
ENDMDL
MODEL 8
REMARK VINA RESULT:      -7.3      6.521      8.924
REMARK  Name = 
REMARK  7 active torsions:
REMARK  status: ('A' for Active; 'I' for Inactive)
REMARK    1  A    between atoms: C_1  and  C_2
REMARK    2  A    between atoms: C_4  and  C_5
REMARK    3  A    between atoms: C_6  and  C_7
REMARK    4  A    between atoms: C_7  and  N_8
REMARK    5  A    between atoms: N_11  and  C_12
REMARK    6  A    between atoms: C_12  and  C_13
REMARK    7  A    between atoms: C_17  and  N_18
REMARK                            x       y       z     vdW  Elec       q    Type
REMARK                         _______ _______ _______ _____ _____    ______ ____
ROOT
ATOM      1  N   UNL     1       1.912   7.377  20.861  0.00  0.00    +0.000 N 
ATOM      2  C   UNL     1       2.143   6.160  20.281  0.00  0.00    +0.000 C 
ATOM      3  O   UNL     1       1.259   5.372  19.977  0.00  0.00    +0.000 OA
ATOM      4  N   UNL     1       3.480   5.914  20.102  0.00  0.00    +0.000 N 
ATOM      5  H   UNL     1       2.691   7.850  21.292  0.00  0.00    +0.000 HD
ATOM      6  H   UNL     1       4.073   6.724  19.994  0.00  0.00    +0.000 HD
ENDROOT
BRANCH   1   7
ATOM      7  C   UNL     1       0.582   7.761  21.287  0.00  0.00    +0.000 C 
BRANCH   7  13
ATOM      8  C   UNL     1       0.409  12.592  19.077  0.00  0.00    +0.000 C 
ATOM      9  C   UNL     1       0.278  11.409  19.972  0.00  0.00    +0.000 A 
ATOM     10  N   UNL     1      -0.204  11.458  21.193  0.00  0.00    +0.000 NA
ATOM     11  C   UNL     1      -0.172  10.198  21.772  0.00  0.00    +0.000 A 
ATOM     12  C   UNL     1      -0.657  10.051  23.170  0.00  0.00    +0.000 C 
ATOM     13  C   UNL     1       0.344   9.197  20.965  0.00  0.00    +0.000 A 
ATOM     14  S   UNL     1       0.781   9.856  19.441  0.00  0.00    +0.000 S 
ENDBRANCH   7  13
ENDBRANCH   1   7
BRANCH   4  15
ATOM     15  C   UNL     1       3.893   4.718  19.398  0.00  0.00    +0.000 C 
BRANCH  15  16
ATOM     16  C   UNL     1       5.201   4.907  18.674  0.00  0.00    +0.000 A 
ATOM     17  C   UNL     1       6.341   5.301  19.390  0.00  0.00    +0.000 A 
ATOM     18  C   UNL     1       7.574   5.434  18.750  0.00  0.00    +0.000 A 
ATOM     19  C   UNL     1       7.684   5.192  17.380  0.00  0.00    +0.000 A 
ATOM     20  C   UNL     1       6.550   4.834  16.640  0.00  0.00    +0.000 A 
ATOM     21  C   UNL     1       5.310   4.690  17.292  0.00  0.00    +0.000 A 
BRANCH  20  22
ATOM     22  N   UNL     1       6.631   4.639  15.236  0.00  0.00    +0.000 N 
ATOM     23  C   UNL     1       5.920   3.771  14.442  0.00  0.00    +0.000 A 
ATOM     24  N   UNL     1       6.341   3.829  13.199  0.00  0.00    +0.000 NA
ATOM     25  C   UNL     1       7.316   4.775  13.262  0.00  0.00    +0.000 A 
ATOM     26  N   UNL     1       7.519   5.315  14.464  0.00  0.00    +0.000 NA
ENDBRANCH  20  22
ENDBRANCH  15  16
ENDBRANCH   4  15
TORSDOF 5
ENDMDL
MODEL 9
REMARK VINA RESULT:      -7.2      1.015      1.168
REMARK  Name = 
REMARK  7 active torsions:
REMARK  status: ('A' for Active; 'I' for Inactive)
REMARK    1  A    between atoms: C_1  and  C_2
REMARK    2  A    between atoms: C_4  and  C_5
REMARK    3  A    between atoms: C_6  and  C_7
REMARK    4  A    between atoms: C_7  and  N_8
REMARK    5  A    between atoms: N_11  and  C_12
REMARK    6  A    between atoms: C_12  and  C_13
REMARK    7  A    between atoms: C_17  and  N_18
REMARK                            x       y       z     vdW  Elec       q    Type
REMARK                         _______ _______ _______ _____ _____    ______ ____
ROOT
ATOM      1  N   UNL     1       7.141   6.262  18.601  0.00  0.00    +0.000 N 
ATOM      2  C   UNL     1       7.646   7.201  17.744  0.00  0.00    +0.000 C 
ATOM      3  O   UNL     1       7.669   7.070  16.529  0.00  0.00    +0.000 OA
ATOM      4  N   UNL     1       8.144   8.294  18.404  0.00  0.00    +0.000 N 
ATOM      5  H   UNL     1       7.376   6.339  19.578  0.00  0.00    +0.000 HD
ATOM      6  H   UNL     1       7.733   8.498  19.304  0.00  0.00    +0.000 HD
ENDROOT
BRANCH   1   7
ATOM      7  C   UNL     1       6.718   4.963  18.120  0.00  0.00    +0.000 C 
BRANCH   7  13
ATOM      8  C   UNL     1       1.898   3.204  19.510  0.00  0.00    +0.000 C 
ATOM      9  C   UNL     1       3.053   3.979  18.981  0.00  0.00    +0.000 A 
ATOM     10  N   UNL     1       2.940   5.073  18.262  0.00  0.00    +0.000 NA
ATOM     11  C   UNL     1       4.195   5.544  17.905  0.00  0.00    +0.000 A 
ATOM     12  C   UNL     1       4.277   6.767  17.064  0.00  0.00    +0.000 C 
ATOM     13  C   UNL     1       5.258   4.785  18.368  0.00  0.00    +0.000 A 
ATOM     14  S   UNL     1       4.662   3.461  19.286  0.00  0.00    +0.000 S 
ENDBRANCH   7  13
ENDBRANCH   1   7
BRANCH   4  15
ATOM     15  C   UNL     1       8.614   9.431  17.641  0.00  0.00    +0.000 C 
BRANCH  15  16
ATOM     16  C   UNL     1       9.164  10.522  18.524  0.00  0.00    +0.000 A 
ATOM     17  C   UNL     1       9.240  10.321  19.910  0.00  0.00    +0.000 A 
ATOM     18  C   UNL     1       9.792  11.296  20.741  0.00  0.00    +0.000 A 
ATOM     19  C   UNL     1      10.261  12.495  20.203  0.00  0.00    +0.000 A 
ATOM     20  C   UNL     1      10.158  12.730  18.827  0.00  0.00    +0.000 A 
ATOM     21  C   UNL     1       9.612  11.739  17.990  0.00  0.00    +0.000 A 
BRANCH  20  22
ATOM     22  N   UNL     1      10.577  13.967  18.268  0.00  0.00    +0.000 N 
ATOM     23  C   UNL     1      10.500  15.229  18.808  0.00  0.00    +0.000 A 
ATOM     24  N   UNL     1      10.920  16.128  17.947  0.00  0.00    +0.000 NA
ATOM     25  C   UNL     1      11.271  15.368  16.875  0.00  0.00    +0.000 A 
ATOM     26  N   UNL     1      11.106  14.052  17.021  0.00  0.00    +0.000 NA
ENDBRANCH  20  22
ENDBRANCH  15  16
ENDBRANCH   4  15
TORSDOF 5
ENDMDL
