MODEL 1
REMARK VINA RESULT:      -6.5      0.000      0.000
REMARK  Name = 
REMARK  9 active torsions:
REMARK  status: ('A' for Active; 'I' for Inactive)
REMARK    1  A    between atoms: C_1  and  O_2
REMARK    2  A    between atoms: O_2  and  C_3
REMARK    3  A    between atoms: C_9  and  C_11
REMARK    4  A    between atoms: C_20  and  O_21
REMARK    5  A    between atoms: O_21  and  C_22
REMARK    6  A    between atoms: C_23  and  O_24
REMARK    7  A    between atoms: O_24  and  C_25
REMARK    8  A    between atoms: C_26  and  O_27
REMARK    9  A    between atoms: O_27  and  C_28
REMARK                            x       y       z     vdW  Elec       q    Type
REMARK                         _______ _______ _______ _____ _____    ______ ____
ROOT
ATOM      1  C   UNL     1      -0.070  15.801  19.069  0.00  0.00    +0.000 C 
ATOM      2  C   UNL     1      -1.046  15.192  19.772  0.00  0.00    +0.000 C 
ATOM      3  C   UNL     1      -0.894  13.774  20.362  0.00  0.00    +0.000 C 
ATOM      4  C   UNL     1       0.019  13.400  21.580  0.00  0.00    +0.000 C 
ATOM      5  C   UNL     1       0.108  11.844  21.746  0.00  0.00    +0.000 C 
ATOM      6  N   UNL     1       0.227  11.014  20.506  0.00  0.00    +0.000 N 
ATOM      7  C   UNL     1       0.565   9.655  20.486  0.00  0.00    +0.000 C 
ATOM      8  O   UNL     1       0.617   9.049  19.402  0.00  0.00    +0.000 OA
ATOM      9  C   UNL     1      -0.119  11.583  19.201  0.00  0.00    +0.000 C 
ATOM     10  C   UNL     1      -1.445  11.087  18.586  0.00  0.00    +0.000 C 
ATOM     11  C   UNL     1      -2.549  12.120  18.436  0.00  0.00    +0.000 C 
ATOM     12  C   UNL     1      -3.103  12.529  19.773  0.00  0.00    +0.000 A 
ATOM     13  C   UNL     1      -4.427  12.149  20.074  0.00  0.00    +0.000 A 
ATOM     14  C   UNL     1      -5.017  12.449  21.300  0.00  0.00    +0.000 A 
ATOM     15  C   UNL     1      -4.273  13.128  22.273  0.00  0.00    +0.000 A 
ATOM     16  C   UNL     1      -2.997  13.646  21.937  0.00  0.00    +0.000 A 
ATOM     17  C   UNL     1      -2.349  13.279  20.696  0.00  0.00    +0.000 A 
ATOM     18  C   UNL     1       0.002  13.054  19.320  0.00  0.00    +0.000 C 
ATOM     19  C   UNL     1       1.108  13.670  18.835  0.00  0.00    +0.000 C 
ATOM     20  C   UNL     1       1.241  15.108  19.137  0.00  0.00    +0.000 C 
ATOM     21  O   UNL     1       2.300  15.642  19.419  0.00  0.00    +0.000 OA
ENDROOT
BRANCH   7  22
ATOM     22  C   UNL     1       0.915   8.903  21.783  0.00  0.00    +0.000 C 
ATOM     23  F   UNL     1      -0.078   8.835  22.707  0.00  0.00    +0.000 F 
ATOM     24  F   UNL     1       1.266   7.608  21.527  0.00  0.00    +0.000 F 
ATOM     25  F   UNL     1       1.988   9.464  22.414  0.00  0.00    +0.000 F 
ENDBRANCH   7  22
BRANCH   1  27
ATOM     26  C   UNL     1      -1.179  17.799  18.364  0.00  0.00    +0.000 C 
ATOM     27  O   UNL     1      -0.396  16.657  18.032  0.00  0.00    +0.000 OA
ENDBRANCH   1  27
BRANCH  14  28
ATOM     28  O   UNL     1      -6.304  12.092  21.609  0.00  0.00    +0.000 OA
ATOM     29  C   UNL     1      -7.074  11.510  20.566  0.00  0.00    +0.000 C 
ENDBRANCH  14  28
BRANCH  15  30
ATOM     30  O   UNL     1      -4.790  13.353  23.530  0.00  0.00    +0.000 OA
ATOM     31  C   UNL     1      -4.371  12.426  24.555  0.00  0.00    +0.000 C 
ENDBRANCH  15  30
BRANCH  16  32
ATOM     32  O   UNL     1      -2.295  14.543  22.715  0.00  0.00    +0.000 OA
ATOM     33  C   UNL     1      -2.759  15.878  22.882  0.00  0.00    +0.000 C 
ENDBRANCH  16  32
TORSDOF 5
ENDMDL
MODEL 2
REMARK VINA RESULT:      -6.4      0.998      1.093
REMARK  Name = 
REMARK  9 active torsions:
REMARK  status: ('A' for Active; 'I' for Inactive)
REMARK    1  A    between atoms: C_1  and  O_2
REMARK    2  A    between atoms: O_2  and  C_3
REMARK    3  A    between atoms: C_9  and  C_11
REMARK    4  A    between atoms: C_20  and  O_21
REMARK    5  A    between atoms: O_21  and  C_22
REMARK    6  A    between atoms: C_23  and  O_24
REMARK    7  A    between atoms: O_24  and  C_25
REMARK    8  A    between atoms: C_26  and  O_27
REMARK    9  A    between atoms: O_27  and  C_28
REMARK                            x       y       z     vdW  Elec       q    Type
REMARK                         _______ _______ _______ _____ _____    ______ ____
ROOT
ATOM      1  C   UNL     1       0.174  15.629  19.286  0.00  0.00    +0.000 C 
ATOM      2  C   UNL     1      -0.909  14.921  19.661  0.00  0.00    +0.000 C 
ATOM      3  C   UNL     1      -0.828  13.460  20.153  0.00  0.00    +0.000 C 
ATOM      4  C   UNL     1      -0.234  13.008  21.531  0.00  0.00    +0.000 C 
ATOM      5  C   UNL     1      -0.097  11.447  21.588  0.00  0.00    +0.000 C 
ATOM      6  N   UNL     1       0.384  10.742  20.358  0.00  0.00    +0.000 N 
ATOM      7  C   UNL     1       0.797   9.405  20.316  0.00  0.00    +0.000 C 
ATOM      8  O   UNL     1       1.160   8.906  19.237  0.00  0.00    +0.000 OA
ATOM      9  C   UNL     1       0.348  11.418  19.059  0.00  0.00    +0.000 C 
ATOM     10  C   UNL     1      -0.746  10.933  18.083  0.00  0.00    +0.000 C 
ATOM     11  C   UNL     1      -1.835  11.934  17.737  0.00  0.00    +0.000 C 
ATOM     12  C   UNL     1      -2.735  12.194  18.913  0.00  0.00    +0.000 A 
ATOM     13  C   UNL     1      -4.066  11.738  18.829  0.00  0.00    +0.000 A 
ATOM     14  C   UNL     1      -4.966  11.899  19.881  0.00  0.00    +0.000 A 
ATOM     15  C   UNL     1      -4.536  12.512  21.065  0.00  0.00    +0.000 A 
ATOM     16  C   UNL     1      -3.250  13.106  21.114  0.00  0.00    +0.000 A 
ATOM     17  C   UNL     1      -2.287  12.882  20.058  0.00  0.00    +0.000 A 
ATOM     18  C   UNL     1       0.346  12.874  19.323  0.00  0.00    +0.000 C 
ATOM     19  C   UNL     1       1.499  13.574  19.193  0.00  0.00    +0.000 C 
ATOM     20  C   UNL     1       1.464  14.982  19.635  0.00  0.00    +0.000 C 
ATOM     21  O   UNL     1       2.383  15.527  20.224  0.00  0.00    +0.000 OA
ENDROOT
BRANCH   7  22
ATOM     22  C   UNL     1       0.850   8.548  21.595  0.00  0.00    +0.000 C 
ATOM     23  F   UNL     1      -0.339   8.358  22.223  0.00  0.00    +0.000 F 
ATOM     24  F   UNL     1       1.331   7.297  21.334  0.00  0.00    +0.000 F 
ATOM     25  F   UNL     1       1.693   9.086  22.524  0.00  0.00    +0.000 F 
ENDBRANCH   7  22
BRANCH   1  27
ATOM     26  C   UNL     1      -1.023  17.472  18.345  0.00  0.00    +0.000 C 
ATOM     27  O   UNL     1       0.072  16.565  18.273  0.00  0.00    +0.000 OA
ENDBRANCH   1  27
BRANCH  14  28
ATOM     28  O   UNL     1      -6.265  11.467  19.816  0.00  0.00    +0.000 OA
ATOM     29  C   UNL     1      -6.621  10.679  18.688  0.00  0.00    +0.000 C 
ENDBRANCH  14  28
BRANCH  15  30
ATOM     30  O   UNL     1      -5.369  12.598  22.160  0.00  0.00    +0.000 OA
ATOM     31  C   UNL     1      -6.363  13.644  22.110  0.00  0.00    +0.000 C 
ENDBRANCH  15  30
BRANCH  16  32
ATOM     32  O   UNL     1      -2.825  13.952  22.117  0.00  0.00    +0.000 OA
ATOM     33  C   UNL     1      -3.279  15.299  22.172  0.00  0.00    +0.000 C 
ENDBRANCH  16  32
TORSDOF 5
ENDMDL
MODEL 3
REMARK VINA RESULT:      -6.0      0.866      1.115
REMARK  Name = 
REMARK  9 active torsions:
REMARK  status: ('A' for Active; 'I' for Inactive)
REMARK    1  A    between atoms: C_1  and  O_2
REMARK    2  A    between atoms: O_2  and  C_3
REMARK    3  A    between atoms: C_9  and  C_11
REMARK    4  A    between atoms: C_20  and  O_21
REMARK    5  A    between atoms: O_21  and  C_22
REMARK    6  A    between atoms: C_23  and  O_24
REMARK    7  A    between atoms: O_24  and  C_25
REMARK    8  A    between atoms: C_26  and  O_27
REMARK    9  A    between atoms: O_27  and  C_28
REMARK                            x       y       z     vdW  Elec       q    Type
REMARK                         _______ _______ _______ _____ _____    ______ ____
ROOT
ATOM      1  C   UNL     1      -0.874  16.167  19.889  0.00  0.00    +0.000 C 
ATOM      2  C   UNL     1      -1.834  15.440  20.495  0.00  0.00    +0.000 C 
ATOM      3  C   UNL     1      -1.631  13.969  20.917  0.00  0.00    +0.000 C 
ATOM      4  C   UNL     1      -0.722  13.490  22.100  0.00  0.00    +0.000 C 
ATOM      5  C   UNL     1      -0.569  11.931  22.084  0.00  0.00    +0.000 C 
ATOM      6  N   UNL     1      -0.396  11.259  20.757  0.00  0.00    +0.000 N 
ATOM      7  C   UNL     1      -0.000   9.926  20.584  0.00  0.00    +0.000 C 
ATOM      8  O   UNL     1       0.094   9.456  19.438  0.00  0.00    +0.000 OA
ATOM      9  C   UNL     1      -0.746  11.965  19.522  0.00  0.00    +0.000 C 
ATOM     10  C   UNL     1      -2.040  11.492  18.826  0.00  0.00    +0.000 C 
ATOM     11  C   UNL     1      -3.185  12.490  18.776  0.00  0.00    +0.000 C 
ATOM     12  C   UNL     1      -3.776  12.715  20.141  0.00  0.00    +0.000 A 
ATOM     13  C   UNL     1      -5.087  12.248  20.368  0.00  0.00    +0.000 A 
ATOM     14  C   UNL     1      -5.708  12.377  21.608  0.00  0.00    +0.000 A 
ATOM     15  C   UNL     1      -5.008  12.965  22.670  0.00  0.00    +0.000 A 
ATOM     16  C   UNL     1      -3.750  13.571  22.423  0.00  0.00    +0.000 A 
ATOM     17  C   UNL     1      -3.068  13.380  21.161  0.00  0.00    +0.000 A 
ATOM     18  C   UNL     1      -0.690  13.414  19.815  0.00  0.00    +0.000 C 
ATOM     19  C   UNL     1       0.396  14.127  19.429  0.00  0.00    +0.000 C 
ATOM     20  C   UNL     1       0.463  15.524  19.901  0.00  0.00    +0.000 C 
ATOM     21  O   UNL     1       1.495  16.064  20.265  0.00  0.00    +0.000 OA
ENDROOT
BRANCH   7  22
ATOM     22  C   UNL     1       0.362   9.041  21.790  0.00  0.00    +0.000 C 
ATOM     23  F   UNL     1       0.791   7.787  21.490  0.00  0.00    +0.000 F 
ATOM     24  F   UNL     1       1.361   9.601  22.534  0.00  0.00    +0.000 F 
ATOM     25  F   UNL     1      -0.697   8.892  22.638  0.00  0.00    +0.000 F 
ENDBRANCH   7  22
BRANCH   1  27
ATOM     26  C   UNL     1      -0.409  17.206  17.786  0.00  0.00    +0.000 C 
ATOM     27  O   UNL     1      -1.220  17.125  18.954  0.00  0.00    +0.000 OA
ENDBRANCH   1  27
BRANCH  14  28
ATOM     28  O   UNL     1      -6.983  11.934  21.847  0.00  0.00    +0.000 OA
ATOM     29  C   UNL     1      -7.566  11.099  20.856  0.00  0.00    +0.000 C 
ENDBRANCH  14  28
BRANCH  15  30
ATOM     30  O   UNL     1      -5.553  13.018  23.934  0.00  0.00    +0.000 OA
ATOM     31  C   UNL     1      -4.870  12.246  24.945  0.00  0.00    +0.000 C 
ENDBRANCH  15  30
BRANCH  16  32
ATOM     32  O   UNL     1      -3.099  14.396  23.315  0.00  0.00    +0.000 OA
ATOM     33  C   UNL     1      -3.625  15.680  23.633  0.00  0.00    +0.000 C 
ENDBRANCH  16  32
TORSDOF 5
ENDMDL
MODEL 4
REMARK VINA RESULT:      -5.9      1.497      1.814
REMARK  Name = 
REMARK  9 active torsions:
REMARK  status: ('A' for Active; 'I' for Inactive)
REMARK    1  A    between atoms: C_1  and  O_2
REMARK    2  A    between atoms: O_2  and  C_3
REMARK    3  A    between atoms: C_9  and  C_11
REMARK    4  A    between atoms: C_20  and  O_21
REMARK    5  A    between atoms: O_21  and  C_22
REMARK    6  A    between atoms: C_23  and  O_24
REMARK    7  A    between atoms: O_24  and  C_25
REMARK    8  A    between atoms: C_26  and  O_27
REMARK    9  A    between atoms: O_27  and  C_28
REMARK                            x       y       z     vdW  Elec       q    Type
REMARK                         _______ _______ _______ _____ _____    ______ ____
ROOT
ATOM      1  C   UNL     1       0.073  15.699  21.185  0.00  0.00    +0.000 C 
ATOM      2  C   UNL     1      -1.041  14.943  21.128  0.00  0.00    +0.000 C 
ATOM      3  C   UNL     1      -1.012  13.400  21.196  0.00  0.00    +0.000 C 
ATOM      4  C   UNL     1      -0.682  12.563  22.479  0.00  0.00    +0.000 C 
ATOM      5  C   UNL     1      -0.512  11.047  22.120  0.00  0.00    +0.000 C 
ATOM      6  N   UNL     1       0.219  10.705  20.859  0.00  0.00    +0.000 N 
ATOM      7  C   UNL     1       0.673   9.423  20.524  0.00  0.00    +0.000 C 
ATOM      8  O   UNL     1       1.253   9.239  19.440  0.00  0.00    +0.000 OA
ATOM      9  C   UNL     1       0.415  11.721  19.821  0.00  0.00    +0.000 C 
ATOM     10  C   UNL     1      -0.454  11.558  18.556  0.00  0.00    +0.000 C 
ATOM     11  C   UNL     1      -1.486  12.644  18.300  0.00  0.00    +0.000 C 
ATOM     12  C   UNL     1      -2.603  12.586  19.304  0.00  0.00    +0.000 A 
ATOM     13  C   UNL     1      -3.879  12.206  18.839  0.00  0.00    +0.000 A 
ATOM     14  C   UNL     1      -4.970  12.088  19.697  0.00  0.00    +0.000 A 
ATOM     15  C   UNL     1      -4.796  12.331  21.066  0.00  0.00    +0.000 A 
ATOM     16  C   UNL     1      -3.563  12.854  21.529  0.00  0.00    +0.000 A 
ATOM     17  C   UNL     1      -2.406  12.911  20.660  0.00  0.00    +0.000 A 
ATOM     18  C   UNL     1       0.317  13.043  20.479  0.00  0.00    +0.000 C 
ATOM     19  C   UNL     1       1.452  13.720  20.778  0.00  0.00    +0.000 C 
ATOM     20  C   UNL     1       1.290  14.947  21.582  0.00  0.00    +0.000 C 
ATOM     21  O   UNL     1       2.060  15.280  22.467  0.00  0.00    +0.000 OA
ENDROOT
BRANCH   7  22
ATOM     22  C   UNL     1       0.504   8.240  21.495  0.00  0.00    +0.000 C 
ATOM     23  F   UNL     1      -0.779   7.873  21.754  0.00  0.00    +0.000 F 
ATOM     24  F   UNL     1       1.117   7.116  21.019  0.00  0.00    +0.000 F 
ATOM     25  F   UNL     1       1.081   8.497  22.704  0.00  0.00    +0.000 F 
ENDBRANCH   7  22
BRANCH   1  27
ATOM     26  C   UNL     1      -0.072  18.086  21.213  0.00  0.00    +0.000 C 
ATOM     27  O   UNL     1       0.141  16.885  20.477  0.00  0.00    +0.000 OA
ENDBRANCH   1  27
BRANCH  14  28
ATOM     28  O   UNL     1      -6.218  11.726  19.263  0.00  0.00    +0.000 OA
ATOM     29  C   UNL     1      -6.332  10.457  18.633  0.00  0.00    +0.000 C 
ENDBRANCH  14  28
BRANCH  15  30
ATOM     30  O   UNL     1      -5.827  12.127  21.957  0.00  0.00    +0.000 OA
ATOM     31  C   UNL     1      -6.738  13.235  22.126  0.00  0.00    +0.000 C 
ENDBRANCH  15  30
BRANCH  16  32
ATOM     32  O   UNL     1      -3.365  13.371  22.792  0.00  0.00    +0.000 OA
ATOM     33  C   UNL     1      -3.615  12.579  23.948  0.00  0.00    +0.000 C 
ENDBRANCH  16  32
TORSDOF 5
ENDMDL
MODEL 5
REMARK VINA RESULT:      -5.8      3.409      5.558
REMARK  Name = 
REMARK  9 active torsions:
REMARK  status: ('A' for Active; 'I' for Inactive)
REMARK    1  A    between atoms: C_1  and  O_2
REMARK    2  A    between atoms: O_2  and  C_3
REMARK    3  A    between atoms: C_9  and  C_11
REMARK    4  A    between atoms: C_20  and  O_21
REMARK    5  A    between atoms: O_21  and  C_22
REMARK    6  A    between atoms: C_23  and  O_24
REMARK    7  A    between atoms: O_24  and  C_25
REMARK    8  A    between atoms: C_26  and  O_27
REMARK    9  A    between atoms: O_27  and  C_28
REMARK                            x       y       z     vdW  Elec       q    Type
REMARK                         _______ _______ _______ _____ _____    ______ ____
ROOT
ATOM      1  C   UNL     1       0.718   9.992  19.133  0.00  0.00    +0.000 C 
ATOM      2  C   UNL     1      -0.475  10.547  19.425  0.00  0.00    +0.000 C 
ATOM      3  C   UNL     1      -0.699  12.074  19.478  0.00  0.00    +0.000 C 
ATOM      4  C   UNL     1      -0.725  13.022  18.231  0.00  0.00    +0.000 C 
ATOM      5  C   UNL     1      -0.735  14.524  18.679  0.00  0.00    +0.000 C 
ATOM      6  N   UNL     1       0.135  14.915  19.834  0.00  0.00    +0.000 N 
ATOM      7  C   UNL     1       0.433  16.235  20.196  0.00  0.00    +0.000 C 
ATOM      8  O   UNL     1       1.150  16.455  21.186  0.00  0.00    +0.000 OA
ATOM      9  C   UNL     1       0.658  13.892  20.742  0.00  0.00    +0.000 C 
ATOM     10  C   UNL     1      -0.000  13.839  22.138  0.00  0.00    +0.000 C 
ATOM     11  C   UNL     1      -0.792  12.583  22.464  0.00  0.00    +0.000 C 
ATOM     12  C   UNL     1      -2.058  12.508  21.656  0.00  0.00    +0.000 A 
ATOM     13  C   UNL     1      -3.280  12.643  22.345  0.00  0.00    +0.000 A 
ATOM     14  C   UNL     1      -4.505  12.623  21.680  0.00  0.00    +0.000 A 
ATOM     15  C   UNL     1      -4.528  12.487  20.286  0.00  0.00    +0.000 A 
ATOM     16  C   UNL     1      -3.324  12.203  19.594  0.00  0.00    +0.000 A 
ATOM     17  C   UNL     1      -2.043  12.293  20.264  0.00  0.00    +0.000 A 
ATOM     18  C   UNL     1       0.659  12.610  20.004  0.00  0.00    +0.000 C 
ATOM     19  C   UNL     1       1.820  12.148  19.477  0.00  0.00    +0.000 C 
ATOM     20  C   UNL     1       1.718  10.957  18.613  0.00  0.00    +0.000 C 
ATOM     21  O   UNL     1       2.371  10.806  17.593  0.00  0.00    +0.000 OA
ENDROOT
BRANCH   7  22
ATOM     22  C   UNL     1      -0.080  17.423  19.362  0.00  0.00    +0.000 C 
ATOM     23  F   UNL     1      -1.429  17.498  19.215  0.00  0.00    +0.000 F 
ATOM     24  F   UNL     1       0.294  18.615  19.914  0.00  0.00    +0.000 F 
ATOM     25  F   UNL     1       0.443  17.415  18.101  0.00  0.00    +0.000 F 
ENDBRANCH   7  22
BRANCH   1  27
ATOM     26  C   UNL     1       1.095   8.760  21.148  0.00  0.00    +0.000 C 
ATOM     27  O   UNL     1       1.088   8.797  19.724  0.00  0.00    +0.000 OA
ENDBRANCH   1  27
BRANCH  14  28
ATOM     28  O   UNL     1      -5.703  12.748  22.333  0.00  0.00    +0.000 OA
ATOM     29  C   UNL     1      -5.647  12.987  23.733  0.00  0.00    +0.000 C 
ENDBRANCH  14  28
BRANCH  15  30
ATOM     30  O   UNL     1      -5.713  12.563  19.587  0.00  0.00    +0.000 OA
ATOM     31  C   UNL     1      -6.097  13.883  19.147  0.00  0.00    +0.000 C 
ENDBRANCH  15  30
BRANCH  16  32
ATOM     32  O   UNL     1      -3.263  11.795  18.279  0.00  0.00    +0.000 OA
ATOM     33  C   UNL     1      -3.781  10.529  17.887  0.00  0.00    +0.000 C 
ENDBRANCH  16  32
TORSDOF 5
ENDMDL
MODEL 6
REMARK VINA RESULT:      -5.8      2.060      2.701
REMARK  Name = 
REMARK  9 active torsions:
REMARK  status: ('A' for Active; 'I' for Inactive)
REMARK    1  A    between atoms: C_1  and  O_2
REMARK    2  A    between atoms: O_2  and  C_3
REMARK    3  A    between atoms: C_9  and  C_11
REMARK    4  A    between atoms: C_20  and  O_21
REMARK    5  A    between atoms: O_21  and  C_22
REMARK    6  A    between atoms: C_23  and  O_24
REMARK    7  A    between atoms: O_24  and  C_25
REMARK    8  A    between atoms: C_26  and  O_27
REMARK    9  A    between atoms: O_27  and  C_28
REMARK                            x       y       z     vdW  Elec       q    Type
REMARK                         _______ _______ _______ _____ _____    ______ ____
ROOT
ATOM      1  C   UNL     1      -1.616  16.289  22.473  0.00  0.00    +0.000 C 
ATOM      2  C   UNL     1      -2.535  15.355  22.156  0.00  0.00    +0.000 C 
ATOM      3  C   UNL     1      -2.223  13.843  22.143  0.00  0.00    +0.000 C 
ATOM      4  C   UNL     1      -1.979  12.964  23.417  0.00  0.00    +0.000 C 
ATOM      5  C   UNL     1      -1.457  11.542  23.016  0.00  0.00    +0.000 C 
ATOM      6  N   UNL     1      -0.457  11.452  21.905  0.00  0.00    +0.000 N 
ATOM      7  C   UNL     1       0.288  10.306  21.596  0.00  0.00    +0.000 C 
ATOM      8  O   UNL     1       1.080  10.328  20.638  0.00  0.00    +0.000 OA
ATOM      9  C   UNL     1      -0.274  12.576  20.984  0.00  0.00    +0.000 C 
ATOM     10  C   UNL     1      -0.850  12.377  19.566  0.00  0.00    +0.000 C 
ATOM     11  C   UNL     1      -2.006  13.281  19.173  0.00  0.00    +0.000 C 
ATOM     12  C   UNL     1      -3.256  12.933  19.933  0.00  0.00    +0.000 A 
ATOM     13  C   UNL     1      -4.328  12.377  19.207  0.00  0.00    +0.000 A 
ATOM     14  C   UNL     1      -5.514  11.990  19.827  0.00  0.00    +0.000 A 
ATOM     15  C   UNL     1      -5.643  12.133  21.214  0.00  0.00    +0.000 A 
ATOM     16  C   UNL     1      -4.639  12.823  21.939  0.00  0.00    +0.000 A 
ATOM     17  C   UNL     1      -3.376  13.164  21.318  0.00  0.00    +0.000 A 
ATOM     18  C   UNL     1      -0.742  13.794  21.682  0.00  0.00    +0.000 C 
ATOM     19  C   UNL     1       0.168  14.633  22.235  0.00  0.00    +0.000 C 
ATOM     20  C   UNL     1      -0.371  15.733  23.058  0.00  0.00    +0.000 C 
ATOM     21  O   UNL     1       0.147  16.115  24.094  0.00  0.00    +0.000 OA
ENDROOT
BRANCH   7  22
ATOM     22  C   UNL     1       0.175   9.029  22.447  0.00  0.00    +0.000 C 
ATOM     23  F   UNL     1       0.168   9.220  23.793  0.00  0.00    +0.000 F 
ATOM     24  F   UNL     1      -0.976   8.348  22.169  0.00  0.00    +0.000 F 
ATOM     25  F   UNL     1       1.196   8.161  22.188  0.00  0.00    +0.000 F 
ENDBRANCH   7  22
BRANCH   1  27
ATOM     26  C   UNL     1      -2.568  18.481  22.383  0.00  0.00    +0.000 C 
ATOM     27  O   UNL     1      -1.650  17.528  21.858  0.00  0.00    +0.000 OA
ENDBRANCH   1  27
BRANCH  14  28
ATOM     28  O   UNL     1      -6.569  11.452  19.136  0.00  0.00    +0.000 OA
ATOM     29  C   UNL     1      -7.173  12.275  18.148  0.00  0.00    +0.000 C 
ENDBRANCH  14  28
BRANCH  15  30
ATOM     30  O   UNL     1      -6.761  11.669  21.873  0.00  0.00    +0.000 OA
ATOM     31  C   UNL     1      -7.915  12.537  21.839  0.00  0.00    +0.000 C 
ENDBRANCH  15  30
BRANCH  16  32
ATOM     32  O   UNL     1      -4.778  13.250  23.242  0.00  0.00    +0.000 OA
ATOM     33  C   UNL     1      -5.551  14.405  23.550  0.00  0.00    +0.000 C 
ENDBRANCH  16  32
TORSDOF 5
ENDMDL
MODEL 7
REMARK VINA RESULT:      -5.7      2.303      3.679
REMARK  Name = 
REMARK  9 active torsions:
REMARK  status: ('A' for Active; 'I' for Inactive)
REMARK    1  A    between atoms: C_1  and  O_2
REMARK    2  A    between atoms: O_2  and  C_3
REMARK    3  A    between atoms: C_9  and  C_11
REMARK    4  A    between atoms: C_20  and  O_21
REMARK    5  A    between atoms: O_21  and  C_22
REMARK    6  A    between atoms: C_23  and  O_24
REMARK    7  A    between atoms: O_24  and  C_25
REMARK    8  A    between atoms: C_26  and  O_27
REMARK    9  A    between atoms: O_27  and  C_28
REMARK                            x       y       z     vdW  Elec       q    Type
REMARK                         _______ _______ _______ _____ _____    ______ ____
ROOT
ATOM      1  C   UNL     1      -2.945  16.028  23.707  0.00  0.00    +0.000 C 
ATOM      2  C   UNL     1      -3.608  15.094  22.997  0.00  0.00    +0.000 C 
ATOM      3  C   UNL     1      -3.054  13.673  22.755  0.00  0.00    +0.000 C 
ATOM      4  C   UNL     1      -2.940  12.555  23.847  0.00  0.00    +0.000 C 
ATOM      5  C   UNL     1      -2.117  11.336  23.306  0.00  0.00    +0.000 C 
ATOM      6  N   UNL     1      -0.905  11.625  22.476  0.00  0.00    +0.000 N 
ATOM      7  C   UNL     1       0.069  10.678  22.131  0.00  0.00    +0.000 C 
ATOM      8  O   UNL     1       1.029  11.014  21.419  0.00  0.00    +0.000 OA
ATOM      9  C   UNL     1      -0.721  12.947  21.872  0.00  0.00    +0.000 C 
ATOM     10  C   UNL     1      -0.945  13.021  20.346  0.00  0.00    +0.000 C 
ATOM     11  C   UNL     1      -2.126  13.852  19.875  0.00  0.00    +0.000 C 
ATOM     12  C   UNL     1      -3.433  13.194  20.225  0.00  0.00    +0.000 A 
ATOM     13  C   UNL     1      -4.220  12.703  19.163  0.00  0.00    +0.000 A 
ATOM     14  C   UNL     1      -5.429  12.047  19.386  0.00  0.00    +0.000 A 
ATOM     15  C   UNL     1      -5.869  11.846  20.701  0.00  0.00    +0.000 A 
ATOM     16  C   UNL     1      -5.168  12.458  21.771  0.00  0.00    +0.000 A 
ATOM     17  C   UNL     1      -3.878  13.079  21.556  0.00  0.00    +0.000 A 
ATOM     18  C   UNL     1      -1.522  13.905  22.666  0.00  0.00    +0.000 C 
ATOM     19  C   UNL     1      -0.901  14.691  23.580  0.00  0.00    +0.000 C 
ATOM     20  C   UNL     1      -1.776  15.497  24.452  0.00  0.00    +0.000 C 
ATOM     21  O   UNL     1      -1.559  15.684  25.638  0.00  0.00    +0.000 OA
ENDROOT
BRANCH   7  22
ATOM     22  C   UNL     1      -0.007   9.232  22.655  0.00  0.00    +0.000 C 
ATOM     23  F   UNL     1      -1.073   8.508  22.225  0.00  0.00    +0.000 F 
ATOM     24  F   UNL     1       1.095   8.514  22.289  0.00  0.00    +0.000 F 
ATOM     25  F   UNL     1      -0.042   9.194  24.019  0.00  0.00    +0.000 F 
ENDBRANCH   7  22
BRANCH   1  27
ATOM     26  C   UNL     1      -3.238  17.660  21.985  0.00  0.00    +0.000 C 
ATOM     27  O   UNL     1      -3.054  17.364  23.365  0.00  0.00    +0.000 OA
ENDBRANCH   1  27
BRANCH  14  28
ATOM     28  O   UNL     1      -6.210  11.568  18.368  0.00  0.00    +0.000 OA
ATOM     29  C   UNL     1      -6.753  12.528  17.472  0.00  0.00    +0.000 C 
ENDBRANCH  14  28
BRANCH  15  30
ATOM     30  O   UNL     1      -7.007  11.114  20.963  0.00  0.00    +0.000 OA
ATOM     31  C   UNL     1      -7.125   9.863  20.252  0.00  0.00    +0.000 C 
ENDBRANCH  15  30
BRANCH  16  32
ATOM     32  O   UNL     1      -5.648  12.549  23.060  0.00  0.00    +0.000 OA
ATOM     33  C   UNL     1      -6.756  13.388  23.366  0.00  0.00    +0.000 C 
ENDBRANCH  16  32
TORSDOF 5
ENDMDL
MODEL 8
REMARK VINA RESULT:      -5.7      2.490      4.200
REMARK  Name = 
REMARK  9 active torsions:
REMARK  status: ('A' for Active; 'I' for Inactive)
REMARK    1  A    between atoms: C_1  and  O_2
REMARK    2  A    between atoms: O_2  and  C_3
REMARK    3  A    between atoms: C_9  and  C_11
REMARK    4  A    between atoms: C_20  and  O_21
REMARK    5  A    between atoms: O_21  and  C_22
REMARK    6  A    between atoms: C_23  and  O_24
REMARK    7  A    between atoms: O_24  and  C_25
REMARK    8  A    between atoms: C_26  and  O_27
REMARK    9  A    between atoms: O_27  and  C_28
REMARK                            x       y       z     vdW  Elec       q    Type
REMARK                         _______ _______ _______ _____ _____    ______ ____
ROOT
ATOM      1  C   UNL     1      -3.608  15.994  24.416  0.00  0.00    +0.000 C 
ATOM      2  C   UNL     1      -4.214  15.085  23.626  0.00  0.00    +0.000 C 
ATOM      3  C   UNL     1      -3.536  13.769  23.189  0.00  0.00    +0.000 C 
ATOM      4  C   UNL     1      -3.251  12.549  24.130  0.00  0.00    +0.000 C 
ATOM      5  C   UNL     1      -2.342  11.495  23.408  0.00  0.00    +0.000 C 
ATOM      6  N   UNL     1      -1.213  12.005  22.567  0.00  0.00    +0.000 N 
ATOM      7  C   UNL     1      -0.171  11.213  22.068  0.00  0.00    +0.000 C 
ATOM      8  O   UNL     1       0.710  11.729  21.360  0.00  0.00    +0.000 OA
ATOM      9  C   UNL     1      -1.196  13.400  22.122  0.00  0.00    +0.000 C 
ATOM     10  C   UNL     1      -1.511  13.628  20.628  0.00  0.00    +0.000 C 
ATOM     11  C   UNL     1      -2.794  14.379  20.315  0.00  0.00    +0.000 C 
ATOM     12  C   UNL     1      -4.007  13.552  20.638  0.00  0.00    +0.000 A 
ATOM     13  C   UNL     1      -4.800  13.108  19.560  0.00  0.00    +0.000 A 
ATOM     14  C   UNL     1      -5.923  12.307  19.754  0.00  0.00    +0.000 A 
ATOM     15  C   UNL     1      -6.266  11.908  21.053  0.00  0.00    +0.000 A 
ATOM     16  C   UNL     1      -5.571  12.461  22.157  0.00  0.00    +0.000 A 
ATOM     17  C   UNL     1      -4.363  13.235  21.963  0.00  0.00    +0.000 A 
ATOM     18  C   UNL     1      -2.042  14.170  23.062  0.00  0.00    +0.000 C 
ATOM     19  C   UNL     1      -1.451  14.904  24.037  0.00  0.00    +0.000 C 
ATOM     20  C   UNL     1      -2.352  15.506  25.038  0.00  0.00    +0.000 C 
ATOM     21  O   UNL     1      -2.088  15.574  26.227  0.00  0.00    +0.000 OA
ENDROOT
BRANCH   7  22
ATOM     22  C   UNL     1      -0.074   9.716  22.414  0.00  0.00    +0.000 C 
ATOM     23  F   UNL     1       1.103   9.116  22.096  0.00  0.00    +0.000 F 
ATOM     24  F   UNL     1      -0.242   9.504  23.753  0.00  0.00    +0.000 F 
ATOM     25  F   UNL     1      -1.053   8.993  21.796  0.00  0.00    +0.000 F 
ENDBRANCH   7  22
BRANCH   1  27
ATOM     26  C   UNL     1      -2.795  18.148  23.769  0.00  0.00    +0.000 C 
ATOM     27  O   UNL     1      -3.868  17.342  24.245  0.00  0.00    +0.000 OA
ENDBRANCH   1  27
BRANCH  14  28
ATOM     28  O   UNL     1      -6.709  11.870  18.720  0.00  0.00    +0.000 OA
ATOM     29  C   UNL     1      -6.996  12.811  17.694  0.00  0.00    +0.000 C 
ENDBRANCH  14  28
BRANCH  15  30
ATOM     30  O   UNL     1      -7.310  11.036  21.273  0.00  0.00    +0.000 OA
ATOM     31  C   UNL     1      -7.299   9.832  20.475  0.00  0.00    +0.000 C 
ENDBRANCH  15  30
BRANCH  16  32
ATOM     32  O   UNL     1      -5.984  12.349  23.468  0.00  0.00    +0.000 OA
ATOM     33  C   UNL     1      -7.148  13.030  23.923  0.00  0.00    +0.000 C 
ENDBRANCH  16  32
TORSDOF 5
ENDMDL
MODEL 9
REMARK VINA RESULT:      -5.6      1.367      1.699
REMARK  Name = 
REMARK  9 active torsions:
REMARK  status: ('A' for Active; 'I' for Inactive)
REMARK    1  A    between atoms: C_1  and  O_2
REMARK    2  A    between atoms: O_2  and  C_3
REMARK    3  A    between atoms: C_9  and  C_11
REMARK    4  A    between atoms: C_20  and  O_21
REMARK    5  A    between atoms: O_21  and  C_22
REMARK    6  A    between atoms: C_23  and  O_24
REMARK    7  A    between atoms: O_24  and  C_25
REMARK    8  A    between atoms: C_26  and  O_27
REMARK    9  A    between atoms: O_27  and  C_28
REMARK                            x       y       z     vdW  Elec       q    Type
REMARK                         _______ _______ _______ _____ _____    ______ ____
ROOT
ATOM      1  C   UNL     1      -1.467  16.113  20.467  0.00  0.00    +0.000 C 
ATOM      2  C   UNL     1      -2.454  15.254  20.793  0.00  0.00    +0.000 C 
ATOM      3  C   UNL     1      -2.199  13.764  21.105  0.00  0.00    +0.000 C 
ATOM      4  C   UNL     1      -1.498  13.224  22.398  0.00  0.00    +0.000 C 
ATOM      5  C   UNL     1      -1.198  11.691  22.265  0.00  0.00    +0.000 C 
ATOM      6  N   UNL     1      -0.706  11.187  20.944  0.00  0.00    +0.000 N 
ATOM      7  C   UNL     1      -0.159   9.915  20.729  0.00  0.00    +0.000 C 
ATOM      8  O   UNL     1       0.202   9.585  19.587  0.00  0.00    +0.000 OA
ATOM      9  C   UNL     1      -0.872  12.000  19.736  0.00  0.00    +0.000 C 
ATOM     10  C   UNL     1      -1.955  11.514  18.749  0.00  0.00    +0.000 C 
ATOM     11  C   UNL     1      -3.156  12.424  18.561  0.00  0.00    +0.000 C 
ATOM     12  C   UNL     1      -4.022  12.450  19.791  0.00  0.00    +0.000 A 
ATOM     13  C   UNL     1      -5.302  11.866  19.700  0.00  0.00    +0.000 A 
ATOM     14  C   UNL     1      -6.163  11.809  20.793  0.00  0.00    +0.000 A 
ATOM     15  C   UNL     1      -5.743  12.324  22.026  0.00  0.00    +0.000 A 
ATOM     16  C   UNL     1      -4.525  13.044  22.101  0.00  0.00    +0.000 A 
ATOM     17  C   UNL     1      -3.594  13.047  20.992  0.00  0.00    +0.000 A 
ATOM     18  C   UNL     1      -1.012  13.407  20.171  0.00  0.00    +0.000 C 
ATOM     19  C   UNL     1       0.056  14.237  20.085  0.00  0.00    +0.000 C 
ATOM     20  C   UNL     1      -0.103  15.573  20.692  0.00  0.00    +0.000 C 
ATOM     21  O   UNL     1       0.782  16.143  21.309  0.00  0.00    +0.000 OA
ENDROOT
BRANCH   7  22
ATOM     22  C   UNL     1       0.042   8.929  21.894  0.00  0.00    +0.000 C 
ATOM     23  F   UNL     1      -1.078   8.618  22.599  0.00  0.00    +0.000 F 
ATOM     24  F   UNL     1       0.540   7.737  21.454  0.00  0.00    +0.000 F 
ATOM     25  F   UNL     1       0.946   9.401  22.801  0.00  0.00    +0.000 F 
ENDBRANCH   7  22
BRANCH   1  27
ATOM     26  C   UNL     1      -2.748  18.058  19.922  0.00  0.00    +0.000 C 
ATOM     27  O   UNL     1      -1.713  17.143  19.577  0.00  0.00    +0.000 OA
ENDBRANCH   1  27
BRANCH  14  28
ATOM     28  O   UNL     1      -7.412  11.249  20.723  0.00  0.00    +0.000 OA
ATOM     29  C   UNL     1      -7.476   9.866  20.404  0.00  0.00    +0.000 C 
ENDBRANCH  14  28
BRANCH  15  30
ATOM     30  O   UNL     1      -6.528  12.195  23.152  0.00  0.00    +0.000 OA
ATOM     31  C   UNL     1      -7.520  13.226  23.346  0.00  0.00    +0.000 C 
ENDBRANCH  15  30
BRANCH  16  32
ATOM     32  O   UNL     1      -4.142  13.810  23.182  0.00  0.00    +0.000 OA
ATOM     33  C   UNL     1      -3.951  13.216  24.461  0.00  0.00    +0.000 C 
ENDBRANCH  16  32
TORSDOF 5
ENDMDL
