MODEL 1
REMARK VINA RESULT:      -7.0      0.000      0.000
REMARK  Name = 
REMARK  12 active torsions:
REMARK  status: ('A' for Active; 'I' for Inactive)
REMARK    1  A    between atoms: C_1  and  C_2
REMARK    2  A    between atoms: C_2  and  C_3
REMARK    3  A    between atoms: C_3  and  C_4
REMARK    4  A    between atoms: C_3  and  C_6
REMARK    5  A    between atoms: C_4  and  C_5
REMARK    6  A    between atoms: N_8  and  C_9
REMARK    7  A    between atoms: C_11  and  C_12
REMARK    8  A    between atoms: C_12  and  O_14
REMARK    9  A    between atoms: O_14  and  C_15
REMARK   10  A    between atoms: C_17  and  C_18
REMARK   11  A    between atoms: C_18  and  O_20
REMARK   12  A    between atoms: O_20  and  C_21
REMARK                            x       y       z     vdW  Elec       q    Type
REMARK                         _______ _______ _______ _____ _____    ______ ____
ROOT
ATOM      1  C   UNL     1       3.834   5.659  19.027  0.00  0.00    +0.000 A 
ATOM      2  C   UNL     1       3.164   6.842  19.371  0.00  0.00    +0.000 A 
ATOM      3  C   UNL     1       2.066   6.832  20.237  0.00  0.00    +0.000 A 
ATOM      4  C   UNL     1       1.608   5.617  20.749  0.00  0.00    +0.000 A 
ATOM      5  C   UNL     1       2.246   4.420  20.392  0.00  0.00    +0.000 A 
ATOM      6  C   UNL     1       3.349   4.441  19.517  0.00  0.00    +0.000 A 
ENDROOT
BRANCH   1   9
ATOM      7  C   UNL     1       6.286   5.537  18.693  0.00  0.00    +0.000 C 
ATOM      8  O   UNL     1       6.556   5.331  19.876  0.00  0.00    +0.000 OA
ATOM      9  N   UNL     1       4.991   5.658  18.204  0.00  0.00    +0.000 N 
ATOM     10  H   UNL     1       4.854   5.567  17.208  0.00  0.00    +0.000 HD
BRANCH   7  11
ATOM     11  C   UNL     1       7.414   5.672  17.657  0.00  0.00    +0.000 C 
BRANCH  11  13
ATOM     12  C   UNL     1       6.983   4.869  15.214  0.00  0.00    +0.000 C 
ATOM     13  C   UNL     1       7.270   4.495  16.656  0.00  0.00    +0.000 C 
ENDBRANCH  11  13
BRANCH  11  14
ATOM     14  C   UNL     1       7.458   7.055  16.987  0.00  0.00    +0.000 C 
ATOM     15  C   UNL     1       7.984   8.173  17.875  0.00  0.00    +0.000 C 
ENDBRANCH  11  14
ENDBRANCH   7  11
ENDBRANCH   1   9
BRANCH   3  16
ATOM     16  C   UNL     1       1.456   8.142  20.594  0.00  0.00    +0.000 C 
ATOM     17  O   UNL     1       1.096   8.436  21.723  0.00  0.00    +0.000 OA
BRANCH  16  18
ATOM     18  O   UNL     1       1.345   8.935  19.501  0.00  0.00    +0.000 OA
ATOM     19  C   UNL     1       0.642  10.153  19.748  0.00  0.00    +0.000 C 
ENDBRANCH  16  18
ENDBRANCH   3  16
BRANCH   5  20
ATOM     20  C   UNL     1       1.724   3.167  21.009  0.00  0.00    +0.000 C 
ATOM     21  O   UNL     1       2.264   2.605  21.948  0.00  0.00    +0.000 OA
BRANCH  20  22
ATOM     22  O   UNL     1       0.606   2.745  20.369  0.00  0.00    +0.000 OA
ATOM     23  C   UNL     1       0.850   2.299  19.032  0.00  0.00    +0.000 C 
ENDBRANCH  20  22
ENDBRANCH   5  20
TORSDOF 8
ENDMDL
MODEL 2
REMARK VINA RESULT:      -6.9      3.476      6.871
REMARK  Name = 
REMARK  12 active torsions:
REMARK  status: ('A' for Active; 'I' for Inactive)
REMARK    1  A    between atoms: C_1  and  C_2
REMARK    2  A    between atoms: C_2  and  C_3
REMARK    3  A    between atoms: C_3  and  C_4
REMARK    4  A    between atoms: C_3  and  C_6
REMARK    5  A    between atoms: C_4  and  C_5
REMARK    6  A    between atoms: N_8  and  C_9
REMARK    7  A    between atoms: C_11  and  C_12
REMARK    8  A    between atoms: C_12  and  O_14
REMARK    9  A    between atoms: O_14  and  C_15
REMARK   10  A    between atoms: C_17  and  C_18
REMARK   11  A    between atoms: C_18  and  O_20
REMARK   12  A    between atoms: O_20  and  C_21
REMARK                            x       y       z     vdW  Elec       q    Type
REMARK                         _______ _______ _______ _____ _____    ______ ____
ROOT
ATOM      1  C   UNL     1       5.083   4.745  17.470  0.00  0.00    +0.000 A 
ATOM      2  C   UNL     1       5.935   5.689  18.061  0.00  0.00    +0.000 A 
ATOM      3  C   UNL     1       6.990   6.268  17.347  0.00  0.00    +0.000 A 
ATOM      4  C   UNL     1       7.217   5.878  16.025  0.00  0.00    +0.000 A 
ATOM      5  C   UNL     1       6.394   4.913  15.427  0.00  0.00    +0.000 A 
ATOM      6  C   UNL     1       5.337   4.334  16.157  0.00  0.00    +0.000 A 
ENDROOT
BRANCH   1   9
ATOM      7  C   UNL     1       4.076   3.297  19.210  0.00  0.00    +0.000 C 
ATOM      8  O   UNL     1       5.146   2.948  19.707  0.00  0.00    +0.000 OA
ATOM      9  N   UNL     1       3.968   4.200  18.159  0.00  0.00    +0.000 N 
ATOM     10  H   UNL     1       3.065   4.619  17.990  0.00  0.00    +0.000 HD
BRANCH   7  11
ATOM     11  C   UNL     1       2.752   2.733  19.754  0.00  0.00    +0.000 C 
BRANCH  11  13
ATOM     12  C   UNL     1       1.455   2.605  22.012  0.00  0.00    +0.000 C 
ATOM     13  C   UNL     1       2.731   2.988  21.284  0.00  0.00    +0.000 C 
ENDBRANCH  11  13
BRANCH  11  14
ATOM     14  C   UNL     1       1.516   3.273  19.016  0.00  0.00    +0.000 C 
ATOM     15  C   UNL     1       0.538   2.203  18.551  0.00  0.00    +0.000 C 
ENDBRANCH  11  14
ENDBRANCH   7  11
ENDBRANCH   1   9
BRANCH   3  16
ATOM     16  C   UNL     1       7.803   7.305  18.036  0.00  0.00    +0.000 C 
ATOM     17  O   UNL     1       8.480   7.088  19.029  0.00  0.00    +0.000 OA
BRANCH  16  18
ATOM     18  O   UNL     1       7.671   8.506  17.422  0.00  0.00    +0.000 OA
ATOM     19  C   UNL     1       8.389   9.559  18.066  0.00  0.00    +0.000 C 
ENDBRANCH  16  18
ENDBRANCH   3  16
BRANCH   5  20
ATOM     20  C   UNL     1       6.676   4.576  14.002  0.00  0.00    +0.000 C 
ATOM     21  O   UNL     1       7.479   5.185  13.314  0.00  0.00    +0.000 OA
BRANCH  20  22
ATOM     22  O   UNL     1       5.907   3.537  13.592  0.00  0.00    +0.000 OA
ATOM     23  C   UNL     1       5.991   3.288  12.187  0.00  0.00    +0.000 C 
ENDBRANCH  20  22
ENDBRANCH   5  20
TORSDOF 8
ENDMDL
MODEL 3
REMARK VINA RESULT:      -6.9      0.499      3.940
REMARK  Name = 
REMARK  12 active torsions:
REMARK  status: ('A' for Active; 'I' for Inactive)
REMARK    1  A    between atoms: C_1  and  C_2
REMARK    2  A    between atoms: C_2  and  C_3
REMARK    3  A    between atoms: C_3  and  C_4
REMARK    4  A    between atoms: C_3  and  C_6
REMARK    5  A    between atoms: C_4  and  C_5
REMARK    6  A    between atoms: N_8  and  C_9
REMARK    7  A    between atoms: C_11  and  C_12
REMARK    8  A    between atoms: C_12  and  O_14
REMARK    9  A    between atoms: O_14  and  C_15
REMARK   10  A    between atoms: C_17  and  C_18
REMARK   11  A    between atoms: C_18  and  O_20
REMARK   12  A    between atoms: O_20  and  C_21
REMARK                            x       y       z     vdW  Elec       q    Type
REMARK                         _______ _______ _______ _____ _____    ______ ____
ROOT
ATOM      1  C   UNL     1       3.864   5.465  19.134  0.00  0.00    +0.000 A 
ATOM      2  C   UNL     1       3.365   4.258  19.645  0.00  0.00    +0.000 A 
ATOM      3  C   UNL     1       2.210   4.222  20.434  0.00  0.00    +0.000 A 
ATOM      4  C   UNL     1       1.555   5.416  20.744  0.00  0.00    +0.000 A 
ATOM      5  C   UNL     1       2.058   6.636  20.268  0.00  0.00    +0.000 A 
ATOM      6  C   UNL     1       3.223   6.661  19.478  0.00  0.00    +0.000 A 
ENDROOT
BRANCH   1   9
ATOM      7  C   UNL     1       6.309   5.487  18.729  0.00  0.00    +0.000 C 
ATOM      8  O   UNL     1       6.625   5.334  19.909  0.00  0.00    +0.000 OA
ATOM      9  N   UNL     1       4.995   5.512  18.277  0.00  0.00    +0.000 N 
ATOM     10  H   UNL     1       4.835   5.383  17.288  0.00  0.00    +0.000 HD
BRANCH   7  11
ATOM     11  C   UNL     1       7.396   5.660  17.655  0.00  0.00    +0.000 C 
BRANCH  11  13
ATOM     12  C   UNL     1       7.010   4.849  15.207  0.00  0.00    +0.000 C 
ATOM     13  C   UNL     1       7.258   4.479  16.659  0.00  0.00    +0.000 C 
ENDBRANCH  11  13
BRANCH  11  14
ATOM     14  C   UNL     1       7.369   7.044  16.986  0.00  0.00    +0.000 C 
ATOM     15  C   UNL     1       7.978   8.163  17.820  0.00  0.00    +0.000 C 
ENDBRANCH  11  14
ENDBRANCH   7  11
ENDBRANCH   1   9
BRANCH   3  16
ATOM     16  C   UNL     1       1.719   2.890  20.879  0.00  0.00    +0.000 C 
ATOM     17  O   UNL     1       1.419   2.630  22.033  0.00  0.00    +0.000 OA
BRANCH  16  18
ATOM     18  O   UNL     1       1.673   2.022  19.839  0.00  0.00    +0.000 OA
ATOM     19  C   UNL     1       0.634   2.308  18.902  0.00  0.00    +0.000 C 
ENDBRANCH  16  18
ENDBRANCH   3  16
BRANCH   5  20
ATOM     20  C   UNL     1       1.283   7.863  20.610  0.00  0.00    +0.000 C 
ATOM     21  O   UNL     1       0.350   7.872  21.398  0.00  0.00    +0.000 OA
BRANCH  20  22
ATOM     22  O   UNL     1       1.741   8.932  19.912  0.00  0.00    +0.000 OA
ATOM     23  C   UNL     1       0.759   9.509  19.047  0.00  0.00    +0.000 C 
ENDBRANCH  20  22
ENDBRANCH   5  20
TORSDOF 8
ENDMDL
MODEL 4
REMARK VINA RESULT:      -6.8      2.858      7.415
REMARK  Name = 
REMARK  12 active torsions:
REMARK  status: ('A' for Active; 'I' for Inactive)
REMARK    1  A    between atoms: C_1  and  C_2
REMARK    2  A    between atoms: C_2  and  C_3
REMARK    3  A    between atoms: C_3  and  C_4
REMARK    4  A    between atoms: C_3  and  C_6
REMARK    5  A    between atoms: C_4  and  C_5
REMARK    6  A    between atoms: N_8  and  C_9
REMARK    7  A    between atoms: C_11  and  C_12
REMARK    8  A    between atoms: C_12  and  O_14
REMARK    9  A    between atoms: O_14  and  C_15
REMARK   10  A    between atoms: C_17  and  C_18
REMARK   11  A    between atoms: C_18  and  O_20
REMARK   12  A    between atoms: O_20  and  C_21
REMARK                            x       y       z     vdW  Elec       q    Type
REMARK                         _______ _______ _______ _____ _____    ______ ____
ROOT
ATOM      1  C   UNL     1       4.544   5.216  16.918  0.00  0.00    +0.000 A 
ATOM      2  C   UNL     1       4.965   4.750  15.663  0.00  0.00    +0.000 A 
ATOM      3  C   UNL     1       6.234   5.053  15.161  0.00  0.00    +0.000 A 
ATOM      4  C   UNL     1       7.093   5.859  15.911  0.00  0.00    +0.000 A 
ATOM      5  C   UNL     1       6.680   6.359  17.154  0.00  0.00    +0.000 A 
ATOM      6  C   UNL     1       5.398   6.051  17.649  0.00  0.00    +0.000 A 
ENDROOT
BRANCH   1   9
ATOM      7  C   UNL     1       3.119   4.394  18.770  0.00  0.00    +0.000 C 
ATOM      8  O   UNL     1       4.028   4.320  19.595  0.00  0.00    +0.000 OA
ATOM      9  N   UNL     1       3.286   4.863  17.472  0.00  0.00    +0.000 N 
ATOM     10  H   UNL     1       2.459   5.129  16.958  0.00  0.00    +0.000 HD
BRANCH   7  11
ATOM     11  C   UNL     1       1.694   3.956  19.150  0.00  0.00    +0.000 C 
BRANCH  11  13
ATOM     12  C   UNL     1       2.724   1.796  18.114  0.00  0.00    +0.000 C 
ATOM     13  C   UNL     1       1.480   2.527  18.587  0.00  0.00    +0.000 C 
ENDBRANCH  11  13
BRANCH  11  14
ATOM     14  C   UNL     1       1.405   4.080  20.655  0.00  0.00    +0.000 C 
ATOM     15  C   UNL     1       1.412   2.760  21.413  0.00  0.00    +0.000 C 
ENDBRANCH  11  14
ENDBRANCH   7  11
ENDBRANCH   1   9
BRANCH   3  16
ATOM     16  C   UNL     1       6.616   4.464  13.849  0.00  0.00    +0.000 C 
ATOM     17  O   UNL     1       7.519   4.896  13.149  0.00  0.00    +0.000 OA
BRANCH  16  18
ATOM     18  O   UNL     1       5.818   3.412  13.544  0.00  0.00    +0.000 OA
ATOM     19  C   UNL     1       5.772   3.116  12.147  0.00  0.00    +0.000 C 
ENDBRANCH  16  18
ENDBRANCH   3  16
BRANCH   5  20
ATOM     20  C   UNL     1       7.666   7.181  17.912  0.00  0.00    +0.000 C 
ATOM     21  O   UNL     1       8.206   6.803  18.940  0.00  0.00    +0.000 OA
BRANCH  20  22
ATOM     22  O   UNL     1       7.847   8.386  17.319  0.00  0.00    +0.000 OA
ATOM     23  C   UNL     1       8.427   9.365  18.185  0.00  0.00    +0.000 C 
ENDBRANCH  20  22
ENDBRANCH   5  20
TORSDOF 8
ENDMDL
MODEL 5
REMARK VINA RESULT:      -6.8      2.467      6.890
REMARK  Name = 
REMARK  12 active torsions:
REMARK  status: ('A' for Active; 'I' for Inactive)
REMARK    1  A    between atoms: C_1  and  C_2
REMARK    2  A    between atoms: C_2  and  C_3
REMARK    3  A    between atoms: C_3  and  C_4
REMARK    4  A    between atoms: C_3  and  C_6
REMARK    5  A    between atoms: C_4  and  C_5
REMARK    6  A    between atoms: N_8  and  C_9
REMARK    7  A    between atoms: C_11  and  C_12
REMARK    8  A    between atoms: C_12  and  O_14
REMARK    9  A    between atoms: O_14  and  C_15
REMARK   10  A    between atoms: C_17  and  C_18
REMARK   11  A    between atoms: C_18  and  O_20
REMARK   12  A    between atoms: O_20  and  C_21
REMARK                            x       y       z     vdW  Elec       q    Type
REMARK                         _______ _______ _______ _____ _____    ______ ____
ROOT
ATOM      1  C   UNL     1       2.759   6.916  18.227  0.00  0.00    +0.000 A 
ATOM      2  C   UNL     1       2.219   5.622  18.234  0.00  0.00    +0.000 A 
ATOM      3  C   UNL     1       2.878   4.553  17.619  0.00  0.00    +0.000 A 
ATOM      4  C   UNL     1       4.087   4.782  16.959  0.00  0.00    +0.000 A 
ATOM      5  C   UNL     1       4.628   6.075  16.914  0.00  0.00    +0.000 A 
ATOM      6  C   UNL     1       3.954   7.145  17.534  0.00  0.00    +0.000 A 
ENDROOT
BRANCH   1   9
ATOM      7  C   UNL     1       1.619   7.908  20.190  0.00  0.00    +0.000 C 
ATOM      8  O   UNL     1       1.723   6.910  20.903  0.00  0.00    +0.000 OA
ATOM      9  N   UNL     1       2.138   7.998  18.904  0.00  0.00    +0.000 N 
ATOM     10  H   UNL     1       2.233   8.918  18.498  0.00  0.00    +0.000 HD
BRANCH   7  11
ATOM     11  C   UNL     1       0.884   9.155  20.710  0.00  0.00    +0.000 C 
BRANCH  11  13
ATOM     12  C   UNL     1      -0.896  10.739  19.650  0.00  0.00    +0.000 C 
ATOM     13  C   UNL     1       0.391   9.954  19.475  0.00  0.00    +0.000 C 
ENDBRANCH  11  13
BRANCH  11  14
ATOM     14  C   UNL     1      -0.228   8.824  21.719  0.00  0.00    +0.000 C 
ATOM     15  C   UNL     1      -0.051   9.465  23.088  0.00  0.00    +0.000 C 
ENDBRANCH  11  14
ENDBRANCH   7  11
ENDBRANCH   1   9
BRANCH   3  16
ATOM     16  C   UNL     1       2.260   3.204  17.730  0.00  0.00    +0.000 C 
ATOM     17  O   UNL     1       1.080   3.018  17.982  0.00  0.00    +0.000 OA
BRANCH  16  18
ATOM     18  O   UNL     1       3.185   2.234  17.535  0.00  0.00    +0.000 OA
ATOM     19  C   UNL     1       3.551   1.543  18.730  0.00  0.00    +0.000 C 
ENDBRANCH  16  18
ENDBRANCH   3  16
BRANCH   5  20
ATOM     20  C   UNL     1       5.940   6.234  16.224  0.00  0.00    +0.000 C 
ATOM     21  O   UNL     1       6.918   6.743  16.749  0.00  0.00    +0.000 OA
BRANCH  20  22
ATOM     22  O   UNL     1       5.875   5.767  14.953  0.00  0.00    +0.000 OA
ATOM     23  C   UNL     1       6.920   4.845  14.633  0.00  0.00    +0.000 C 
ENDBRANCH  20  22
ENDBRANCH   5  20
TORSDOF 8
ENDMDL
MODEL 6
REMARK VINA RESULT:      -6.7      2.818      7.324
REMARK  Name = 
REMARK  12 active torsions:
REMARK  status: ('A' for Active; 'I' for Inactive)
REMARK    1  A    between atoms: C_1  and  C_2
REMARK    2  A    between atoms: C_2  and  C_3
REMARK    3  A    between atoms: C_3  and  C_4
REMARK    4  A    between atoms: C_3  and  C_6
REMARK    5  A    between atoms: C_4  and  C_5
REMARK    6  A    between atoms: N_8  and  C_9
REMARK    7  A    between atoms: C_11  and  C_12
REMARK    8  A    between atoms: C_12  and  O_14
REMARK    9  A    between atoms: O_14  and  C_15
REMARK   10  A    between atoms: C_17  and  C_18
REMARK   11  A    between atoms: C_18  and  O_20
REMARK   12  A    between atoms: O_20  and  C_21
REMARK                            x       y       z     vdW  Elec       q    Type
REMARK                         _______ _______ _______ _____ _____    ______ ____
ROOT
ATOM      1  C   UNL     1       4.786   4.485  17.491  0.00  0.00    +0.000 A 
ATOM      2  C   UNL     1       4.975   4.176  16.136  0.00  0.00    +0.000 A 
ATOM      3  C   UNL     1       6.015   4.747  15.396  0.00  0.00    +0.000 A 
ATOM      4  C   UNL     1       6.869   5.666  16.011  0.00  0.00    +0.000 A 
ATOM      5  C   UNL     1       6.677   6.010  17.356  0.00  0.00    +0.000 A 
ATOM      6  C   UNL     1       5.624   5.432  18.091  0.00  0.00    +0.000 A 
ENDROOT
BRANCH   1   9
ATOM      7  C   UNL     1       2.467   4.318  18.346  0.00  0.00    +0.000 C 
ATOM      8  O   UNL     1       2.026   5.249  17.674  0.00  0.00    +0.000 OA
ATOM      9  N   UNL     1       3.778   3.863  18.274  0.00  0.00    +0.000 N 
ATOM     10  H   UNL     1       3.981   2.951  18.657  0.00  0.00    +0.000 HD
BRANCH   7  11
ATOM     11  C   UNL     1       1.550   3.579  19.336  0.00  0.00    +0.000 C 
BRANCH  11  13
ATOM     12  C   UNL     1       2.622   2.455  21.431  0.00  0.00    +0.000 C 
ATOM     13  C   UNL     1       2.364   2.402  19.936  0.00  0.00    +0.000 C 
ENDBRANCH  11  13
BRANCH  11  14
ATOM     14  C   UNL     1       0.929   4.507  20.393  0.00  0.00    +0.000 C 
ATOM     15  C   UNL     1       1.742   5.757  20.694  0.00  0.00    +0.000 C 
ENDBRANCH  11  14
ENDBRANCH   7  11
ENDBRANCH   1   9
BRANCH   3  16
ATOM     16  C   UNL     1       6.176   4.313  13.982  0.00  0.00    +0.000 C 
ATOM     17  O   UNL     1       7.213   4.435  13.350  0.00  0.00    +0.000 OA
BRANCH  16  18
ATOM     18  O   UNL     1       5.021   3.790  13.505  0.00  0.00    +0.000 OA
ATOM     19  C   UNL     1       5.103   3.370  12.143  0.00  0.00    +0.000 C 
ENDBRANCH  16  18
ENDBRANCH   3  16
BRANCH   5  20
ATOM     20  C   UNL     1       7.651   6.969  17.953  0.00  0.00    +0.000 C 
ATOM     21  O   UNL     1       8.291   6.733  18.965  0.00  0.00    +0.000 OA
BRANCH  20  22
ATOM     22  O   UNL     1       7.696   8.119  17.236  0.00  0.00    +0.000 OA
ATOM     23  C   UNL     1       8.218   9.228  17.972  0.00  0.00    +0.000 C 
ENDBRANCH  20  22
ENDBRANCH   5  20
TORSDOF 8
ENDMDL
MODEL 7
REMARK VINA RESULT:      -6.7      2.308      6.153
REMARK  Name = 
REMARK  12 active torsions:
REMARK  status: ('A' for Active; 'I' for Inactive)
REMARK    1  A    between atoms: C_1  and  C_2
REMARK    2  A    between atoms: C_2  and  C_3
REMARK    3  A    between atoms: C_3  and  C_4
REMARK    4  A    between atoms: C_3  and  C_6
REMARK    5  A    between atoms: C_4  and  C_5
REMARK    6  A    between atoms: N_8  and  C_9
REMARK    7  A    between atoms: C_11  and  C_12
REMARK    8  A    between atoms: C_12  and  O_14
REMARK    9  A    between atoms: O_14  and  C_15
REMARK   10  A    between atoms: C_17  and  C_18
REMARK   11  A    between atoms: C_18  and  O_20
REMARK   12  A    between atoms: O_20  and  C_21
REMARK                            x       y       z     vdW  Elec       q    Type
REMARK                         _______ _______ _______ _____ _____    ______ ____
ROOT
ATOM      1  C   UNL     1       3.100   6.807  17.832  0.00  0.00    +0.000 A 
ATOM      2  C   UNL     1       4.406   6.832  17.322  0.00  0.00    +0.000 A 
ATOM      3  C   UNL     1       5.067   5.657  16.950  0.00  0.00    +0.000 A 
ATOM      4  C   UNL     1       4.423   4.428  17.115  0.00  0.00    +0.000 A 
ATOM      5  C   UNL     1       3.129   4.381  17.652  0.00  0.00    +0.000 A 
ATOM      6  C   UNL     1       2.474   5.570  18.026  0.00  0.00    +0.000 A 
ENDROOT
BRANCH   1   9
ATOM      7  C   UNL     1       1.867   8.268  19.408  0.00  0.00    +0.000 C 
ATOM      8  O   UNL     1       2.040   7.551  20.393  0.00  0.00    +0.000 OA
ATOM      9  N   UNL     1       2.390   7.995  18.150  0.00  0.00    +0.000 N 
ATOM     10  H   UNL     1       2.419   8.749  17.478  0.00  0.00    +0.000 HD
BRANCH   7  11
ATOM     11  C   UNL     1       1.033   9.555  19.527  0.00  0.00    +0.000 C 
BRANCH  11  13
ATOM     12  C   UNL     1      -1.038  10.186  18.074  0.00  0.00    +0.000 C 
ATOM     13  C   UNL     1       0.443   9.859  18.125  0.00  0.00    +0.000 C 
ENDBRANCH  11  13
BRANCH  11  14
ATOM     14  C   UNL     1      -0.021   9.491  20.644  0.00  0.00    +0.000 C 
ATOM     15  C   UNL     1       0.074  10.612  21.669  0.00  0.00    +0.000 C 
ENDBRANCH  11  14
ENDBRANCH   7  11
ENDBRANCH   1   9
BRANCH   3  16
ATOM     16  C   UNL     1       6.427   5.785  16.361  0.00  0.00    +0.000 C 
ATOM     17  O   UNL     1       7.452   5.819  17.023  0.00  0.00    +0.000 OA
BRANCH  16  18
ATOM     18  O   UNL     1       6.359   5.876  15.011  0.00  0.00    +0.000 OA
ATOM     19  C   UNL     1       6.861   4.723  14.335  0.00  0.00    +0.000 C 
ENDBRANCH  16  18
ENDBRANCH   3  16
BRANCH   5  20
ATOM     20  C   UNL     1       2.493   3.036  17.763  0.00  0.00    +0.000 C 
ATOM     21  O   UNL     1       3.117   1.990  17.684  0.00  0.00    +0.000 OA
BRANCH  20  22
ATOM     22  O   UNL     1       1.153   3.150  17.931  0.00  0.00    +0.000 OA
ATOM     23  C   UNL     1       0.671   2.496  19.108  0.00  0.00    +0.000 C 
ENDBRANCH  20  22
ENDBRANCH   5  20
TORSDOF 8
ENDMDL
MODEL 8
REMARK VINA RESULT:      -6.7      2.839      6.774
REMARK  Name = 
REMARK  12 active torsions:
REMARK  status: ('A' for Active; 'I' for Inactive)
REMARK    1  A    between atoms: C_1  and  C_2
REMARK    2  A    between atoms: C_2  and  C_3
REMARK    3  A    between atoms: C_3  and  C_4
REMARK    4  A    between atoms: C_3  and  C_6
REMARK    5  A    between atoms: C_4  and  C_5
REMARK    6  A    between atoms: N_8  and  C_9
REMARK    7  A    between atoms: C_11  and  C_12
REMARK    8  A    between atoms: C_12  and  O_14
REMARK    9  A    between atoms: O_14  and  C_15
REMARK   10  A    between atoms: C_17  and  C_18
REMARK   11  A    between atoms: C_18  and  O_20
REMARK   12  A    between atoms: O_20  and  C_21
REMARK                            x       y       z     vdW  Elec       q    Type
REMARK                         _______ _______ _______ _____ _____    ______ ____
ROOT
ATOM      1  C   UNL     1       4.776   4.554  17.042  0.00  0.00    +0.000 A 
ATOM      2  C   UNL     1       5.627   5.431  17.731  0.00  0.00    +0.000 A 
ATOM      3  C   UNL     1       6.774   5.958  17.129  0.00  0.00    +0.000 A 
ATOM      4  C   UNL     1       7.095   5.584  15.823  0.00  0.00    +0.000 A 
ATOM      5  C   UNL     1       6.273   4.685  15.128  0.00  0.00    +0.000 A 
ATOM      6  C   UNL     1       5.123   4.157  15.745  0.00  0.00    +0.000 A 
ENDROOT
BRANCH   1   9
ATOM      7  C   UNL     1       2.516   4.877  18.003  0.00  0.00    +0.000 C 
ATOM      8  O   UNL     1       2.479   6.092  17.812  0.00  0.00    +0.000 OA
ATOM      9  N   UNL     1       3.573   4.064  17.614  0.00  0.00    +0.000 N 
ATOM     10  H   UNL     1       3.411   3.068  17.575  0.00  0.00    +0.000 HD
BRANCH   7  11
ATOM     11  C   UNL     1       1.344   4.170  18.707  0.00  0.00    +0.000 C 
BRANCH  11  13
ATOM     12  C   UNL     1       1.723   1.756  19.616  0.00  0.00    +0.000 C 
ATOM     13  C   UNL     1       1.475   2.652  18.416  0.00  0.00    +0.000 C 
ENDBRANCH  11  13
BRANCH  11  14
ATOM     14  C   UNL     1       1.244   4.510  20.203  0.00  0.00    +0.000 C 
ATOM     15  C   UNL     1       2.555   4.947  20.842  0.00  0.00    +0.000 C 
ENDBRANCH  11  14
ENDBRANCH   7  11
ENDBRANCH   1   9
BRANCH   3  16
ATOM     16  C   UNL     1       7.583   6.928  17.915  0.00  0.00    +0.000 C 
ATOM     17  O   UNL     1       8.129   6.656  18.973  0.00  0.00    +0.000 OA
BRANCH  16  18
ATOM     18  O   UNL     1       7.608   8.139  17.306  0.00  0.00    +0.000 OA
ATOM     19  C   UNL     1       8.289   9.143  18.058  0.00  0.00    +0.000 C 
ENDBRANCH  16  18
ENDBRANCH   3  16
BRANCH   5  20
ATOM     20  C   UNL     1       6.661   4.362  13.725  0.00  0.00    +0.000 C 
ATOM     21  O   UNL     1       7.473   5.013  13.086  0.00  0.00    +0.000 OA
BRANCH  20  22
ATOM     22  O   UNL     1       5.974   3.285  13.271  0.00  0.00    +0.000 OA
ATOM     23  C   UNL     1       5.952   3.185  11.845  0.00  0.00    +0.000 C 
ENDBRANCH  20  22
ENDBRANCH   5  20
TORSDOF 8
ENDMDL
MODEL 9
REMARK VINA RESULT:      -6.7      2.383      6.923
REMARK  Name = 
REMARK  12 active torsions:
REMARK  status: ('A' for Active; 'I' for Inactive)
REMARK    1  A    between atoms: C_1  and  C_2
REMARK    2  A    between atoms: C_2  and  C_3
REMARK    3  A    between atoms: C_3  and  C_4
REMARK    4  A    between atoms: C_3  and  C_6
REMARK    5  A    between atoms: C_4  and  C_5
REMARK    6  A    between atoms: N_8  and  C_9
REMARK    7  A    between atoms: C_11  and  C_12
REMARK    8  A    between atoms: C_12  and  O_14
REMARK    9  A    between atoms: O_14  and  C_15
REMARK   10  A    between atoms: C_17  and  C_18
REMARK   11  A    between atoms: C_18  and  O_20
REMARK   12  A    between atoms: O_20  and  C_21
REMARK                            x       y       z     vdW  Elec       q    Type
REMARK                         _______ _______ _______ _____ _____    ______ ____
ROOT
ATOM      1  C   UNL     1       2.744   6.899  18.274  0.00  0.00    +0.000 A 
ATOM      2  C   UNL     1       2.181   5.615  18.248  0.00  0.00    +0.000 A 
ATOM      3  C   UNL     1       2.859   4.532  17.679  0.00  0.00    +0.000 A 
ATOM      4  C   UNL     1       4.112   4.738  17.098  0.00  0.00    +0.000 A 
ATOM      5  C   UNL     1       4.678   6.021  17.087  0.00  0.00    +0.000 A 
ATOM      6  C   UNL     1       3.985   7.104  17.660  0.00  0.00    +0.000 A 
ENDROOT
BRANCH   1   9
ATOM      7  C   UNL     1       1.587   7.946  20.198  0.00  0.00    +0.000 C 
ATOM      8  O   UNL     1       1.716   6.982  20.952  0.00  0.00    +0.000 OA
ATOM      9  N   UNL     1       2.100   7.994  18.907  0.00  0.00    +0.000 N 
ATOM     10  H   UNL     1       2.174   8.898  18.464  0.00  0.00    +0.000 HD
BRANCH   7  11
ATOM     11  C   UNL     1       0.825   9.197  20.668  0.00  0.00    +0.000 C 
BRANCH  11  13
ATOM     12  C   UNL     1      -0.816  10.939  19.634  0.00  0.00    +0.000 C 
ATOM     13  C   UNL     1       0.276   9.909  19.405  0.00  0.00    +0.000 C 
ENDBRANCH  11  13
BRANCH  11  14
ATOM     14  C   UNL     1      -0.249   8.888  21.724  0.00  0.00    +0.000 C 
ATOM     15  C   UNL     1       0.013   9.502  23.092  0.00  0.00    +0.000 C 
ENDBRANCH  11  14
ENDBRANCH   7  11
ENDBRANCH   1   9
BRANCH   3  16
ATOM     16  C   UNL     1       2.211   3.195  17.752  0.00  0.00    +0.000 C 
ATOM     17  O   UNL     1       1.031   3.028  18.019  0.00  0.00    +0.000 OA
BRANCH  16  18
ATOM     18  O   UNL     1       3.109   2.211  17.504  0.00  0.00    +0.000 OA
ATOM     19  C   UNL     1       3.528   1.511  18.675  0.00  0.00    +0.000 C 
ENDBRANCH  16  18
ENDBRANCH   3  16
BRANCH   5  20
ATOM     20  C   UNL     1       6.035   6.154  16.483  0.00  0.00    +0.000 C 
ATOM     21  O   UNL     1       6.584   5.259  15.859  0.00  0.00    +0.000 OA
BRANCH  20  22
ATOM     22  O   UNL     1       6.562   7.375  16.747  0.00  0.00    +0.000 OA
ATOM     23  C   UNL     1       7.656   7.335  17.666  0.00  0.00    +0.000 C 
ENDBRANCH  20  22
ENDBRANCH   5  20
TORSDOF 8
ENDMDL
