MODEL 1
REMARK VINA RESULT:      -6.9      0.000      0.000
REMARK  Name = 
REMARK  5 active torsions:
REMARK  status: ('A' for Active; 'I' for Inactive)
REMARK    1  A    between atoms: C_1  and  C_2
REMARK    2  A    between atoms: C_2  and  C_3
REMARK    3  A    between atoms: C_4  and  C_5
REMARK    4  A    between atoms: C_5  and  N_6
REMARK    5  A    between atoms: N_6  and  C_7
REMARK                            x       y       z     vdW  Elec       q    Type
REMARK                         _______ _______ _______ _____ _____    ______ ____
ROOT
ATOM      1  C   UNL     1       6.144   4.613  18.144  0.00  0.00    +0.000 A 
ATOM      2  N   UNL     1       6.703   5.660  18.812  0.00  0.00    +0.000 NA
ATOM      3  C   UNL     1       7.420   6.575  18.129  0.00  0.00    +0.000 A 
ATOM      4  N   UNL     1       7.675   6.617  16.808  0.00  0.00    +0.000 NA
ATOM      5  C   UNL     1       7.105   5.574  16.189  0.00  0.00    +0.000 A 
ATOM      6  N   UNL     1       7.159   5.292  14.856  0.00  0.00    +0.000 N 
ATOM      7  C   UNL     1       6.440   4.146  14.649  0.00  0.00    +0.000 A 
ATOM      8  N   UNL     1       5.930   3.674  15.769  0.00  0.00    +0.000 NA
ATOM      9  C   UNL     1       6.348   4.557  16.748  0.00  0.00    +0.000 A 
ATOM     10  H   UNL     1       7.646   5.841  14.164  0.00  0.00    +0.000 HD
ENDROOT
BRANCH   1  11
ATOM     11  N   UNL     1       5.435   3.630  18.844  0.00  0.00    +0.000 N 
ATOM     12  H   UNL     1       5.310   2.800  18.267  0.00  0.00    +0.000 HD
BRANCH  11  13
ATOM     13  C   UNL     1       4.233   4.100  19.500  0.00  0.00    +0.000 C 
BRANCH  13  17
ATOM     14  C   UNL     1       0.795   2.387  18.781  0.00  0.00    +0.000 C 
ATOM     15  C   UNL     1       1.803   3.323  19.388  0.00  0.00    +0.000 C 
ATOM     16  C   UNL     1       1.334   4.219  20.499  0.00  0.00    +0.000 C 
ATOM     17  C   UNL     1       3.079   3.312  18.953  0.00  0.00    +0.000 C 
ENDBRANCH  13  17
ENDBRANCH  11  13
ENDBRANCH   1  11
TORSDOF 3
ENDMDL
MODEL 2
REMARK VINA RESULT:      -6.8      0.897      1.004
REMARK  Name = 
REMARK  5 active torsions:
REMARK  status: ('A' for Active; 'I' for Inactive)
REMARK    1  A    between atoms: C_1  and  C_2
REMARK    2  A    between atoms: C_2  and  C_3
REMARK    3  A    between atoms: C_4  and  C_5
REMARK    4  A    between atoms: C_5  and  N_6
REMARK    5  A    between atoms: N_6  and  C_7
REMARK                            x       y       z     vdW  Elec       q    Type
REMARK                         _______ _______ _______ _____ _____    ______ ____
ROOT
ATOM      1  C   UNL     1       6.080   4.576  18.126  0.00  0.00    +0.000 A 
ATOM      2  N   UNL     1       6.625   5.614  18.818  0.00  0.00    +0.000 NA
ATOM      3  C   UNL     1       7.364   6.533  18.163  0.00  0.00    +0.000 A 
ATOM      4  N   UNL     1       7.653   6.586  16.850  0.00  0.00    +0.000 NA
ATOM      5  C   UNL     1       7.096   5.551  16.207  0.00  0.00    +0.000 A 
ATOM      6  N   UNL     1       7.184   5.282  14.873  0.00  0.00    +0.000 N 
ATOM      7  C   UNL     1       6.466   4.141  14.635  0.00  0.00    +0.000 A 
ATOM      8  N   UNL     1       5.925   3.661  15.737  0.00  0.00    +0.000 NA
ATOM      9  C   UNL     1       6.320   4.533  16.735  0.00  0.00    +0.000 A 
ATOM     10  H   UNL     1       7.692   5.836  14.200  0.00  0.00    +0.000 HD
ENDROOT
BRANCH   1  11
ATOM     11  N   UNL     1       5.349   3.590  18.797  0.00  0.00    +0.000 N 
ATOM     12  H   UNL     1       5.797   2.681  18.696  0.00  0.00    +0.000 HD
BRANCH  11  13
ATOM     13  C   UNL     1       3.926   3.598  18.527  0.00  0.00    +0.000 C 
BRANCH  13  17
ATOM     14  C   UNL     1       1.899   2.737  21.755  0.00  0.00    +0.000 C 
ATOM     15  C   UNL     1       2.421   3.529  20.589  0.00  0.00    +0.000 C 
ATOM     16  C   UNL     1       2.022   4.975  20.501  0.00  0.00    +0.000 C 
ATOM     17  C   UNL     1       3.239   2.945  19.690  0.00  0.00    +0.000 C 
ENDBRANCH  13  17
ENDBRANCH  11  13
ENDBRANCH   1  11
TORSDOF 3
ENDMDL
MODEL 3
REMARK VINA RESULT:      -6.7      1.852      5.230
REMARK  Name = 
REMARK  5 active torsions:
REMARK  status: ('A' for Active; 'I' for Inactive)
REMARK    1  A    between atoms: C_1  and  C_2
REMARK    2  A    between atoms: C_2  and  C_3
REMARK    3  A    between atoms: C_4  and  C_5
REMARK    4  A    between atoms: C_5  and  N_6
REMARK    5  A    between atoms: N_6  and  C_7
REMARK                            x       y       z     vdW  Elec       q    Type
REMARK                         _______ _______ _______ _____ _____    ______ ____
ROOT
ATOM      1  C   UNL     1       6.415   5.508  16.772  0.00  0.00    +0.000 A 
ATOM      2  N   UNL     1       7.608   5.625  17.418  0.00  0.00    +0.000 NA
ATOM      3  C   UNL     1       7.643   5.554  18.765  0.00  0.00    +0.000 A 
ATOM      4  N   UNL     1       6.618   5.364  19.615  0.00  0.00    +0.000 NA
ATOM      5  C   UNL     1       5.466   5.250  18.940  0.00  0.00    +0.000 A 
ATOM      6  N   UNL     1       4.227   5.056  19.476  0.00  0.00    +0.000 N 
ATOM      7  C   UNL     1       3.337   4.989  18.439  0.00  0.00    +0.000 A 
ATOM      8  N   UNL     1       3.929   5.131  17.270  0.00  0.00    +0.000 NA
ATOM      9  C   UNL     1       5.268   5.304  17.570  0.00  0.00    +0.000 A 
ATOM     10  H   UNL     1       4.024   4.980  20.461  0.00  0.00    +0.000 HD
ENDROOT
BRANCH   1  11
ATOM     11  N   UNL     1       6.355   5.625  15.379  0.00  0.00    +0.000 N 
ATOM     12  H   UNL     1       5.453   5.998  15.090  0.00  0.00    +0.000 HD
BRANCH  11  13
ATOM     13  C   UNL     1       6.786   4.449  14.652  0.00  0.00    +0.000 C 
BRANCH  13  17
ATOM     14  C   UNL     1       4.487   3.257  11.725  0.00  0.00    +0.000 C 
ATOM     15  C   UNL     1       5.740   3.537  12.509  0.00  0.00    +0.000 C 
ATOM     16  C   UNL     1       7.053   3.283  11.826  0.00  0.00    +0.000 C 
ATOM     17  C   UNL     1       5.654   4.025  13.762  0.00  0.00    +0.000 C 
ENDBRANCH  13  17
ENDBRANCH  11  13
ENDBRANCH   1  11
TORSDOF 3
ENDMDL
MODEL 4
REMARK VINA RESULT:      -6.6      1.078      2.662
REMARK  Name = 
REMARK  5 active torsions:
REMARK  status: ('A' for Active; 'I' for Inactive)
REMARK    1  A    between atoms: C_1  and  C_2
REMARK    2  A    between atoms: C_2  and  C_3
REMARK    3  A    between atoms: C_4  and  C_5
REMARK    4  A    between atoms: C_5  and  N_6
REMARK    5  A    between atoms: N_6  and  C_7
REMARK                            x       y       z     vdW  Elec       q    Type
REMARK                         _______ _______ _______ _____ _____    ______ ____
ROOT
ATOM      1  C   UNL     1       5.451   3.957  16.926  0.00  0.00    +0.000 A 
ATOM      2  N   UNL     1       5.664   4.125  15.591  0.00  0.00    +0.000 NA
ATOM      3  C   UNL     1       6.601   5.001  15.174  0.00  0.00    +0.000 A 
ATOM      4  N   UNL     1       7.409   5.774  15.922  0.00  0.00    +0.000 NA
ATOM      5  C   UNL     1       7.171   5.576  17.226  0.00  0.00    +0.000 A 
ATOM      6  N   UNL     1       7.797   6.191  18.269  0.00  0.00    +0.000 N 
ATOM      7  C   UNL     1       7.256   5.694  19.424  0.00  0.00    +0.000 A 
ATOM      8  N   UNL     1       6.319   4.799  19.185  0.00  0.00    +0.000 NA
ATOM      9  C   UNL     1       6.248   4.720  17.806  0.00  0.00    +0.000 A 
ATOM     10  H   UNL     1       8.524   6.885  18.184  0.00  0.00    +0.000 HD
ENDROOT
BRANCH   1  11
ATOM     11  N   UNL     1       4.453   3.085  17.374  0.00  0.00    +0.000 N 
ATOM     12  H   UNL     1       4.498   2.200  16.871  0.00  0.00    +0.000 HD
BRANCH  11  13
ATOM     13  C   UNL     1       3.129   3.668  17.455  0.00  0.00    +0.000 C 
BRANCH  13  17
ATOM     14  C   UNL     1       1.406   3.445  20.956  0.00  0.00    +0.000 C 
ATOM     15  C   UNL     1       1.679   3.182  19.501  0.00  0.00    +0.000 C 
ATOM     16  C   UNL     1       0.700   2.319  18.758  0.00  0.00    +0.000 C 
ATOM     17  C   UNL     1       2.753   3.740  18.906  0.00  0.00    +0.000 C 
ENDBRANCH  13  17
ENDBRANCH  11  13
ENDBRANCH   1  11
TORSDOF 3
ENDMDL
MODEL 5
REMARK VINA RESULT:      -6.6      1.545      1.720
REMARK  Name = 
REMARK  5 active torsions:
REMARK  status: ('A' for Active; 'I' for Inactive)
REMARK    1  A    between atoms: C_1  and  C_2
REMARK    2  A    between atoms: C_2  and  C_3
REMARK    3  A    between atoms: C_4  and  C_5
REMARK    4  A    between atoms: C_5  and  N_6
REMARK    5  A    between atoms: N_6  and  C_7
REMARK                            x       y       z     vdW  Elec       q    Type
REMARK                         _______ _______ _______ _____ _____    ______ ____
ROOT
ATOM      1  C   UNL     1       4.829   5.595  17.765  0.00  0.00    +0.000 A 
ATOM      2  N   UNL     1       5.240   5.600  19.063  0.00  0.00    +0.000 NA
ATOM      3  C   UNL     1       6.503   5.232  19.360  0.00  0.00    +0.000 A 
ATOM      4  N   UNL     1       7.478   4.846  18.517  0.00  0.00    +0.000 NA
ATOM      5  C   UNL     1       7.034   4.859  17.252  0.00  0.00    +0.000 A 
ATOM      6  N   UNL     1       7.745   4.522  16.138  0.00  0.00    +0.000 N 
ATOM      7  C   UNL     1       6.918   4.683  15.059  0.00  0.00    +0.000 A 
ATOM      8  N   UNL     1       5.719   5.100  15.414  0.00  0.00    +0.000 NA
ATOM      9  C   UNL     1       5.775   5.207  16.791  0.00  0.00    +0.000 A 
ATOM     10  H   UNL     1       8.705   4.213  16.132  0.00  0.00    +0.000 HD
ENDROOT
BRANCH   1  11
ATOM     11  N   UNL     1       3.509   5.931  17.445  0.00  0.00    +0.000 N 
ATOM     12  H   UNL     1       3.472   6.842  16.990  0.00  0.00    +0.000 HD
BRANCH  11  13
ATOM     13  C   UNL     1       2.558   5.752  18.522  0.00  0.00    +0.000 C 
BRANCH  13  17
ATOM     14  C   UNL     1       0.700   2.326  18.803  0.00  0.00    +0.000 C 
ATOM     15  C   UNL     1       1.290   3.646  19.214  0.00  0.00    +0.000 C 
ATOM     16  C   UNL     1       1.264   3.990  20.676  0.00  0.00    +0.000 C 
ATOM     17  C   UNL     1       1.843   4.454  18.287  0.00  0.00    +0.000 C 
ENDBRANCH  13  17
ENDBRANCH  11  13
ENDBRANCH   1  11
TORSDOF 3
ENDMDL
MODEL 6
REMARK VINA RESULT:      -6.6      2.061      5.368
REMARK  Name = 
REMARK  5 active torsions:
REMARK  status: ('A' for Active; 'I' for Inactive)
REMARK    1  A    between atoms: C_1  and  C_2
REMARK    2  A    between atoms: C_2  and  C_3
REMARK    3  A    between atoms: C_4  and  C_5
REMARK    4  A    between atoms: C_5  and  N_6
REMARK    5  A    between atoms: N_6  and  C_7
REMARK                            x       y       z     vdW  Elec       q    Type
REMARK                         _______ _______ _______ _____ _____    ______ ____
ROOT
ATOM      1  C   UNL     1       5.639   3.923  16.654  0.00  0.00    +0.000 A 
ATOM      2  N   UNL     1       4.295   4.010  16.853  0.00  0.00    +0.000 NA
ATOM      3  C   UNL     1       3.828   4.602  17.972  0.00  0.00    +0.000 A 
ATOM      4  N   UNL     1       4.531   5.159  18.974  0.00  0.00    +0.000 NA
ATOM      5  C   UNL     1       5.846   5.056  18.737  0.00  0.00    +0.000 A 
ATOM      6  N   UNL     1       6.854   5.503  19.539  0.00  0.00    +0.000 N 
ATOM      7  C   UNL     1       8.037   5.202  18.920  0.00  0.00    +0.000 A 
ATOM      8  N   UNL     1       7.849   4.585  17.771  0.00  0.00    +0.000 NA
ATOM      9  C   UNL     1       6.475   4.478  17.646  0.00  0.00    +0.000 A 
ATOM     10  H   UNL     1       6.729   5.970  20.425  0.00  0.00    +0.000 HD
ENDROOT
BRANCH   1  11
ATOM     11  N   UNL     1       6.141   3.272  15.521  0.00  0.00    +0.000 N 
ATOM     12  H   UNL     1       6.913   2.658  15.773  0.00  0.00    +0.000 HD
BRANCH  11  13
ATOM     13  C   UNL     1       6.399   4.136  14.388  0.00  0.00    +0.000 C 
BRANCH  13  17
ATOM     14  C   UNL     1       4.231   3.257  11.257  0.00  0.00    +0.000 C 
ATOM     15  C   UNL     1       5.417   3.310  12.180  0.00  0.00    +0.000 C 
ATOM     16  C   UNL     1       6.703   2.710  11.688  0.00  0.00    +0.000 C 
ATOM     17  C   UNL     1       5.307   3.907  13.384  0.00  0.00    +0.000 C 
ENDBRANCH  13  17
ENDBRANCH  11  13
ENDBRANCH   1  11
TORSDOF 3
ENDMDL
MODEL 7
REMARK VINA RESULT:      -6.5      1.205      1.490
REMARK  Name = 
REMARK  5 active torsions:
REMARK  status: ('A' for Active; 'I' for Inactive)
REMARK    1  A    between atoms: C_1  and  C_2
REMARK    2  A    between atoms: C_2  and  C_3
REMARK    3  A    between atoms: C_4  and  C_5
REMARK    4  A    between atoms: C_5  and  N_6
REMARK    5  A    between atoms: N_6  and  C_7
REMARK                            x       y       z     vdW  Elec       q    Type
REMARK                         _______ _______ _______ _____ _____    ______ ____
ROOT
ATOM      1  C   UNL     1       4.994   4.140  17.285  0.00  0.00    +0.000 A 
ATOM      2  N   UNL     1       5.499   4.544  18.483  0.00  0.00    +0.000 NA
ATOM      3  C   UNL     1       6.696   5.165  18.523  0.00  0.00    +0.000 A 
ATOM      4  N   UNL     1       7.509   5.471  17.495  0.00  0.00    +0.000 NA
ATOM      5  C   UNL     1       6.974   5.060  16.338  0.00  0.00    +0.000 A 
ATOM      6  N   UNL     1       7.522   5.197  15.096  0.00  0.00    +0.000 N 
ATOM      7  C   UNL     1       6.646   4.650  14.198  0.00  0.00    +0.000 A 
ATOM      8  N   UNL     1       5.570   4.169  14.788  0.00  0.00    +0.000 NA
ATOM      9  C   UNL     1       5.767   4.412  16.135  0.00  0.00    +0.000 A 
ATOM     10  H   UNL     1       8.413   5.626  14.897  0.00  0.00    +0.000 HD
ENDROOT
BRANCH   1  11
ATOM     11  N   UNL     1       3.775   3.455  17.231  0.00  0.00    +0.000 N 
ATOM     12  H   UNL     1       3.651   3.015  16.321  0.00  0.00    +0.000 HD
BRANCH  11  13
ATOM     13  C   UNL     1       2.631   4.211  17.699  0.00  0.00    +0.000 C 
BRANCH  13  17
ATOM     14  C   UNL     1       1.207   2.928  21.105  0.00  0.00    +0.000 C 
ATOM     15  C   UNL     1       1.749   3.878  20.072  0.00  0.00    +0.000 C 
ATOM     16  C   UNL     1       2.016   5.291  20.504  0.00  0.00    +0.000 C 
ATOM     17  C   UNL     1       2.006   3.438  18.823  0.00  0.00    +0.000 C 
ENDBRANCH  13  17
ENDBRANCH  11  13
ENDBRANCH   1  11
TORSDOF 3
ENDMDL
MODEL 8
REMARK VINA RESULT:      -6.5      1.478      2.880
REMARK  Name = 
REMARK  5 active torsions:
REMARK  status: ('A' for Active; 'I' for Inactive)
REMARK    1  A    between atoms: C_1  and  C_2
REMARK    2  A    between atoms: C_2  and  C_3
REMARK    3  A    between atoms: C_4  and  C_5
REMARK    4  A    between atoms: C_5  and  N_6
REMARK    5  A    between atoms: N_6  and  C_7
REMARK                            x       y       z     vdW  Elec       q    Type
REMARK                         _______ _______ _______ _____ _____    ______ ____
ROOT
ATOM      1  C   UNL     1       5.365   3.944  16.939  0.00  0.00    +0.000 A 
ATOM      2  N   UNL     1       5.552   4.125  15.602  0.00  0.00    +0.000 NA
ATOM      3  C   UNL     1       6.479   5.007  15.175  0.00  0.00    +0.000 A 
ATOM      4  N   UNL     1       7.301   5.774  15.914  0.00  0.00    +0.000 NA
ATOM      5  C   UNL     1       7.088   5.563  17.220  0.00  0.00    +0.000 A 
ATOM      6  N   UNL     1       7.733   6.171  18.257  0.00  0.00    +0.000 N 
ATOM      7  C   UNL     1       7.216   5.662  19.417  0.00  0.00    +0.000 A 
ATOM      8  N   UNL     1       6.276   4.767  19.188  0.00  0.00    +0.000 NA
ATOM      9  C   UNL     1       6.178   4.701  17.810  0.00  0.00    +0.000 A 
ATOM     10  H   UNL     1       8.457   6.866  18.164  0.00  0.00    +0.000 HD
ENDROOT
BRANCH   1  11
ATOM     11  N   UNL     1       4.377   3.067  17.398  0.00  0.00    +0.000 N 
ATOM     12  H   UNL     1       4.560   2.119  17.073  0.00  0.00    +0.000 HD
BRANCH  11  13
ATOM     13  C   UNL     1       3.017   3.524  17.197  0.00  0.00    +0.000 C 
BRANCH  13  17
ATOM     14  C   UNL     1       1.912   5.404  20.440  0.00  0.00    +0.000 C 
ATOM     15  C   UNL     1       2.395   5.187  19.032  0.00  0.00    +0.000 C 
ATOM     16  C   UNL     1       2.805   6.399  18.247  0.00  0.00    +0.000 C 
ATOM     17  C   UNL     1       2.474   3.936  18.534  0.00  0.00    +0.000 C 
ENDBRANCH  13  17
ENDBRANCH  11  13
ENDBRANCH   1  11
TORSDOF 3
ENDMDL
MODEL 9
REMARK VINA RESULT:      -6.5      2.043      5.597
REMARK  Name = 
REMARK  5 active torsions:
REMARK  status: ('A' for Active; 'I' for Inactive)
REMARK    1  A    between atoms: C_1  and  C_2
REMARK    2  A    between atoms: C_2  and  C_3
REMARK    3  A    between atoms: C_4  and  C_5
REMARK    4  A    between atoms: C_5  and  N_6
REMARK    5  A    between atoms: N_6  and  C_7
REMARK                            x       y       z     vdW  Elec       q    Type
REMARK                         _______ _______ _______ _____ _____    ______ ____
ROOT
ATOM      1  C   UNL     1       5.970   4.322  16.277  0.00  0.00    +0.000 A 
ATOM      2  N   UNL     1       4.774   3.688  16.425  0.00  0.00    +0.000 NA
ATOM      3  C   UNL     1       4.225   3.587  17.653  0.00  0.00    +0.000 A 
ATOM      4  N   UNL     1       4.705   4.053  18.820  0.00  0.00    +0.000 NA
ATOM      5  C   UNL     1       5.878   4.672  18.630  0.00  0.00    +0.000 A 
ATOM      6  N   UNL     1       6.653   5.258  19.587  0.00  0.00    +0.000 N 
ATOM      7  C   UNL     1       7.756   5.775  18.964  0.00  0.00    +0.000 A 
ATOM      8  N   UNL     1       7.738   5.553  17.665  0.00  0.00    +0.000 NA
ATOM      9  C   UNL     1       6.567   4.853  17.441  0.00  0.00    +0.000 A 
ATOM     10  H   UNL     1       6.434   5.293  20.571  0.00  0.00    +0.000 HD
ENDROOT
BRANCH   1  11
ATOM     11  N   UNL     1       6.575   4.395  15.017  0.00  0.00    +0.000 N 
ATOM     12  H   UNL     1       7.218   5.184  14.975  0.00  0.00    +0.000 HD
BRANCH  11  13
ATOM     13  C   UNL     1       5.662   4.297  13.898  0.00  0.00    +0.000 C 
BRANCH  13  17
ATOM     14  C   UNL     1       6.268   1.653  11.084  0.00  0.00    +0.000 C 
ATOM     15  C   UNL     1       5.604   2.755  11.863  0.00  0.00    +0.000 C 
ATOM     16  C   UNL     1       4.251   3.213  11.397  0.00  0.00    +0.000 C 
ATOM     17  C   UNL     1       6.211   3.270  12.952  0.00  0.00    +0.000 C 
ENDBRANCH  13  17
ENDBRANCH  11  13
ENDBRANCH   1  11
TORSDOF 3
ENDMDL
