MODEL 1
REMARK VINA RESULT:      -7.7      0.000      0.000
REMARK  Name = 
REMARK  8 active torsions:
REMARK  status: ('A' for Active; 'I' for Inactive)
REMARK    1  A    between atoms: N_1  and  C_2
REMARK    2  A    between atoms: C_5  and  C_6
REMARK    3  A    between atoms: C_6  and  N_7
REMARK    4  A    between atoms: C_8  and  C_10
REMARK    5  A    between atoms: C_15  and  C_17
REMARK    6  A    between atoms: C_17  and  C_18
REMARK    7  A    between atoms: C_18  and  C_19
REMARK    8  A    between atoms: C_18  and  C_25
REMARK                            x       y       z     vdW  Elec       q    Type
REMARK                         _______ _______ _______ _____ _____    ______ ____
ROOT
ATOM      1  C   UNL     1       0.426   9.549  19.803  0.00  0.00    +0.000 C 
ATOM      2  C   UNL     1       0.305  10.098  21.239  0.00  0.00    +0.000 C 
ATOM      3  C   UNL     1       0.306   8.816  22.027  0.00  0.00    +0.000 C 
ATOM      4  C   UNL     1       1.424   8.027  21.341  0.00  0.00    +0.000 C 
ATOM      5  N   UNL     1       1.398   8.463  19.955  0.00  0.00    +0.000 N 
ATOM      6  C   UNL     1       2.225   7.964  18.965  0.00  0.00    +0.000 C 
ATOM      7  O   UNL     1       2.154   8.436  17.839  0.00  0.00    +0.000 OA
ENDROOT
BRANCH   1   9
ATOM      8  N   UNL     1       1.888  11.400  18.896  0.00  0.00    +0.000 N 
ATOM      9  C   UNL     1       0.759  10.640  18.791  0.00  0.00    +0.000 C 
ATOM     10  O   UNL     1      -0.038  10.852  17.886  0.00  0.00    +0.000 OA
ATOM     11  H   UNL     1       2.527  11.265  19.688  0.00  0.00    +0.000 HD
BRANCH   8  12
ATOM     12  C   UNL     1       2.266  12.426  17.945  0.00  0.00    +0.000 C 
BRANCH  12  16
ATOM     13  C   UNL     1       2.097  16.707  18.758  0.00  0.00    +0.000 C 
ATOM     14  C   UNL     1       3.486  16.047  18.654  0.00  0.00    +0.000 C 
ATOM     15  C   UNL     1       3.374  14.697  17.947  0.00  0.00    +0.000 C 
ATOM     16  C   UNL     1       2.390  13.763  18.680  0.00  0.00    +0.000 C 
ATOM     17  C   UNL     1       1.008  14.434  18.821  0.00  0.00    +0.000 C 
ATOM     18  C   UNL     1       1.138  15.786  19.534  0.00  0.00    +0.000 C 
BRANCH  13  19
ATOM     19  N   UNL     1       2.190  18.008  19.419  0.00  0.00    +0.000 NA
ATOM     20  H   UNL     1       2.735  17.904  20.306  0.00  0.00    +0.000 HD
ATOM     21  H   UNL     1       1.234  18.360  19.654  0.00  0.00    +0.000 HD
ENDBRANCH  13  19
ENDBRANCH  12  16
ENDBRANCH   8  12
ENDBRANCH   1   9
BRANCH   6  22
ATOM     22  C   UNL     1       3.327   6.925  19.261  0.00  0.00    +0.000 C 
BRANCH  22  23
ATOM     23  C   UNL     1       3.441   5.634  18.336  0.00  0.00    +0.000 C 
BRANCH  23  24
ATOM     24  C   UNL     1       2.013   4.924  18.212  0.00  0.00    +0.000 C 
ATOM     25  C   UNL     1       1.943   3.643  17.324  0.00  0.00    +0.000 C 
ATOM     26  C   UNL     1       2.720   2.444  17.920  0.00  0.00    +0.000 C 
ATOM     27  C   UNL     1       2.172   2.066  19.280  0.00  0.00    +0.000 C 
ATOM     28  C   UNL     1       2.222   3.279  20.211  0.00  0.00    +0.000 C 
ATOM     29  C   UNL     1       1.430   4.450  19.589  0.00  0.00    +0.000 C 
ENDBRANCH  23  24
BRANCH  23  30
ATOM     30  C   UNL     1       4.283   6.018  17.006  0.00  0.00    +0.000 C 
ATOM     31  C   UNL     1       5.548   6.882  17.342  0.00  0.00    +0.000 C 
ATOM     32  C   UNL     1       6.635   6.050  18.060  0.00  0.00    +0.000 C 
ATOM     33  C   UNL     1       7.102   4.903  17.154  0.00  0.00    +0.000 C 
ATOM     34  C   UNL     1       5.926   4.046  16.677  0.00  0.00    +0.000 C 
ATOM     35  C   UNL     1       4.821   4.913  16.049  0.00  0.00    +0.000 C 
ENDBRANCH  23  30
ENDBRANCH  22  23
ENDBRANCH   6  22
TORSDOF 8
ENDMDL
MODEL 2
REMARK VINA RESULT:      -7.5      0.638      3.044
REMARK  Name = 
REMARK  8 active torsions:
REMARK  status: ('A' for Active; 'I' for Inactive)
REMARK    1  A    between atoms: N_1  and  C_2
REMARK    2  A    between atoms: C_5  and  C_6
REMARK    3  A    between atoms: C_6  and  N_7
REMARK    4  A    between atoms: C_8  and  C_10
REMARK    5  A    between atoms: C_15  and  C_17
REMARK    6  A    between atoms: C_17  and  C_18
REMARK    7  A    between atoms: C_18  and  C_19
REMARK    8  A    between atoms: C_18  and  C_25
REMARK                            x       y       z     vdW  Elec       q    Type
REMARK                         _______ _______ _______ _____ _____    ______ ____
ROOT
ATOM      1  C   UNL     1       0.453   9.726  19.819  0.00  0.00    +0.000 C 
ATOM      2  C   UNL     1       0.460  10.232  21.276  0.00  0.00    +0.000 C 
ATOM      3  C   UNL     1       0.483   8.926  22.023  0.00  0.00    +0.000 C 
ATOM      4  C   UNL     1       1.521   8.129  21.229  0.00  0.00    +0.000 C 
ATOM      5  N   UNL     1       1.401   8.608  19.863  0.00  0.00    +0.000 N 
ATOM      6  C   UNL     1       2.134   8.118  18.796  0.00  0.00    +0.000 C 
ATOM      7  O   UNL     1       1.990   8.627  17.694  0.00  0.00    +0.000 OA
ENDROOT
BRANCH   1   9
ATOM      8  N   UNL     1       1.898  11.560  18.853  0.00  0.00    +0.000 N 
ATOM      9  C   UNL     1       0.740  10.839  18.817  0.00  0.00    +0.000 C 
ATOM     10  O   UNL     1      -0.120  11.103  17.986  0.00  0.00    +0.000 OA
ATOM     11  H   UNL     1       2.594  11.380  19.586  0.00  0.00    +0.000 HD
BRANCH   8  12
ATOM     12  C   UNL     1       2.233  12.605  17.906  0.00  0.00    +0.000 C 
BRANCH  12  16
ATOM     13  C   UNL     1       2.065  16.867  18.808  0.00  0.00    +0.000 C 
ATOM     14  C   UNL     1       3.453  16.225  18.619  0.00  0.00    +0.000 C 
ATOM     15  C   UNL     1       3.317  14.886  17.892  0.00  0.00    +0.000 C 
ATOM     16  C   UNL     1       2.382  13.929  18.658  0.00  0.00    +0.000 C 
ATOM     17  C   UNL     1       1.003  14.582  18.885  0.00  0.00    +0.000 C 
ATOM     18  C   UNL     1       1.158  15.922  19.616  0.00  0.00    +0.000 C 
BRANCH  13  19
ATOM     19  N   UNL     1       2.180  18.156  19.489  0.00  0.00    +0.000 NA
ATOM     20  H   UNL     1       2.234  18.918  18.774  0.00  0.00    +0.000 HD
ATOM     21  H   UNL     1       3.051  18.180  20.068  0.00  0.00    +0.000 HD
ENDBRANCH  13  19
ENDBRANCH  12  16
ENDBRANCH   8  12
ENDBRANCH   1   9
BRANCH   6  22
ATOM     22  C   UNL     1       3.223   7.040  18.975  0.00  0.00    +0.000 C 
BRANCH  22  23
ATOM     23  C   UNL     1       3.439   5.962  17.824  0.00  0.00    +0.000 C 
BRANCH  23  24
ATOM     24  C   UNL     1       4.546   6.480  16.791  0.00  0.00    +0.000 C 
ATOM     25  C   UNL     1       5.856   7.065  17.405  0.00  0.00    +0.000 C 
ATOM     26  C   UNL     1       6.722   6.002  18.121  0.00  0.00    +0.000 C 
ATOM     27  C   UNL     1       7.138   4.906  17.163  0.00  0.00    +0.000 C 
ATOM     28  C   UNL     1       5.895   4.276  16.531  0.00  0.00    +0.000 C 
ATOM     29  C   UNL     1       5.061   5.364  15.817  0.00  0.00    +0.000 C 
ENDBRANCH  23  24
BRANCH  23  30
ATOM     30  C   UNL     1       3.573   4.495  18.501  0.00  0.00    +0.000 C 
ATOM     31  C   UNL     1       3.226   4.523  20.031  0.00  0.00    +0.000 C 
ATOM     32  C   UNL     1       1.715   4.740  20.270  0.00  0.00    +0.000 C 
ATOM     33  C   UNL     1       0.913   3.588  19.647  0.00  0.00    +0.000 C 
ATOM     34  C   UNL     1       1.252   3.402  18.166  0.00  0.00    +0.000 C 
ATOM     35  C   UNL     1       2.771   3.279  17.950  0.00  0.00    +0.000 C 
ENDBRANCH  23  30
ENDBRANCH  22  23
ENDBRANCH   6  22
TORSDOF 8
ENDMDL
MODEL 3
REMARK VINA RESULT:      -7.5      0.719      3.094
REMARK  Name = 
REMARK  8 active torsions:
REMARK  status: ('A' for Active; 'I' for Inactive)
REMARK    1  A    between atoms: N_1  and  C_2
REMARK    2  A    between atoms: C_5  and  C_6
REMARK    3  A    between atoms: C_6  and  N_7
REMARK    4  A    between atoms: C_8  and  C_10
REMARK    5  A    between atoms: C_15  and  C_17
REMARK    6  A    between atoms: C_17  and  C_18
REMARK    7  A    between atoms: C_18  and  C_19
REMARK    8  A    between atoms: C_18  and  C_25
REMARK                            x       y       z     vdW  Elec       q    Type
REMARK                         _______ _______ _______ _____ _____    ______ ____
ROOT
ATOM      1  C   UNL     1       0.489   9.702  19.953  0.00  0.00    +0.000 C 
ATOM      2  C   UNL     1       0.556  10.269  21.385  0.00  0.00    +0.000 C 
ATOM      3  C   UNL     1       0.509   8.997  22.189  0.00  0.00    +0.000 C 
ATOM      4  C   UNL     1       1.478   8.101  21.415  0.00  0.00    +0.000 C 
ATOM      5  N   UNL     1       1.364   8.528  20.031  0.00  0.00    +0.000 N 
ATOM      6  C   UNL     1       2.043   7.946  18.976  0.00  0.00    +0.000 C 
ATOM      7  O   UNL     1       1.912   8.416  17.854  0.00  0.00    +0.000 OA
ENDROOT
BRANCH   1   9
ATOM      8  N   UNL     1       1.966  11.500  18.967  0.00  0.00    +0.000 N 
ATOM      9  C   UNL     1       0.829  10.750  18.898  0.00  0.00    +0.000 C 
ATOM     10  O   UNL     1       0.028  10.935  17.990  0.00  0.00    +0.000 OA
ATOM     11  H   UNL     1       2.609  11.388  19.761  0.00  0.00    +0.000 HD
BRANCH   8  12
ATOM     12  C   UNL     1       2.350  12.485  17.976  0.00  0.00    +0.000 C 
BRANCH  12  16
ATOM     13  C   UNL     1       1.992  16.783  18.615  0.00  0.00    +0.000 C 
ATOM     14  C   UNL     1       3.407  16.192  18.470  0.00  0.00    +0.000 C 
ATOM     15  C   UNL     1       3.334  14.807  17.826  0.00  0.00    +0.000 C 
ATOM     16  C   UNL     1       2.437  13.857  18.646  0.00  0.00    +0.000 C 
ATOM     17  C   UNL     1       1.029  14.462  18.827  0.00  0.00    +0.000 C 
ATOM     18  C   UNL     1       1.121  15.850  19.475  0.00  0.00    +0.000 C 
BRANCH  13  19
ATOM     19  N   UNL     1       2.046  18.115  19.215  0.00  0.00    +0.000 NA
ATOM     20  H   UNL     1       2.991  18.262  19.640  0.00  0.00    +0.000 HD
ATOM     21  H   UNL     1       1.325  18.200  19.967  0.00  0.00    +0.000 HD
ENDBRANCH  13  19
ENDBRANCH  12  16
ENDBRANCH   8  12
ENDBRANCH   1   9
BRANCH   6  22
ATOM     22  C   UNL     1       3.064   6.808  19.184  0.00  0.00    +0.000 C 
BRANCH  22  23
ATOM     23  C   UNL     1       2.858   5.433  18.408  0.00  0.00    +0.000 C 
BRANCH  23  24
ATOM     24  C   UNL     1       4.232   4.615  18.372  0.00  0.00    +0.000 C 
ATOM     25  C   UNL     1       4.580   3.890  17.035  0.00  0.00    +0.000 C 
ATOM     26  C   UNL     1       4.889   4.866  15.874  0.00  0.00    +0.000 C 
ATOM     27  C   UNL     1       6.068   5.753  16.211  0.00  0.00    +0.000 C 
ATOM     28  C   UNL     1       5.788   6.508  17.513  0.00  0.00    +0.000 C 
ATOM     29  C   UNL     1       5.494   5.503  18.649  0.00  0.00    +0.000 C 
ENDBRANCH  23  24
BRANCH  23  30
ATOM     30  C   UNL     1       1.500   4.729  18.945  0.00  0.00    +0.000 C 
ATOM     31  C   UNL     1       1.415   3.221  18.523  0.00  0.00    +0.000 C 
ATOM     32  C   UNL     1       2.434   2.353  19.296  0.00  0.00    +0.000 C 
ATOM     33  C   UNL     1       2.142   2.416  20.802  0.00  0.00    +0.000 C 
ATOM     34  C   UNL     1       2.098   3.861  21.307  0.00  0.00    +0.000 C 
ATOM     35  C   UNL     1       1.144   4.721  20.461  0.00  0.00    +0.000 C 
ENDBRANCH  23  30
ENDBRANCH  22  23
ENDBRANCH   6  22
TORSDOF 8
ENDMDL
MODEL 4
REMARK VINA RESULT:      -7.5      3.102      4.197
REMARK  Name = 
REMARK  8 active torsions:
REMARK  status: ('A' for Active; 'I' for Inactive)
REMARK    1  A    between atoms: N_1  and  C_2
REMARK    2  A    between atoms: C_5  and  C_6
REMARK    3  A    between atoms: C_6  and  N_7
REMARK    4  A    between atoms: C_8  and  C_10
REMARK    5  A    between atoms: C_15  and  C_17
REMARK    6  A    between atoms: C_17  and  C_18
REMARK    7  A    between atoms: C_18  and  C_19
REMARK    8  A    between atoms: C_18  and  C_25
REMARK                            x       y       z     vdW  Elec       q    Type
REMARK                         _______ _______ _______ _____ _____    ______ ____
ROOT
ATOM      1  C   UNL     1       0.111   9.378  20.017  0.00  0.00    +0.000 C 
ATOM      2  C   UNL     1       0.417   9.993  21.398  0.00  0.00    +0.000 C 
ATOM      3  C   UNL     1       1.117   8.840  22.065  0.00  0.00    +0.000 C 
ATOM      4  C   UNL     1       2.047   8.351  20.952  0.00  0.00    +0.000 C 
ATOM      5  N   UNL     1       1.339   8.636  19.716  0.00  0.00    +0.000 N 
ATOM      6  C   UNL     1       1.808   8.313  18.455  0.00  0.00    +0.000 C 
ATOM      7  O   UNL     1       1.154   8.643  17.476  0.00  0.00    +0.000 OA
ENDROOT
BRANCH   1   9
ATOM      8  N   UNL     1      -1.483  10.291  18.281  0.00  0.00    +0.000 N 
ATOM      9  C   UNL     1      -0.332  10.426  19.001  0.00  0.00    +0.000 C 
ATOM     10  O   UNL     1       0.398  11.391  18.812  0.00  0.00    +0.000 OA
ATOM     11  H   UNL     1      -2.065   9.452  18.394  0.00  0.00    +0.000 HD
BRANCH   8  12
ATOM     12  C   UNL     1      -1.963  11.271  17.328  0.00  0.00    +0.000 C 
BRANCH  12  16
ATOM     13  C   UNL     1      -5.789  11.435  19.415  0.00  0.00    +0.000 C 
ATOM     14  C   UNL     1      -5.801  11.084  17.914  0.00  0.00    +0.000 C 
ATOM     15  C   UNL     1      -4.406  10.643  17.467  0.00  0.00    +0.000 C 
ATOM     16  C   UNL     1      -3.357  11.736  17.754  0.00  0.00    +0.000 C 
ATOM     17  C   UNL     1      -3.368  12.120  19.249  0.00  0.00    +0.000 C 
ATOM     18  C   UNL     1      -4.773  12.561  19.679  0.00  0.00    +0.000 C 
BRANCH  13  19
ATOM     19  N   UNL     1      -7.119  11.844  19.861  0.00  0.00    +0.000 NA
ATOM     20  H   UNL     1      -7.200  11.685  20.892  0.00  0.00    +0.000 HD
ATOM     21  H   UNL     1      -7.851  11.274  19.378  0.00  0.00    +0.000 HD
ENDBRANCH  13  19
ENDBRANCH  12  16
ENDBRANCH   8  12
ENDBRANCH   1   9
BRANCH   6  22
ATOM     22  C   UNL     1       3.191   7.666  18.235  0.00  0.00    +0.000 C 
BRANCH  22  23
ATOM     23  C   UNL     1       3.325   6.081  18.312  0.00  0.00    +0.000 C 
BRANCH  23  24
ATOM     24  C   UNL     1       1.900   5.428  18.630  0.00  0.00    +0.000 C 
ATOM     25  C   UNL     1       1.459   4.236  17.723  0.00  0.00    +0.000 C 
ATOM     26  C   UNL     1       2.320   2.966  17.924  0.00  0.00    +0.000 C 
ATOM     27  C   UNL     1       2.242   2.480  19.356  0.00  0.00    +0.000 C 
ATOM     28  C   UNL     1       2.675   3.600  20.304  0.00  0.00    +0.000 C 
ATOM     29  C   UNL     1       1.790   4.847  20.082  0.00  0.00    +0.000 C 
ENDBRANCH  23  24
BRANCH  23  30
ATOM     30  C   UNL     1       4.198   5.569  17.047  0.00  0.00    +0.000 C 
ATOM     31  C   UNL     1       5.068   6.720  16.430  0.00  0.00    +0.000 C 
ATOM     32  C   UNL     1       6.237   7.114  17.360  0.00  0.00    +0.000 C 
ATOM     33  C   UNL     1       7.168   5.912  17.573  0.00  0.00    +0.000 C 
ATOM     34  C   UNL     1       6.401   4.688  18.081  0.00  0.00    +0.000 C 
ATOM     35  C   UNL     1       5.190   4.375  17.185  0.00  0.00    +0.000 C 
ENDBRANCH  23  30
ENDBRANCH  22  23
ENDBRANCH   6  22
TORSDOF 8
ENDMDL
MODEL 5
REMARK VINA RESULT:      -7.4      0.707      1.058
REMARK  Name = 
REMARK  8 active torsions:
REMARK  status: ('A' for Active; 'I' for Inactive)
REMARK    1  A    between atoms: N_1  and  C_2
REMARK    2  A    between atoms: C_5  and  C_6
REMARK    3  A    between atoms: C_6  and  N_7
REMARK    4  A    between atoms: C_8  and  C_10
REMARK    5  A    between atoms: C_15  and  C_17
REMARK    6  A    between atoms: C_17  and  C_18
REMARK    7  A    between atoms: C_18  and  C_19
REMARK    8  A    between atoms: C_18  and  C_25
REMARK                            x       y       z     vdW  Elec       q    Type
REMARK                         _______ _______ _______ _____ _____    ______ ____
ROOT
ATOM      1  C   UNL     1       0.421   9.406  19.682  0.00  0.00    +0.000 C 
ATOM      2  C   UNL     1       0.232   9.900  21.131  0.00  0.00    +0.000 C 
ATOM      3  C   UNL     1       0.239   8.590  21.872  0.00  0.00    +0.000 C 
ATOM      4  C   UNL     1       1.402   7.856  21.203  0.00  0.00    +0.000 C 
ATOM      5  N   UNL     1       1.416   8.340  19.833  0.00  0.00    +0.000 N 
ATOM      6  C   UNL     1       2.293   7.898  18.858  0.00  0.00    +0.000 C 
ATOM      7  O   UNL     1       2.250   8.409  17.747  0.00  0.00    +0.000 OA
ENDROOT
BRANCH   1   9
ATOM      8  N   UNL     1       1.897  11.287  18.862  0.00  0.00    +0.000 N 
ATOM      9  C   UNL     1       0.763  10.541  18.723  0.00  0.00    +0.000 C 
ATOM     10  O   UNL     1      -0.033  10.801  17.829  0.00  0.00    +0.000 OA
ATOM     11  H   UNL     1       2.536  11.109  19.647  0.00  0.00    +0.000 HD
BRANCH   8  12
ATOM     12  C   UNL     1       2.284  12.353  17.961  0.00  0.00    +0.000 C 
BRANCH  12  16
ATOM     13  C   UNL     1       3.416  15.824  20.345  0.00  0.00    +0.000 C 
ATOM     14  C   UNL     1       2.413  14.826  20.956  0.00  0.00    +0.000 C 
ATOM     15  C   UNL     1       2.474  13.495  20.206  0.00  0.00    +0.000 C 
ATOM     16  C   UNL     1       2.191  13.689  18.702  0.00  0.00    +0.000 C 
ATOM     17  C   UNL     1       3.169  14.716  18.094  0.00  0.00    +0.000 C 
ATOM     18  C   UNL     1       3.093  16.045  18.856  0.00  0.00    +0.000 C 
BRANCH  13  19
ATOM     19  N   UNL     1       3.381  17.098  21.061  0.00  0.00    +0.000 NA
ATOM     20  H   UNL     1       3.009  17.840  20.424  0.00  0.00    +0.000 HD
ATOM     21  H   UNL     1       4.345  17.368  21.362  0.00  0.00    +0.000 HD
ENDBRANCH  13  19
ENDBRANCH  12  16
ENDBRANCH   8  12
ENDBRANCH   1   9
BRANCH   6  22
ATOM     22  C   UNL     1       3.410   6.878  19.159  0.00  0.00    +0.000 C 
BRANCH  22  23
ATOM     23  C   UNL     1       3.572   5.608  18.212  0.00  0.00    +0.000 C 
BRANCH  23  24
ATOM     24  C   UNL     1       2.162   4.873  18.037  0.00  0.00    +0.000 C 
ATOM     25  C   UNL     1       2.158   3.557  17.197  0.00  0.00    +0.000 C 
ATOM     26  C   UNL     1       2.915   2.394  17.884  0.00  0.00    +0.000 C 
ATOM     27  C   UNL     1       2.296   2.061  19.224  0.00  0.00    +0.000 C 
ATOM     28  C   UNL     1       2.279   3.311  20.108  0.00  0.00    +0.000 C 
ATOM     29  C   UNL     1       1.508   4.445  19.396  0.00  0.00    +0.000 C 
ENDBRANCH  23  24
BRANCH  23  30
ATOM     30  C   UNL     1       4.441   6.034  16.912  0.00  0.00    +0.000 C 
ATOM     31  C   UNL     1       5.723   6.849  17.305  0.00  0.00    +0.000 C 
ATOM     32  C   UNL     1       6.779   5.955  17.994  0.00  0.00    +0.000 C 
ATOM     33  C   UNL     1       7.229   4.842  17.037  0.00  0.00    +0.000 C 
ATOM     34  C   UNL     1       6.038   4.040  16.506  0.00  0.00    +0.000 C 
ATOM     35  C   UNL     1       4.963   4.964  15.908  0.00  0.00    +0.000 C 
ENDBRANCH  23  30
ENDBRANCH  22  23
ENDBRANCH   6  22
TORSDOF 8
ENDMDL
MODEL 6
REMARK VINA RESULT:      -7.3      0.806      1.131
REMARK  Name = 
REMARK  8 active torsions:
REMARK  status: ('A' for Active; 'I' for Inactive)
REMARK    1  A    between atoms: N_1  and  C_2
REMARK    2  A    between atoms: C_5  and  C_6
REMARK    3  A    between atoms: C_6  and  N_7
REMARK    4  A    between atoms: C_8  and  C_10
REMARK    5  A    between atoms: C_15  and  C_17
REMARK    6  A    between atoms: C_17  and  C_18
REMARK    7  A    between atoms: C_18  and  C_19
REMARK    8  A    between atoms: C_18  and  C_25
REMARK                            x       y       z     vdW  Elec       q    Type
REMARK                         _______ _______ _______ _____ _____    ______ ____
ROOT
ATOM      1  C   UNL     1       0.425   9.514  19.821  0.00  0.00    +0.000 C 
ATOM      2  C   UNL     1       0.312  10.069  21.255  0.00  0.00    +0.000 C 
ATOM      3  C   UNL     1       0.327   8.790  22.049  0.00  0.00    +0.000 C 
ATOM      4  C   UNL     1       1.445   8.006  21.358  0.00  0.00    +0.000 C 
ATOM      5  N   UNL     1       1.405   8.434  19.970  0.00  0.00    +0.000 N 
ATOM      6  C   UNL     1       2.227   7.936  18.976  0.00  0.00    +0.000 C 
ATOM      7  O   UNL     1       2.144   8.402  17.848  0.00  0.00    +0.000 OA
ENDROOT
BRANCH   1   9
ATOM      8  N   UNL     1       1.832  11.416  18.931  0.00  0.00    +0.000 N 
ATOM      9  C   UNL     1       0.744  10.603  18.802  0.00  0.00    +0.000 C 
ATOM     10  O   UNL     1      -0.030  10.762  17.866  0.00  0.00    +0.000 OA
ATOM     11  H   UNL     1       2.449  11.323  19.747  0.00  0.00    +0.000 HD
BRANCH   8  12
ATOM     12  C   UNL     1       2.197  12.442  17.976  0.00  0.00    +0.000 C 
BRANCH  12  16
ATOM     13  C   UNL     1       1.213  15.551  20.871  0.00  0.00    +0.000 C 
ATOM     14  C   UNL     1       0.600  15.659  19.460  0.00  0.00    +0.000 C 
ATOM     15  C   UNL     1       0.680  14.308  18.749  0.00  0.00    +0.000 C 
ATOM     16  C   UNL     1       2.136  13.807  18.665  0.00  0.00    +0.000 C 
ATOM     17  C   UNL     1       2.766  13.733  20.071  0.00  0.00    +0.000 C 
ATOM     18  C   UNL     1       2.679  15.096  20.770  0.00  0.00    +0.000 C 
BRANCH  13  19
ATOM     19  N   UNL     1       1.130  16.832  21.570  0.00  0.00    +0.000 NA
ATOM     20  H   UNL     1       1.897  16.885  22.281  0.00  0.00    +0.000 HD
ATOM     21  H   UNL     1       0.211  16.913  22.063  0.00  0.00    +0.000 HD
ENDBRANCH  13  19
ENDBRANCH  12  16
ENDBRANCH   8  12
ENDBRANCH   1   9
BRANCH   6  22
ATOM     22  C   UNL     1       3.337   6.905  19.268  0.00  0.00    +0.000 C 
BRANCH  22  23
ATOM     23  C   UNL     1       3.522   5.668  18.283  0.00  0.00    +0.000 C 
BRANCH  23  24
ATOM     24  C   UNL     1       2.121   4.926  18.069  0.00  0.00    +0.000 C 
ATOM     25  C   UNL     1       2.148   3.606  17.237  0.00  0.00    +0.000 C 
ATOM     26  C   UNL     1       2.889   2.450  17.952  0.00  0.00    +0.000 C 
ATOM     27  C   UNL     1       2.231   2.121  19.275  0.00  0.00    +0.000 C 
ATOM     28  C   UNL     1       2.182   3.375  20.151  0.00  0.00    +0.000 C 
ATOM     29  C   UNL     1       1.428   4.503  19.410  0.00  0.00    +0.000 C 
ENDBRANCH  23  24
BRANCH  23  30
ATOM     30  C   UNL     1       4.400   6.144  17.006  0.00  0.00    +0.000 C 
ATOM     31  C   UNL     1       5.705   6.899  17.441  0.00  0.00    +0.000 C 
ATOM     32  C   UNL     1       6.737   5.937  18.073  0.00  0.00    +0.000 C 
ATOM     33  C   UNL     1       7.154   4.868  17.052  0.00  0.00    +0.000 C 
ATOM     34  C   UNL     1       5.939   4.132  16.480  0.00  0.00    +0.000 C 
ATOM     35  C   UNL     1       4.890   5.119  15.940  0.00  0.00    +0.000 C 
ENDBRANCH  23  30
ENDBRANCH  22  23
ENDBRANCH   6  22
TORSDOF 8
ENDMDL
MODEL 7
REMARK VINA RESULT:      -7.3      0.864      3.087
REMARK  Name = 
REMARK  8 active torsions:
REMARK  status: ('A' for Active; 'I' for Inactive)
REMARK    1  A    between atoms: N_1  and  C_2
REMARK    2  A    between atoms: C_5  and  C_6
REMARK    3  A    between atoms: C_6  and  N_7
REMARK    4  A    between atoms: C_8  and  C_10
REMARK    5  A    between atoms: C_15  and  C_17
REMARK    6  A    between atoms: C_17  and  C_18
REMARK    7  A    between atoms: C_18  and  C_19
REMARK    8  A    between atoms: C_18  and  C_25
REMARK                            x       y       z     vdW  Elec       q    Type
REMARK                         _______ _______ _______ _____ _____    ______ ____
ROOT
ATOM      1  C   UNL     1       0.422   9.595  19.671  0.00  0.00    +0.000 C 
ATOM      2  C   UNL     1       0.433   9.965  21.169  0.00  0.00    +0.000 C 
ATOM      3  C   UNL     1       0.632   8.607  21.787  0.00  0.00    +0.000 C 
ATOM      4  C   UNL     1       1.718   8.009  20.890  0.00  0.00    +0.000 C 
ATOM      5  N   UNL     1       1.490   8.594  19.580  0.00  0.00    +0.000 N 
ATOM      6  C   UNL     1       2.227   8.289  18.450  0.00  0.00    +0.000 C 
ATOM      7  O   UNL     1       1.982   8.876  17.406  0.00  0.00    +0.000 OA
ENDROOT
BRANCH   1   9
ATOM      8  N   UNL     1       1.583  11.696  18.881  0.00  0.00    +0.000 N 
ATOM      9  C   UNL     1       0.543  10.820  18.771  0.00  0.00    +0.000 C 
ATOM     10  O   UNL     1      -0.347  11.026  17.956  0.00  0.00    +0.000 OA
ATOM     11  H   UNL     1       2.298  11.557  19.605  0.00  0.00    +0.000 HD
BRANCH   8  12
ATOM     12  C   UNL     1       1.761  12.856  18.030  0.00  0.00    +0.000 C 
BRANCH  12  16
ATOM     13  C   UNL     1       3.847  16.572  18.953  0.00  0.00    +0.000 C 
ATOM     14  C   UNL     1       4.653  15.260  19.009  0.00  0.00    +0.000 C 
ATOM     15  C   UNL     1       3.915  14.157  18.249  0.00  0.00    +0.000 C 
ATOM     16  C   UNL     1       2.498  13.942  18.818  0.00  0.00    +0.000 C 
ATOM     17  C   UNL     1       1.699  15.261  18.799  0.00  0.00    +0.000 C 
ATOM     18  C   UNL     1       2.453  16.355  19.567  0.00  0.00    +0.000 C 
BRANCH  13  19
ATOM     19  N   UNL     1       4.548  17.641  19.662  0.00  0.00    +0.000 NA
ATOM     20  H   UNL     1       4.034  18.541  19.521  0.00  0.00    +0.000 HD
ATOM     21  H   UNL     1       5.517  17.747  19.284  0.00  0.00    +0.000 HD
ENDBRANCH  13  19
ENDBRANCH  12  16
ENDBRANCH   8  12
ENDBRANCH   1   9
BRANCH   6  22
ATOM     22  C   UNL     1       3.435   7.331  18.492  0.00  0.00    +0.000 C 
BRANCH  22  23
ATOM     23  C   UNL     1       3.261   5.843  17.951  0.00  0.00    +0.000 C 
BRANCH  23  24
ATOM     24  C   UNL     1       4.626   5.030  18.141  0.00  0.00    +0.000 C 
ATOM     25  C   UNL     1       4.960   3.961  17.054  0.00  0.00    +0.000 C 
ATOM     26  C   UNL     1       5.277   4.578  15.670  0.00  0.00    +0.000 C 
ATOM     27  C   UNL     1       6.468   5.509  15.752  0.00  0.00    +0.000 C 
ATOM     28  C   UNL     1       6.201   6.596  16.796  0.00  0.00    +0.000 C 
ATOM     29  C   UNL     1       5.899   5.944  18.164  0.00  0.00    +0.000 C 
ENDBRANCH  23  24
BRANCH  23  30
ATOM     30  C   UNL     1       1.865   5.243  18.515  0.00  0.00    +0.000 C 
ATOM     31  C   UNL     1       1.296   4.113  17.587  0.00  0.00    +0.000 C 
ATOM     32  C   UNL     1       2.142   2.823  17.674  0.00  0.00    +0.000 C 
ATOM     33  C   UNL     1       2.124   2.278  19.110  0.00  0.00    +0.000 C 
ATOM     34  C   UNL     1       2.567   3.340  20.120  0.00  0.00    +0.000 C 
ATOM     35  C   UNL     1       1.768   4.643  19.949  0.00  0.00    +0.000 C 
ENDBRANCH  23  30
ENDBRANCH  22  23
ENDBRANCH   6  22
TORSDOF 8
ENDMDL
MODEL 8
REMARK VINA RESULT:      -7.3      0.884      3.196
REMARK  Name = 
REMARK  8 active torsions:
REMARK  status: ('A' for Active; 'I' for Inactive)
REMARK    1  A    between atoms: N_1  and  C_2
REMARK    2  A    between atoms: C_5  and  C_6
REMARK    3  A    between atoms: C_6  and  N_7
REMARK    4  A    between atoms: C_8  and  C_10
REMARK    5  A    between atoms: C_15  and  C_17
REMARK    6  A    between atoms: C_17  and  C_18
REMARK    7  A    between atoms: C_18  and  C_19
REMARK    8  A    between atoms: C_18  and  C_25
REMARK                            x       y       z     vdW  Elec       q    Type
REMARK                         _______ _______ _______ _____ _____    ______ ____
ROOT
ATOM      1  C   UNL     1       0.463   9.689  19.788  0.00  0.00    +0.000 C 
ATOM      2  C   UNL     1       0.441  10.166  21.254  0.00  0.00    +0.000 C 
ATOM      3  C   UNL     1       0.451   8.845  21.976  0.00  0.00    +0.000 C 
ATOM      4  C   UNL     1       1.505   8.065  21.187  0.00  0.00    +0.000 C 
ATOM      5  N   UNL     1       1.412   8.571  19.829  0.00  0.00    +0.000 N 
ATOM      6  C   UNL     1       2.166   8.103  18.768  0.00  0.00    +0.000 C 
ATOM      7  O   UNL     1       2.043   8.633  17.673  0.00  0.00    +0.000 OA
ENDROOT
BRANCH   1   9
ATOM      8  N   UNL     1       1.949  11.507  18.853  0.00  0.00    +0.000 N 
ATOM      9  C   UNL     1       0.769  10.821  18.814  0.00  0.00    +0.000 C 
ATOM     10  O   UNL     1      -0.094  11.135  18.005  0.00  0.00    +0.000 OA
ATOM     11  H   UNL     1       2.649  11.285  19.570  0.00  0.00    +0.000 HD
BRANCH   8  12
ATOM     12  C   UNL     1       2.301  12.568  17.931  0.00  0.00    +0.000 C 
BRANCH  12  16
ATOM     13  C   UNL     1       3.540  16.120  20.136  0.00  0.00    +0.000 C 
ATOM     14  C   UNL     1       2.663  15.086  20.869  0.00  0.00    +0.000 C 
ATOM     15  C   UNL     1       2.698  13.749  20.129  0.00  0.00    +0.000 C 
ATOM     16  C   UNL     1       2.233  13.908  18.667  0.00  0.00    +0.000 C 
ATOM     17  C   UNL     1       3.083  14.970  17.939  0.00  0.00    +0.000 C 
ATOM     18  C   UNL     1       3.035  16.305  18.694  0.00  0.00    +0.000 C 
BRANCH  13  19
ATOM     19  N   UNL     1       3.529  17.401  20.841  0.00  0.00    +0.000 NA
ATOM     20  H   UNL     1       4.367  17.958  20.555  0.00  0.00    +0.000 HD
ATOM     21  H   UNL     1       3.569  17.242  21.874  0.00  0.00    +0.000 HD
ENDBRANCH  13  19
ENDBRANCH  12  16
ENDBRANCH   8  12
ENDBRANCH   1   9
BRANCH   6  22
ATOM     22  C   UNL     1       3.252   7.022  18.946  0.00  0.00    +0.000 C 
BRANCH  22  23
ATOM     23  C   UNL     1       3.470   5.947  17.792  0.00  0.00    +0.000 C 
BRANCH  23  24
ATOM     24  C   UNL     1       4.579   6.467  16.764  0.00  0.00    +0.000 C 
ATOM     25  C   UNL     1       5.899   7.027  17.381  0.00  0.00    +0.000 C 
ATOM     26  C   UNL     1       6.755   5.941  18.078  0.00  0.00    +0.000 C 
ATOM     27  C   UNL     1       7.153   4.856  17.101  0.00  0.00    +0.000 C 
ATOM     28  C   UNL     1       5.900   4.252  16.464  0.00  0.00    +0.000 C 
ATOM     29  C   UNL     1       5.077   5.360  15.771  0.00  0.00    +0.000 C 
ENDBRANCH  23  24
BRANCH  23  30
ATOM     30  C   UNL     1       3.602   4.478  18.466  0.00  0.00    +0.000 C 
ATOM     31  C   UNL     1       3.269   4.504  19.999  0.00  0.00    +0.000 C 
ATOM     32  C   UNL     1       1.761   4.730  20.251  0.00  0.00    +0.000 C 
ATOM     33  C   UNL     1       0.947   3.583  19.634  0.00  0.00    +0.000 C 
ATOM     34  C   UNL     1       1.272   3.399  18.149  0.00  0.00    +0.000 C 
ATOM     35  C   UNL     1       2.788   3.268  17.920  0.00  0.00    +0.000 C 
ENDBRANCH  23  30
ENDBRANCH  22  23
ENDBRANCH   6  22
TORSDOF 8
ENDMDL
MODEL 9
REMARK VINA RESULT:      -7.2      0.949      3.253
REMARK  Name = 
REMARK  8 active torsions:
REMARK  status: ('A' for Active; 'I' for Inactive)
REMARK    1  A    between atoms: N_1  and  C_2
REMARK    2  A    between atoms: C_5  and  C_6
REMARK    3  A    between atoms: C_6  and  N_7
REMARK    4  A    between atoms: C_8  and  C_10
REMARK    5  A    between atoms: C_15  and  C_17
REMARK    6  A    between atoms: C_17  and  C_18
REMARK    7  A    between atoms: C_18  and  C_19
REMARK    8  A    between atoms: C_18  and  C_25
REMARK                            x       y       z     vdW  Elec       q    Type
REMARK                         _______ _______ _______ _____ _____    ______ ____
ROOT
ATOM      1  C   UNL     1       0.456   9.676  19.948  0.00  0.00    +0.000 C 
ATOM      2  C   UNL     1       0.525  10.237  21.383  0.00  0.00    +0.000 C 
ATOM      3  C   UNL     1       0.499   8.961  22.181  0.00  0.00    +0.000 C 
ATOM      4  C   UNL     1       1.474   8.080  21.396  0.00  0.00    +0.000 C 
ATOM      5  N   UNL     1       1.346   8.512  20.015  0.00  0.00    +0.000 N 
ATOM      6  C   UNL     1       2.025   7.943  18.953  0.00  0.00    +0.000 C 
ATOM      7  O   UNL     1       1.881   8.416  17.835  0.00  0.00    +0.000 OA
ENDROOT
BRANCH   1   9
ATOM      8  N   UNL     1       1.919  11.477  18.946  0.00  0.00    +0.000 N 
ATOM      9  C   UNL     1       0.776  10.732  18.896  0.00  0.00    +0.000 C 
ATOM     10  O   UNL     1      -0.044  10.930  18.009  0.00  0.00    +0.000 OA
ATOM     11  H   UNL     1       2.579  11.354  19.723  0.00  0.00    +0.000 HD
BRANCH   8  12
ATOM     12  C   UNL     1       2.285  12.469  17.956  0.00  0.00    +0.000 C 
BRANCH  12  16
ATOM     13  C   UNL     1       3.696  16.041  20.021  0.00  0.00    +0.000 C 
ATOM     14  C   UNL     1       2.712  15.119  20.767  0.00  0.00    +0.000 C 
ATOM     15  C   UNL     1       2.677  13.742  20.103  0.00  0.00    +0.000 C 
ATOM     16  C   UNL     1       2.288  13.851  18.614  0.00  0.00    +0.000 C 
ATOM     17  C   UNL     1       3.247  14.803  17.870  0.00  0.00    +0.000 C 
ATOM     18  C   UNL     1       3.268  16.179  18.549  0.00  0.00    +0.000 C 
BRANCH  13  19
ATOM     19  N   UNL     1       3.752  17.358  20.654  0.00  0.00    +0.000 NA
ATOM     20  H   UNL     1       4.674  17.468  21.136  0.00  0.00    +0.000 HD
ATOM     21  H   UNL     1       2.990  17.447  21.365  0.00  0.00    +0.000 HD
ENDBRANCH  13  19
ENDBRANCH  12  16
ENDBRANCH   8  12
ENDBRANCH   1   9
BRANCH   6  22
ATOM     22  C   UNL     1       3.061   6.817  19.150  0.00  0.00    +0.000 C 
BRANCH  22  23
ATOM     23  C   UNL     1       2.857   5.436  18.382  0.00  0.00    +0.000 C 
BRANCH  23  24
ATOM     24  C   UNL     1       4.234   4.623  18.346  0.00  0.00    +0.000 C 
ATOM     25  C   UNL     1       4.599   3.925  16.999  0.00  0.00    +0.000 C 
ATOM     26  C   UNL     1       4.919   4.925  15.861  0.00  0.00    +0.000 C 
ATOM     27  C   UNL     1       6.091   5.809  16.230  0.00  0.00    +0.000 C 
ATOM     28  C   UNL     1       5.794   6.537  17.543  0.00  0.00    +0.000 C 
ATOM     29  C   UNL     1       5.490   5.509  18.655  0.00  0.00    +0.000 C 
ENDBRANCH  23  24
BRANCH  23  30
ATOM     30  C   UNL     1       1.503   4.731  18.927  0.00  0.00    +0.000 C 
ATOM     31  C   UNL     1       1.420   3.221  18.511  0.00  0.00    +0.000 C 
ATOM     32  C   UNL     1       2.445   2.359  19.283  0.00  0.00    +0.000 C 
ATOM     33  C   UNL     1       2.160   2.427  20.790  0.00  0.00    +0.000 C 
ATOM     34  C   UNL     1       2.114   3.873  21.290  0.00  0.00    +0.000 C 
ATOM     35  C   UNL     1       1.154   4.728  20.445  0.00  0.00    +0.000 C 
ENDBRANCH  23  30
ENDBRANCH  22  23
ENDBRANCH   6  22
TORSDOF 8
ENDMDL
