MODEL 1
REMARK VINA RESULT:      -8.9      0.000      0.000
REMARK  Name = 
REMARK  5 active torsions:
REMARK  status: ('A' for Active; 'I' for Inactive)
REMARK    1  A    between atoms: C_4  and  C_5
REMARK    2  A    between atoms: N_13  and  N_14
REMARK    3  A    between atoms: N_14  and  C_15
REMARK    4  A    between atoms: C_20  and  C_21
REMARK    5  A    between atoms: C_21  and  O_23
REMARK                            x       y       z     vdW  Elec       q    Type
REMARK                         _______ _______ _______ _____ _____    ______ ____
ROOT
ATOM      1  O   UNL     1       7.688   6.863  18.320  0.00  0.00    +0.000 OA
ATOM      2  C   UNL     1       7.218   6.064  17.535  0.00  0.00    +0.000 C 
ATOM      3  O   UNL     1       7.412   6.033  16.188  0.00  0.00    +0.000 OA
ATOM      4  C   UNL     1       6.719   4.902  15.751  0.00  0.00    +0.000 C 
ATOM      5  C   UNL     1       6.050   4.180  16.650  0.00  0.00    +0.000 C 
ATOM      6  C   UNL     1       6.302   4.905  17.877  0.00  0.00    +0.000 C 
ATOM      7  N   UNL     1       5.888   4.711  19.084  0.00  0.00    +0.000 NA
ENDROOT
BRANCH   4   8
ATOM      8  C   UNL     1       6.769   4.607  14.313  0.00  0.00    +0.000 A 
ATOM      9  C   UNL     1       7.663   5.288  13.475  0.00  0.00    +0.000 A 
ATOM     10  C   UNL     1       7.705   5.013  12.104  0.00  0.00    +0.000 A 
ATOM     11  C   UNL     1       6.862   4.049  11.557  0.00  0.00    +0.000 A 
ATOM     12  C   UNL     1       5.977   3.357  12.378  0.00  0.00    +0.000 A 
ATOM     13  C   UNL     1       5.932   3.632  13.747  0.00  0.00    +0.000 A 
ENDBRANCH   4   8
BRANCH   7  14
ATOM     14  N   UNL     1       5.068   3.648  19.323  0.00  0.00    +0.000 N 
ATOM     15  H   UNL     1       5.203   2.750  18.841  0.00  0.00    +0.000 HD
BRANCH  14  16
ATOM     16  C   UNL     1       3.697   3.919  19.578  0.00  0.00    +0.000 A 
ATOM     17  C   UNL     1       3.326   5.001  20.396  0.00  0.00    +0.000 A 
ATOM     18  C   UNL     1       1.992   5.246  20.725  0.00  0.00    +0.000 A 
ATOM     19  C   UNL     1       0.992   4.413  20.243  0.00  0.00    +0.000 A 
ATOM     20  C   UNL     1       1.326   3.326  19.435  0.00  0.00    +0.000 A 
ATOM     21  C   UNL     1       2.674   3.053  19.130  0.00  0.00    +0.000 A 
BRANCH  21  22
ATOM     22  C   UNL     1       3.022   1.871  18.296  0.00  0.00    +0.000 C 
ATOM     23  O   UNL     1       3.866   1.053  18.635  0.00  0.00    +0.000 OA
BRANCH  22  24
ATOM     24  O   UNL     1       2.305   1.750  17.160  0.00  0.00    +0.000 OA
ATOM     25  H   UNL     1       1.868   2.568  16.852  0.00  0.00    +0.000 HD
ENDBRANCH  22  24
ENDBRANCH  21  22
ENDBRANCH  14  16
ENDBRANCH   7  14
TORSDOF 5
ENDMDL
MODEL 2
REMARK VINA RESULT:      -8.9      0.266      1.230
REMARK  Name = 
REMARK  5 active torsions:
REMARK  status: ('A' for Active; 'I' for Inactive)
REMARK    1  A    between atoms: C_4  and  C_5
REMARK    2  A    between atoms: N_13  and  N_14
REMARK    3  A    between atoms: N_14  and  C_15
REMARK    4  A    between atoms: C_20  and  C_21
REMARK    5  A    between atoms: C_21  and  O_23
REMARK                            x       y       z     vdW  Elec       q    Type
REMARK                         _______ _______ _______ _____ _____    ______ ____
ROOT
ATOM      1  O   UNL     1       7.667   6.671  18.496  0.00  0.00    +0.000 OA
ATOM      2  C   UNL     1       7.213   5.911  17.665  0.00  0.00    +0.000 C 
ATOM      3  O   UNL     1       7.427   5.951  16.320  0.00  0.00    +0.000 OA
ATOM      4  C   UNL     1       6.747   4.841  15.816  0.00  0.00    +0.000 C 
ATOM      5  C   UNL     1       6.069   4.070  16.667  0.00  0.00    +0.000 C 
ATOM      6  C   UNL     1       6.299   4.733  17.933  0.00  0.00    +0.000 C 
ATOM      7  N   UNL     1       5.868   4.474  19.122  0.00  0.00    +0.000 NA
ENDROOT
BRANCH   4   8
ATOM      8  C   UNL     1       6.820   4.620  14.365  0.00  0.00    +0.000 A 
ATOM      9  C   UNL     1       5.991   3.675  13.745  0.00  0.00    +0.000 A 
ATOM     10  C   UNL     1       6.065   3.458  12.365  0.00  0.00    +0.000 A 
ATOM     11  C   UNL     1       6.962   4.189  11.589  0.00  0.00    +0.000 A 
ATOM     12  C   UNL     1       7.784   5.138  12.189  0.00  0.00    +0.000 A 
ATOM     13  C   UNL     1       7.712   5.354  13.568  0.00  0.00    +0.000 A 
ENDBRANCH   4   8
BRANCH   7  14
ATOM     14  N   UNL     1       5.050   3.397  19.294  0.00  0.00    +0.000 N 
ATOM     15  H   UNL     1       5.169   2.541  18.735  0.00  0.00    +0.000 HD
BRANCH  14  16
ATOM     16  C   UNL     1       3.687   3.648  19.606  0.00  0.00    +0.000 A 
ATOM     17  C   UNL     1       3.347   4.569  20.612  0.00  0.00    +0.000 A 
ATOM     18  C   UNL     1       2.021   4.780  20.993  0.00  0.00    +0.000 A 
ATOM     19  C   UNL     1       0.999   4.073  20.375  0.00  0.00    +0.000 A 
ATOM     20  C   UNL     1       1.302   3.146  19.378  0.00  0.00    +0.000 A 
ATOM     21  C   UNL     1       2.641   2.903  19.016  0.00  0.00    +0.000 A 
BRANCH  21  22
ATOM     22  C   UNL     1       2.957   1.887  17.976  0.00  0.00    +0.000 C 
ATOM     23  O   UNL     1       2.528   1.961  16.832  0.00  0.00    +0.000 OA
BRANCH  22  24
ATOM     24  O   UNL     1       3.784   0.902  18.381  0.00  0.00    +0.000 OA
ATOM     25  H   UNL     1       4.192   1.033  19.259  0.00  0.00    +0.000 HD
ENDBRANCH  22  24
ENDBRANCH  21  22
ENDBRANCH  14  16
ENDBRANCH   7  14
TORSDOF 5
ENDMDL
MODEL 3
REMARK VINA RESULT:      -8.8      1.139      1.168
REMARK  Name = 
REMARK  5 active torsions:
REMARK  status: ('A' for Active; 'I' for Inactive)
REMARK    1  A    between atoms: C_4  and  C_5
REMARK    2  A    between atoms: N_13  and  N_14
REMARK    3  A    between atoms: N_14  and  C_15
REMARK    4  A    between atoms: C_20  and  C_21
REMARK    5  A    between atoms: C_21  and  O_23
REMARK                            x       y       z     vdW  Elec       q    Type
REMARK                         _______ _______ _______ _____ _____    ______ ____
ROOT
ATOM      1  O   UNL     1       7.975   4.735  18.849  0.00  0.00    +0.000 OA
ATOM      2  C   UNL     1       7.285   4.732  17.850  0.00  0.00    +0.000 C 
ATOM      3  O   UNL     1       7.714   4.618  16.563  0.00  0.00    +0.000 OA
ATOM      4  C   UNL     1       6.548   4.604  15.795  0.00  0.00    +0.000 C 
ATOM      5  C   UNL     1       5.376   4.727  16.419  0.00  0.00    +0.000 C 
ATOM      6  C   UNL     1       5.775   4.851  17.804  0.00  0.00    +0.000 C 
ATOM      7  N   UNL     1       5.082   5.033  18.879  0.00  0.00    +0.000 NA
ENDROOT
BRANCH   4   8
ATOM      8  C   UNL     1       6.711   4.472  14.342  0.00  0.00    +0.000 A 
ATOM      9  C   UNL     1       7.662   5.240  13.657  0.00  0.00    +0.000 A 
ATOM     10  C   UNL     1       7.812   5.121  12.272  0.00  0.00    +0.000 A 
ATOM     11  C   UNL     1       7.020   4.225  11.556  0.00  0.00    +0.000 A 
ATOM     12  C   UNL     1       6.079   3.448  12.224  0.00  0.00    +0.000 A 
ATOM     13  C   UNL     1       5.926   3.568  13.607  0.00  0.00    +0.000 A 
ENDBRANCH   4   8
BRANCH   7  14
ATOM     14  N   UNL     1       3.727   5.129  18.767  0.00  0.00    +0.000 N 
ATOM     15  H   UNL     1       3.269   6.031  18.580  0.00  0.00    +0.000 HD
BRANCH  14  16
ATOM     16  C   UNL     1       2.937   4.288  19.595  0.00  0.00    +0.000 A 
ATOM     17  C   UNL     1       2.640   4.668  20.916  0.00  0.00    +0.000 A 
ATOM     18  C   UNL     1       1.931   3.828  21.776  0.00  0.00    +0.000 A 
ATOM     19  C   UNL     1       1.501   2.584  21.336  0.00  0.00    +0.000 A 
ATOM     20  C   UNL     1       1.786   2.173  20.035  0.00  0.00    +0.000 A 
ATOM     21  C   UNL     1       2.532   3.001  19.174  0.00  0.00    +0.000 A 
BRANCH  21  22
ATOM     22  C   UNL     1       2.861   2.538  17.799  0.00  0.00    +0.000 C 
ATOM     23  O   UNL     1       3.608   1.594  17.584  0.00  0.00    +0.000 OA
BRANCH  22  24
ATOM     24  O   UNL     1       2.239   3.214  16.812  0.00  0.00    +0.000 OA
ATOM     25  H   UNL     1       2.674   3.176  15.938  0.00  0.00    +0.000 HD
ENDBRANCH  22  24
ENDBRANCH  21  22
ENDBRANCH  14  16
ENDBRANCH   7  14
TORSDOF 5
ENDMDL
MODEL 4
REMARK VINA RESULT:      -8.7      1.352      1.619
REMARK  Name = 
REMARK  5 active torsions:
REMARK  status: ('A' for Active; 'I' for Inactive)
REMARK    1  A    between atoms: C_4  and  C_5
REMARK    2  A    between atoms: N_13  and  N_14
REMARK    3  A    between atoms: N_14  and  C_15
REMARK    4  A    between atoms: C_20  and  C_21
REMARK    5  A    between atoms: C_21  and  O_23
REMARK                            x       y       z     vdW  Elec       q    Type
REMARK                         _______ _______ _______ _____ _____    ______ ____
ROOT
ATOM      1  O   UNL     1       7.805   4.960  19.118  0.00  0.00    +0.000 OA
ATOM      2  C   UNL     1       7.146   4.939  18.098  0.00  0.00    +0.000 C 
ATOM      3  O   UNL     1       7.613   4.775  16.830  0.00  0.00    +0.000 OA
ATOM      4  C   UNL     1       6.471   4.762  16.026  0.00  0.00    +0.000 C 
ATOM      5  C   UNL     1       5.283   4.929  16.608  0.00  0.00    +0.000 C 
ATOM      6  C   UNL     1       5.641   5.089  18.001  0.00  0.00    +0.000 C 
ATOM      7  N   UNL     1       4.920   5.321  19.047  0.00  0.00    +0.000 NA
ENDROOT
BRANCH   4   8
ATOM      8  C   UNL     1       6.675   4.579  14.583  0.00  0.00    +0.000 A 
ATOM      9  C   UNL     1       7.644   5.327  13.899  0.00  0.00    +0.000 A 
ATOM     10  C   UNL     1       7.834   5.160  12.524  0.00  0.00    +0.000 A 
ATOM     11  C   UNL     1       7.065   4.237  11.818  0.00  0.00    +0.000 A 
ATOM     12  C   UNL     1       6.108   3.480  12.485  0.00  0.00    +0.000 A 
ATOM     13  C   UNL     1       5.915   3.648  13.859  0.00  0.00    +0.000 A 
ENDBRANCH   4   8
BRANCH   7  14
ATOM     14  N   UNL     1       3.572   5.442  18.889  0.00  0.00    +0.000 N 
ATOM     15  H   UNL     1       3.133   6.359  18.729  0.00  0.00    +0.000 HD
BRANCH  14  16
ATOM     16  C   UNL     1       2.740   4.574  19.645  0.00  0.00    +0.000 A 
ATOM     17  C   UNL     1       2.904   4.467  21.037  0.00  0.00    +0.000 A 
ATOM     18  C   UNL     1       2.153   3.567  21.795  0.00  0.00    +0.000 A 
ATOM     19  C   UNL     1       1.218   2.749  21.178  0.00  0.00    +0.000 A 
ATOM     20  C   UNL     1       1.036   2.823  19.798  0.00  0.00    +0.000 A 
ATOM     21  C   UNL     1       1.816   3.704  19.024  0.00  0.00    +0.000 A 
BRANCH  21  22
ATOM     22  C   UNL     1       1.638   3.751  17.547  0.00  0.00    +0.000 C 
ATOM     23  O   UNL     1       0.743   4.389  17.012  0.00  0.00    +0.000 OA
BRANCH  22  24
ATOM     24  O   UNL     1       2.566   3.069  16.845  0.00  0.00    +0.000 OA
ATOM     25  H   UNL     1       3.436   2.977  17.279  0.00  0.00    +0.000 HD
ENDBRANCH  22  24
ENDBRANCH  21  22
ENDBRANCH  14  16
ENDBRANCH   7  14
TORSDOF 5
ENDMDL
MODEL 5
REMARK VINA RESULT:      -8.6      1.298      1.524
REMARK  Name = 
REMARK  5 active torsions:
REMARK  status: ('A' for Active; 'I' for Inactive)
REMARK    1  A    between atoms: C_4  and  C_5
REMARK    2  A    between atoms: N_13  and  N_14
REMARK    3  A    between atoms: N_14  and  C_15
REMARK    4  A    between atoms: C_20  and  C_21
REMARK    5  A    between atoms: C_21  and  O_23
REMARK                            x       y       z     vdW  Elec       q    Type
REMARK                         _______ _______ _______ _____ _____    ______ ____
ROOT
ATOM      1  O   UNL     1       7.458   6.177  18.764  0.00  0.00    +0.000 OA
ATOM      2  C   UNL     1       7.044   5.523  17.828  0.00  0.00    +0.000 C 
ATOM      3  O   UNL     1       7.359   5.691  16.514  0.00  0.00    +0.000 OA
ATOM      4  C   UNL     1       6.685   4.665  15.849  0.00  0.00    +0.000 C 
ATOM      5  C   UNL     1       5.923   3.838  16.565  0.00  0.00    +0.000 C 
ATOM      6  C   UNL     1       6.077   4.359  17.907  0.00  0.00    +0.000 C 
ATOM      7  N   UNL     1       5.551   3.997  19.028  0.00  0.00    +0.000 NA
ENDROOT
BRANCH   4   8
ATOM      8  C   UNL     1       6.859   4.590  14.393  0.00  0.00    +0.000 A 
ATOM      9  C   UNL     1       7.753   5.447  13.735  0.00  0.00    +0.000 A 
ATOM     10  C   UNL     1       7.913   5.383  12.348  0.00  0.00    +0.000 A 
ATOM     11  C   UNL     1       7.188   4.455  11.602  0.00  0.00    +0.000 A 
ATOM     12  C   UNL     1       6.305   3.591  12.242  0.00  0.00    +0.000 A 
ATOM     13  C   UNL     1       6.142   3.656  13.627  0.00  0.00    +0.000 A 
ENDBRANCH   4   8
BRANCH   7  14
ATOM     14  N   UNL     1       4.691   2.939  19.028  0.00  0.00    +0.000 N 
ATOM     15  H   UNL     1       4.572   2.347  18.196  0.00  0.00    +0.000 HD
BRANCH  14  16
ATOM     16  C   UNL     1       3.486   3.071  19.769  0.00  0.00    +0.000 A 
ATOM     17  C   UNL     1       3.399   2.569  21.079  0.00  0.00    +0.000 A 
ATOM     18  C   UNL     1       2.206   2.616  21.803  0.00  0.00    +0.000 A 
ATOM     19  C   UNL     1       1.068   3.168  21.233  0.00  0.00    +0.000 A 
ATOM     20  C   UNL     1       1.118   3.669  19.933  0.00  0.00    +0.000 A 
ATOM     21  C   UNL     1       2.309   3.591  19.185  0.00  0.00    +0.000 A 
BRANCH  21  22
ATOM     22  C   UNL     1       2.342   4.096  17.786  0.00  0.00    +0.000 C 
ATOM     23  O   UNL     1       2.296   3.351  16.817  0.00  0.00    +0.000 OA
BRANCH  22  24
ATOM     24  O   UNL     1       2.386   5.439  17.671  0.00  0.00    +0.000 OA
ATOM     25  H   UNL     1       2.605   5.777  16.781  0.00  0.00    +0.000 HD
ENDBRANCH  22  24
ENDBRANCH  21  22
ENDBRANCH  14  16
ENDBRANCH   7  14
TORSDOF 5
ENDMDL
MODEL 6
REMARK VINA RESULT:      -8.5      1.702      2.189
REMARK  Name = 
REMARK  5 active torsions:
REMARK  status: ('A' for Active; 'I' for Inactive)
REMARK    1  A    between atoms: C_4  and  C_5
REMARK    2  A    between atoms: N_13  and  N_14
REMARK    3  A    between atoms: N_14  and  C_15
REMARK    4  A    between atoms: C_20  and  C_21
REMARK    5  A    between atoms: C_21  and  O_23
REMARK                            x       y       z     vdW  Elec       q    Type
REMARK                         _______ _______ _______ _____ _____    ______ ____
ROOT
ATOM      1  O   UNL     1       8.242   4.763  18.902  0.00  0.00    +0.000 OA
ATOM      2  C   UNL     1       7.510   4.610  17.945  0.00  0.00    +0.000 C 
ATOM      3  O   UNL     1       7.860   4.683  16.631  0.00  0.00    +0.000 OA
ATOM      4  C   UNL     1       6.692   4.374  15.931  0.00  0.00    +0.000 C 
ATOM      5  C   UNL     1       5.581   4.131  16.625  0.00  0.00    +0.000 C 
ATOM      6  C   UNL     1       6.027   4.299  17.992  0.00  0.00    +0.000 C 
ATOM      7  N   UNL     1       5.391   4.227  19.112  0.00  0.00    +0.000 NA
ENDROOT
BRANCH   4   8
ATOM      8  C   UNL     1       6.781   4.361  14.465  0.00  0.00    +0.000 A 
ATOM      9  C   UNL     1       5.973   3.499  13.708  0.00  0.00    +0.000 A 
ATOM     10  C   UNL     1       6.063   3.479  12.313  0.00  0.00    +0.000 A 
ATOM     11  C   UNL     1       6.953   4.326  11.657  0.00  0.00    +0.000 A 
ATOM     12  C   UNL     1       7.753   5.195  12.393  0.00  0.00    +0.000 A 
ATOM     13  C   UNL     1       7.667   5.214  13.787  0.00  0.00    +0.000 A 
ENDBRANCH   4   8
BRANCH   7  14
ATOM     14  N   UNL     1       4.059   3.940  19.083  0.00  0.00    +0.000 N 
ATOM     15  H   UNL     1       3.656   3.347  18.346  0.00  0.00    +0.000 HD
BRANCH  14  16
ATOM     16  C   UNL     1       3.158   4.954  19.506  0.00  0.00    +0.000 A 
ATOM     17  C   UNL     1       3.261   6.257  18.989  0.00  0.00    +0.000 A 
ATOM     18  C   UNL     1       2.440   7.291  19.442  0.00  0.00    +0.000 A 
ATOM     19  C   UNL     1       1.493   7.046  20.427  0.00  0.00    +0.000 A 
ATOM     20  C   UNL     1       1.370   5.767  20.967  0.00  0.00    +0.000 A 
ATOM     21  C   UNL     1       2.220   4.729  20.539  0.00  0.00    +0.000 A 
BRANCH  21  22
ATOM     22  C   UNL     1       2.104   3.376  21.147  0.00  0.00    +0.000 C 
ATOM     23  O   UNL     1       3.051   2.809  21.676  0.00  0.00    +0.000 OA
BRANCH  22  24
ATOM     24  O   UNL     1       0.867   2.842  21.105  0.00  0.00    +0.000 OA
ATOM     25  H   UNL     1       0.828   1.892  20.879  0.00  0.00    +0.000 HD
ENDBRANCH  22  24
ENDBRANCH  21  22
ENDBRANCH  14  16
ENDBRANCH   7  14
TORSDOF 5
ENDMDL
MODEL 7
REMARK VINA RESULT:      -8.5      2.126      2.770
REMARK  Name = 
REMARK  5 active torsions:
REMARK  status: ('A' for Active; 'I' for Inactive)
REMARK    1  A    between atoms: C_4  and  C_5
REMARK    2  A    between atoms: N_13  and  N_14
REMARK    3  A    between atoms: N_14  and  C_15
REMARK    4  A    between atoms: C_20  and  C_21
REMARK    5  A    between atoms: C_21  and  O_23
REMARK                            x       y       z     vdW  Elec       q    Type
REMARK                         _______ _______ _______ _____ _____    ______ ____
ROOT
ATOM      1  O   UNL     1       8.283   4.543  18.774  0.00  0.00    +0.000 OA
ATOM      2  C   UNL     1       7.570   4.686  17.801  0.00  0.00    +0.000 C 
ATOM      3  O   UNL     1       7.910   4.464  16.501  0.00  0.00    +0.000 OA
ATOM      4  C   UNL     1       6.741   4.707  15.777  0.00  0.00    +0.000 C 
ATOM      5  C   UNL     1       5.653   5.099  16.441  0.00  0.00    +0.000 C 
ATOM      6  C   UNL     1       6.125   5.145  17.808  0.00  0.00    +0.000 C 
ATOM      7  N   UNL     1       5.536   5.492  18.903  0.00  0.00    +0.000 NA
ENDROOT
BRANCH   4   8
ATOM      8  C   UNL     1       6.811   4.524  14.322  0.00  0.00    +0.000 A 
ATOM      9  C   UNL     1       7.698   5.288  13.548  0.00  0.00    +0.000 A 
ATOM     10  C   UNL     1       7.759   5.121  12.162  0.00  0.00    +0.000 A 
ATOM     11  C   UNL     1       6.943   4.183  11.532  0.00  0.00    +0.000 A 
ATOM     12  C   UNL     1       6.066   3.411  12.288  0.00  0.00    +0.000 A 
ATOM     13  C   UNL     1       6.002   3.578  13.673  0.00  0.00    +0.000 A 
ENDBRANCH   4   8
BRANCH   7  14
ATOM     14  N   UNL     1       4.235   5.892  18.839  0.00  0.00    +0.000 N 
ATOM     15  H   UNL     1       3.981   6.889  18.856  0.00  0.00    +0.000 HD
BRANCH  14  16
ATOM     16  C   UNL     1       3.264   5.080  19.484  0.00  0.00    +0.000 A 
ATOM     17  C   UNL     1       3.350   3.678  19.414  0.00  0.00    +0.000 A 
ATOM     18  C   UNL     1       2.370   2.856  19.972  0.00  0.00    +0.000 A 
ATOM     19  C   UNL     1       1.276   3.417  20.616  0.00  0.00    +0.000 A 
ATOM     20  C   UNL     1       1.155   4.804  20.697  0.00  0.00    +0.000 A 
ATOM     21  C   UNL     1       2.123   5.638  20.103  0.00  0.00    +0.000 A 
BRANCH  21  22
ATOM     22  C   UNL     1       1.967   7.116  20.164  0.00  0.00    +0.000 C 
ATOM     23  O   UNL     1       2.081   7.831  19.177  0.00  0.00    +0.000 OA
BRANCH  22  24
ATOM     24  O   UNL     1       1.650   7.601  21.382  0.00  0.00    +0.000 OA
ATOM     25  H   UNL     1       1.350   6.937  22.032  0.00  0.00    +0.000 HD
ENDBRANCH  22  24
ENDBRANCH  21  22
ENDBRANCH  14  16
ENDBRANCH   7  14
TORSDOF 5
ENDMDL
MODEL 8
REMARK VINA RESULT:      -8.4      1.562      1.879
REMARK  Name = 
REMARK  5 active torsions:
REMARK  status: ('A' for Active; 'I' for Inactive)
REMARK    1  A    between atoms: C_4  and  C_5
REMARK    2  A    between atoms: N_13  and  N_14
REMARK    3  A    between atoms: N_14  and  C_15
REMARK    4  A    between atoms: C_20  and  C_21
REMARK    5  A    between atoms: C_21  and  O_23
REMARK                            x       y       z     vdW  Elec       q    Type
REMARK                         _______ _______ _______ _____ _____    ______ ____
ROOT
ATOM      1  O   UNL     1       8.280   5.032  18.849  0.00  0.00    +0.000 OA
ATOM      2  C   UNL     1       7.533   4.793  17.921  0.00  0.00    +0.000 C 
ATOM      3  O   UNL     1       7.842   4.836  16.595  0.00  0.00    +0.000 OA
ATOM      4  C   UNL     1       6.679   4.423  15.942  0.00  0.00    +0.000 C 
ATOM      5  C   UNL     1       5.606   4.133  16.679  0.00  0.00    +0.000 C 
ATOM      6  C   UNL     1       6.078   4.384  18.024  0.00  0.00    +0.000 C 
ATOM      7  N   UNL     1       5.479   4.314  19.165  0.00  0.00    +0.000 NA
ENDROOT
BRANCH   4   8
ATOM      8  C   UNL     1       6.728   4.357  14.476  0.00  0.00    +0.000 A 
ATOM      9  C   UNL     1       7.632   5.150  13.755  0.00  0.00    +0.000 A 
ATOM     10  C   UNL     1       7.674   5.094  12.359  0.00  0.00    +0.000 A 
ATOM     11  C   UNL     1       6.818   4.240  11.666  0.00  0.00    +0.000 A 
ATOM     12  C   UNL     1       5.923   3.439  12.368  0.00  0.00    +0.000 A 
ATOM     13  C   UNL     1       5.878   3.496  13.763  0.00  0.00    +0.000 A 
ENDBRANCH   4   8
BRANCH   7  14
ATOM     14  N   UNL     1       4.169   3.938  19.187  0.00  0.00    +0.000 N 
ATOM     15  H   UNL     1       3.792   3.275  18.496  0.00  0.00    +0.000 HD
BRANCH  14  16
ATOM     16  C   UNL     1       3.210   4.913  19.573  0.00  0.00    +0.000 A 
ATOM     17  C   UNL     1       3.278   6.219  19.056  0.00  0.00    +0.000 A 
ATOM     18  C   UNL     1       2.397   7.217  19.475  0.00  0.00    +0.000 A 
ATOM     19  C   UNL     1       1.424   6.933  20.423  0.00  0.00    +0.000 A 
ATOM     20  C   UNL     1       1.334   5.650  20.961  0.00  0.00    +0.000 A 
ATOM     21  C   UNL     1       2.244   4.649  20.569  0.00  0.00    +0.000 A 
BRANCH  21  22
ATOM     22  C   UNL     1       2.162   3.293  21.175  0.00  0.00    +0.000 C 
ATOM     23  O   UNL     1       2.356   3.092  22.366  0.00  0.00    +0.000 OA
BRANCH  22  24
ATOM     24  O   UNL     1       1.817   2.311  20.318  0.00  0.00    +0.000 OA
ATOM     25  H   UNL     1       0.889   2.326  20.014  0.00  0.00    +0.000 HD
ENDBRANCH  22  24
ENDBRANCH  21  22
ENDBRANCH  14  16
ENDBRANCH   7  14
TORSDOF 5
ENDMDL
MODEL 9
REMARK VINA RESULT:      -8.3      1.000      1.581
REMARK  Name = 
REMARK  5 active torsions:
REMARK  status: ('A' for Active; 'I' for Inactive)
REMARK    1  A    between atoms: C_4  and  C_5
REMARK    2  A    between atoms: N_13  and  N_14
REMARK    3  A    between atoms: N_14  and  C_15
REMARK    4  A    between atoms: C_20  and  C_21
REMARK    5  A    between atoms: C_21  and  O_23
REMARK                            x       y       z     vdW  Elec       q    Type
REMARK                         _______ _______ _______ _____ _____    ______ ____
ROOT
ATOM      1  O   UNL     1       7.977   7.469  18.112  0.00  0.00    +0.000 OA
ATOM      2  C   UNL     1       7.475   6.587  17.445  0.00  0.00    +0.000 C 
ATOM      3  O   UNL     1       7.588   6.420  16.098  0.00  0.00    +0.000 OA
ATOM      4  C   UNL     1       6.890   5.242  15.823  0.00  0.00    +0.000 C 
ATOM      5  C   UNL     1       6.292   4.608  16.832  0.00  0.00    +0.000 C 
ATOM      6  C   UNL     1       6.603   5.460  17.960  0.00  0.00    +0.000 C 
ATOM      7  N   UNL     1       6.267   5.385  19.204  0.00  0.00    +0.000 NA
ENDROOT
BRANCH   4   8
ATOM      8  C   UNL     1       6.859   4.800  14.423  0.00  0.00    +0.000 A 
ATOM      9  C   UNL     1       5.950   3.817  14.005  0.00  0.00    +0.000 A 
ATOM     10  C   UNL     1       5.925   3.389  12.674  0.00  0.00    +0.000 A 
ATOM     11  C   UNL     1       6.800   3.945  11.743  0.00  0.00    +0.000 A 
ATOM     12  C   UNL     1       7.700   4.929  12.140  0.00  0.00    +0.000 A 
ATOM     13  C   UNL     1       7.728   5.355  13.471  0.00  0.00    +0.000 A 
ENDBRANCH   4   8
BRANCH   7  14
ATOM     14  N   UNL     1       5.483   4.343  19.601  0.00  0.00    +0.000 N 
ATOM     15  H   UNL     1       5.867   3.395  19.705  0.00  0.00    +0.000 HD
BRANCH  14  16
ATOM     16  C   UNL     1       4.133   4.329  19.158  0.00  0.00    +0.000 A 
ATOM     17  C   UNL     1       3.418   5.532  19.021  0.00  0.00    +0.000 A 
ATOM     18  C   UNL     1       2.069   5.544  18.662  0.00  0.00    +0.000 A 
ATOM     19  C   UNL     1       1.400   4.350  18.431  0.00  0.00    +0.000 A 
ATOM     20  C   UNL     1       2.078   3.139  18.566  0.00  0.00    +0.000 A 
ATOM     21  C   UNL     1       3.429   3.120  18.963  0.00  0.00    +0.000 A 
BRANCH  21  22
ATOM     22  C   UNL     1       4.133   1.821  19.139  0.00  0.00    +0.000 C 
ATOM     23  O   UNL     1       3.950   0.867  18.394  0.00  0.00    +0.000 OA
BRANCH  22  24
ATOM     24  O   UNL     1       5.017   1.791  20.157  0.00  0.00    +0.000 OA
ATOM     25  H   UNL     1       4.979   0.996  20.722  0.00  0.00    +0.000 HD
ENDBRANCH  22  24
ENDBRANCH  21  22
ENDBRANCH  14  16
ENDBRANCH   7  14
TORSDOF 5
ENDMDL
