MODEL 1
REMARK VINA RESULT:      -7.3      0.000      0.000
REMARK  Name = 
REMARK  6 active torsions:
REMARK  status: ('A' for Active; 'I' for Inactive)
REMARK    1  A    between atoms: C_1  and  C_2
REMARK    2  A    between atoms: C_3  and  C_4
REMARK    3  A    between atoms: C_4  and  C_5
REMARK    4  A    between atoms: C_5  and  C_6
REMARK    5  A    between atoms: C_6  and  C_7
REMARK    6  A    between atoms: N_12  and  C_13
REMARK                            x       y       z     vdW  Elec       q    Type
REMARK                         _______ _______ _______ _____ _____    ______ ____
ROOT
ATOM      1  C   UNL     1       0.892   9.391  18.006  0.00  0.00    +0.000 C 
ATOM      2  C   UNL     1       0.434   9.797  19.379  0.00  0.00    +0.000 C 
ATOM      3  C   UNL     1       0.928   9.291  20.528  0.00  0.00    +0.000 C 
ATOM      4  C   UNL     1       0.431   9.830  21.840  0.00  0.00    +0.000 C 
ATOM      5  O   UNL     1       0.910   9.450  22.905  0.00  0.00    +0.000 OA
ATOM      6  C   UNL     1      -0.654  10.844  21.845  0.00  0.00    +0.000 A 
ATOM      7  C   UNL     1      -1.151  11.352  23.059  0.00  0.00    +0.000 A 
ATOM      8  C   UNL     1      -2.198  12.279  23.070  0.00  0.00    +0.000 A 
ATOM      9  C   UNL     1      -2.766  12.707  21.871  0.00  0.00    +0.000 A 
ATOM     10  C   UNL     1      -2.251  12.237  20.658  0.00  0.00    +0.000 A 
ATOM     11  C   UNL     1      -1.199  11.302  20.651  0.00  0.00    +0.000 A 
ATOM     12  C   UNL     1      -0.660  10.826  19.362  0.00  0.00    +0.000 C 
ATOM     13  O   UNL     1      -1.109  11.263  18.318  0.00  0.00    +0.000 OA
ENDROOT
BRANCH   3  14
ATOM     14  C   UNL     1       2.008   8.199  20.558  0.00  0.00    +0.000 C 
BRANCH  14  15
ATOM     15  C   UNL     1       1.391   6.790  20.704  0.00  0.00    +0.000 C 
BRANCH  15  16
ATOM     16  C   UNL     1       2.211   5.583  20.170  0.00  0.00    +0.000 C 
BRANCH  16  17
ATOM     17  C   UNL     1       2.778   5.793  18.773  0.00  0.00    +0.000 C 
ATOM     18  O   UNL     1       2.011   5.923  17.819  0.00  0.00    +0.000 OA
ATOM     19  N   UNL     1       4.166   5.886  18.601  0.00  0.00    +0.000 N 
ATOM     20  C   UNL     1       4.602   6.231  17.244  0.00  0.00    +0.000 C 
ATOM     21  C   UNL     1       6.071   6.691  17.162  0.00  0.00    +0.000 C 
ATOM     22  N   UNL     1       7.044   5.807  17.835  0.00  0.00    +0.000 NA
ATOM     23  C   UNL     1       7.233   4.543  17.124  0.00  0.00    +0.000 C 
ATOM     24  C   UNL     1       6.597   5.582  19.220  0.00  0.00    +0.000 C 
ATOM     25  C   UNL     1       5.136   5.084  19.365  0.00  0.00    +0.000 C 
ENDBRANCH  16  17
ENDBRANCH  15  16
ENDBRANCH  14  15
ENDBRANCH   3  14
TORSDOF 4
ENDMDL
MODEL 2
REMARK VINA RESULT:      -7.2      1.147      1.532
REMARK  Name = 
REMARK  6 active torsions:
REMARK  status: ('A' for Active; 'I' for Inactive)
REMARK    1  A    between atoms: C_1  and  C_2
REMARK    2  A    between atoms: C_3  and  C_4
REMARK    3  A    between atoms: C_4  and  C_5
REMARK    4  A    between atoms: C_5  and  C_6
REMARK    5  A    between atoms: C_6  and  C_7
REMARK    6  A    between atoms: N_12  and  C_13
REMARK                            x       y       z     vdW  Elec       q    Type
REMARK                         _______ _______ _______ _____ _____    ______ ____
ROOT
ATOM      1  C   UNL     1       1.438   8.983  17.813  0.00  0.00    +0.000 C 
ATOM      2  C   UNL     1       0.936   9.329  19.187  0.00  0.00    +0.000 C 
ATOM      3  C   UNL     1       1.320   8.703  20.319  0.00  0.00    +0.000 C 
ATOM      4  C   UNL     1       0.795   9.189  21.640  0.00  0.00    +0.000 C 
ATOM      5  O   UNL     1       1.179   8.695  22.697  0.00  0.00    +0.000 OA
ATOM      6  C   UNL     1      -0.201  10.289  21.666  0.00  0.00    +0.000 A 
ATOM      7  C   UNL     1      -0.723  10.752  22.888  0.00  0.00    +0.000 A 
ATOM      8  C   UNL     1      -1.689  11.763  22.914  0.00  0.00    +0.000 A 
ATOM      9  C   UNL     1      -2.150  12.322  21.724  0.00  0.00    +0.000 A 
ATOM     10  C   UNL     1      -1.607  11.895  20.507  0.00  0.00    +0.000 A 
ATOM     11  C   UNL     1      -0.637  10.877  20.484  0.00  0.00    +0.000 A 
ATOM     12  C   UNL     1      -0.066  10.447  19.192  0.00  0.00    +0.000 C 
ATOM     13  O   UNL     1      -0.417  10.994  18.162  0.00  0.00    +0.000 OA
ENDROOT
BRANCH   3  14
ATOM     14  C   UNL     1       2.304   7.522  20.322  0.00  0.00    +0.000 C 
BRANCH  14  15
ATOM     15  C   UNL     1       1.567   6.166  20.242  0.00  0.00    +0.000 C 
BRANCH  15  16
ATOM     16  C   UNL     1       1.938   5.211  19.074  0.00  0.00    +0.000 C 
BRANCH  16  17
ATOM     17  C   UNL     1       3.376   4.711  19.119  0.00  0.00    +0.000 C 
ATOM     18  O   UNL     1       3.713   3.909  19.989  0.00  0.00    +0.000 OA
ATOM     19  N   UNL     1       4.280   5.133  18.135  0.00  0.00    +0.000 N 
ATOM     20  C   UNL     1       5.595   4.485  18.181  0.00  0.00    +0.000 C 
ATOM     21  C   UNL     1       6.427   4.676  16.898  0.00  0.00    +0.000 C 
ATOM     22  N   UNL     1       6.526   6.068  16.414  0.00  0.00    +0.000 NA
ATOM     23  C   UNL     1       7.369   6.897  17.275  0.00  0.00    +0.000 C 
ATOM     24  C   UNL     1       5.167   6.624  16.298  0.00  0.00    +0.000 C 
ATOM     25  C   UNL     1       4.292   6.493  17.571  0.00  0.00    +0.000 C 
ENDBRANCH  16  17
ENDBRANCH  15  16
ENDBRANCH  14  15
ENDBRANCH   3  14
TORSDOF 4
ENDMDL
MODEL 3
REMARK VINA RESULT:      -7.1      1.126      1.219
REMARK  Name = 
REMARK  6 active torsions:
REMARK  status: ('A' for Active; 'I' for Inactive)
REMARK    1  A    between atoms: C_1  and  C_2
REMARK    2  A    between atoms: C_3  and  C_4
REMARK    3  A    between atoms: C_4  and  C_5
REMARK    4  A    between atoms: C_5  and  C_6
REMARK    5  A    between atoms: C_6  and  C_7
REMARK    6  A    between atoms: N_12  and  C_13
REMARK                            x       y       z     vdW  Elec       q    Type
REMARK                         _______ _______ _______ _____ _____    ______ ____
ROOT
ATOM      1  C   UNL     1       1.298   9.208  17.826  0.00  0.00    +0.000 C 
ATOM      2  C   UNL     1       0.798   9.514  19.211  0.00  0.00    +0.000 C 
ATOM      3  C   UNL     1       1.186   8.857  20.323  0.00  0.00    +0.000 C 
ATOM      4  C   UNL     1       0.662   9.304  21.659  0.00  0.00    +0.000 C 
ATOM      5  O   UNL     1       1.048   8.782  22.700  0.00  0.00    +0.000 OA
ATOM      6  C   UNL     1      -0.336  10.402  21.718  0.00  0.00    +0.000 A 
ATOM      7  C   UNL     1      -0.857  10.828  22.953  0.00  0.00    +0.000 A 
ATOM      8  C   UNL     1      -1.825  11.836  23.010  0.00  0.00    +0.000 A 
ATOM      9  C   UNL     1      -2.289  12.428  21.836  0.00  0.00    +0.000 A 
ATOM     10  C   UNL     1      -1.747  12.037  20.607  0.00  0.00    +0.000 A 
ATOM     11  C   UNL     1      -0.776  11.021  20.553  0.00  0.00    +0.000 A 
ATOM     12  C   UNL     1      -0.206  10.630  19.249  0.00  0.00    +0.000 C 
ATOM     13  O   UNL     1      -0.560  11.205  18.235  0.00  0.00    +0.000 OA
ENDROOT
BRANCH   3  14
ATOM     14  C   UNL     1       2.171   7.678  20.291  0.00  0.00    +0.000 C 
BRANCH  14  15
ATOM     15  C   UNL     1       1.438   6.320  20.364  0.00  0.00    +0.000 C 
BRANCH  15  16
ATOM     16  C   UNL     1       2.280   5.064  20.722  0.00  0.00    +0.000 C 
BRANCH  16  17
ATOM     17  C   UNL     1       2.710   4.244  19.513  0.00  0.00    +0.000 C 
ATOM     18  O   UNL     1       2.153   3.173  19.277  0.00  0.00    +0.000 OA
ATOM     19  N   UNL     1       3.699   4.749  18.658  0.00  0.00    +0.000 N 
ATOM     20  C   UNL     1       3.939   3.955  17.449  0.00  0.00    +0.000 C 
ATOM     21  C   UNL     1       4.737   4.702  16.363  0.00  0.00    +0.000 C 
ATOM     22  N   UNL     1       5.974   5.359  16.833  0.00  0.00    +0.000 NA
ATOM     23  C   UNL     1       7.023   4.397  17.167  0.00  0.00    +0.000 C 
ATOM     24  C   UNL     1       5.644   6.215  17.985  0.00  0.00    +0.000 C 
ATOM     25  C   UNL     1       4.870   5.509  19.128  0.00  0.00    +0.000 C 
ENDBRANCH  16  17
ENDBRANCH  15  16
ENDBRANCH  14  15
ENDBRANCH   3  14
TORSDOF 4
ENDMDL
MODEL 4
REMARK VINA RESULT:      -7.1      1.440      2.897
REMARK  Name = 
REMARK  6 active torsions:
REMARK  status: ('A' for Active; 'I' for Inactive)
REMARK    1  A    between atoms: C_1  and  C_2
REMARK    2  A    between atoms: C_3  and  C_4
REMARK    3  A    between atoms: C_4  and  C_5
REMARK    4  A    between atoms: C_5  and  C_6
REMARK    5  A    between atoms: C_6  and  C_7
REMARK    6  A    between atoms: N_12  and  C_13
REMARK                            x       y       z     vdW  Elec       q    Type
REMARK                         _______ _______ _______ _____ _____    ______ ____
ROOT
ATOM      1  C   UNL     1       1.500   9.219  21.885  0.00  0.00    +0.000 C 
ATOM      2  C   UNL     1       0.456  10.227  21.495  0.00  0.00    +0.000 C 
ATOM      3  C   UNL     1       0.369  10.804  20.279  0.00  0.00    +0.000 C 
ATOM      4  C   UNL     1      -0.764  11.749  19.994  0.00  0.00    +0.000 C 
ATOM      5  O   UNL     1      -0.921  12.235  18.877  0.00  0.00    +0.000 OA
ATOM      6  C   UNL     1      -1.713  12.095  21.083  0.00  0.00    +0.000 A 
ATOM      7  C   UNL     1      -2.772  12.991  20.849  0.00  0.00    +0.000 A 
ATOM      8  C   UNL     1      -3.645  13.348  21.882  0.00  0.00    +0.000 A 
ATOM      9  C   UNL     1      -3.471  12.821  23.160  0.00  0.00    +0.000 A 
ATOM     10  C   UNL     1      -2.444  11.898  23.390  0.00  0.00    +0.000 A 
ATOM     11  C   UNL     1      -1.566  11.543  22.351  0.00  0.00    +0.000 A 
ATOM     12  C   UNL     1      -0.496  10.560  22.608  0.00  0.00    +0.000 C 
ATOM     13  O   UNL     1      -0.397  10.044  23.707  0.00  0.00    +0.000 OA
ENDROOT
BRANCH   3  14
ATOM     14  C   UNL     1       1.369  10.514  19.149  0.00  0.00    +0.000 C 
BRANCH  14  15
ATOM     15  C   UNL     1       1.200   9.083  18.590  0.00  0.00    +0.000 C 
BRANCH  15  16
ATOM     16  C   UNL     1       2.408   8.450  17.847  0.00  0.00    +0.000 C 
BRANCH  16  17
ATOM     17  C   UNL     1       2.852   7.111  18.419  0.00  0.00    +0.000 C 
ATOM     18  O   UNL     1       2.424   6.746  19.513  0.00  0.00    +0.000 OA
ATOM     19  N   UNL     1       3.701   6.289  17.665  0.00  0.00    +0.000 N 
ATOM     20  C   UNL     1       3.953   4.963  18.238  0.00  0.00    +0.000 C 
ATOM     21  C   UNL     1       4.565   3.961  17.241  0.00  0.00    +0.000 C 
ATOM     22  N   UNL     1       5.737   4.457  16.491  0.00  0.00    +0.000 NA
ATOM     23  C   UNL     1       6.924   4.587  17.335  0.00  0.00    +0.000 C 
ATOM     24  C   UNL     1       5.383   5.741  15.861  0.00  0.00    +0.000 C 
ATOM     25  C   UNL     1       4.794   6.804  16.823  0.00  0.00    +0.000 C 
ENDBRANCH  16  17
ENDBRANCH  15  16
ENDBRANCH  14  15
ENDBRANCH   3  14
TORSDOF 4
ENDMDL
MODEL 5
REMARK VINA RESULT:      -7.1      2.932      8.516
REMARK  Name = 
REMARK  6 active torsions:
REMARK  status: ('A' for Active; 'I' for Inactive)
REMARK    1  A    between atoms: C_1  and  C_2
REMARK    2  A    between atoms: C_3  and  C_4
REMARK    3  A    between atoms: C_4  and  C_5
REMARK    4  A    between atoms: C_5  and  C_6
REMARK    5  A    between atoms: C_6  and  C_7
REMARK    6  A    between atoms: N_12  and  C_13
REMARK                            x       y       z     vdW  Elec       q    Type
REMARK                         _______ _______ _______ _____ _____    ______ ____
ROOT
ATOM      1  C   UNL     1       1.353   4.142  18.971  0.00  0.00    +0.000 C 
ATOM      2  C   UNL     1       2.488   4.774  18.216  0.00  0.00    +0.000 C 
ATOM      3  C   UNL     1       2.720   6.102  18.160  0.00  0.00    +0.000 C 
ATOM      4  C   UNL     1       3.930   6.605  17.425  0.00  0.00    +0.000 C 
ATOM      5  O   UNL     1       4.217   7.799  17.415  0.00  0.00    +0.000 OA
ATOM      6  C   UNL     1       4.796   5.638  16.703  0.00  0.00    +0.000 A 
ATOM      7  C   UNL     1       5.924   6.083  15.991  0.00  0.00    +0.000 A 
ATOM      8  C   UNL     1       6.721   5.180  15.279  0.00  0.00    +0.000 A 
ATOM      9  C   UNL     1       6.399   3.824  15.264  0.00  0.00    +0.000 A 
ATOM     10  C   UNL     1       5.301   3.368  16.002  0.00  0.00    +0.000 A 
ATOM     11  C   UNL     1       4.501   4.279  16.715  0.00  0.00    +0.000 A 
ATOM     12  C   UNL     1       3.353   3.780  17.498  0.00  0.00    +0.000 C 
ATOM     13  O   UNL     1       3.124   2.584  17.543  0.00  0.00    +0.000 OA
ENDROOT
BRANCH   3  14
ATOM     14  C   UNL     1       1.811   7.134  18.846  0.00  0.00    +0.000 C 
BRANCH  14  15
ATOM     15  C   UNL     1       2.103   7.236  20.360  0.00  0.00    +0.000 C 
BRANCH  15  16
ATOM     16  C   UNL     1       0.983   7.803  21.275  0.00  0.00    +0.000 C 
BRANCH  16  17
ATOM     17  C   UNL     1       1.111   9.294  21.555  0.00  0.00    +0.000 C 
ATOM     18  O   UNL     1       1.627   9.673  22.606  0.00  0.00    +0.000 OA
ATOM     19  N   UNL     1       0.687  10.214  20.586  0.00  0.00    +0.000 N 
ATOM     20  C   UNL     1       0.986  11.618  20.889  0.00  0.00    +0.000 C 
ATOM     21  C   UNL     1       0.857  12.557  19.674  0.00  0.00    +0.000 C 
ATOM     22  N   UNL     1      -0.398  12.424  18.907  0.00  0.00    +0.000 NA
ATOM     23  C   UNL     1      -1.553  12.947  19.636  0.00  0.00    +0.000 C 
ATOM     24  C   UNL     1      -0.584  11.007  18.552  0.00  0.00    +0.000 C 
ATOM     25  C   UNL     1      -0.501  10.015  19.740  0.00  0.00    +0.000 C 
ENDBRANCH  16  17
ENDBRANCH  15  16
ENDBRANCH  14  15
ENDBRANCH   3  14
TORSDOF 4
ENDMDL
MODEL 6
REMARK VINA RESULT:      -7.0      1.563      2.172
REMARK  Name = 
REMARK  6 active torsions:
REMARK  status: ('A' for Active; 'I' for Inactive)
REMARK    1  A    between atoms: C_1  and  C_2
REMARK    2  A    between atoms: C_3  and  C_4
REMARK    3  A    between atoms: C_4  and  C_5
REMARK    4  A    between atoms: C_5  and  C_6
REMARK    5  A    between atoms: C_6  and  C_7
REMARK    6  A    between atoms: N_12  and  C_13
REMARK                            x       y       z     vdW  Elec       q    Type
REMARK                         _______ _______ _______ _____ _____    ______ ____
ROOT
ATOM      1  C   UNL     1       3.027   7.466  17.974  0.00  0.00    +0.000 C 
ATOM      2  C   UNL     1       2.102   8.157  18.936  0.00  0.00    +0.000 C 
ATOM      3  C   UNL     1       1.759   7.671  20.147  0.00  0.00    +0.000 C 
ATOM      4  C   UNL     1       0.877   8.493  21.044  0.00  0.00    +0.000 C 
ATOM      5  O   UNL     1       0.604   8.119  22.182  0.00  0.00    +0.000 OA
ATOM      6  C   UNL     1       0.332   9.781  20.546  0.00  0.00    +0.000 A 
ATOM      7  C   UNL     1      -0.511  10.561  21.358  0.00  0.00    +0.000 A 
ATOM      8  C   UNL     1      -1.057  11.757  20.880  0.00  0.00    +0.000 A 
ATOM      9  C   UNL     1      -0.773  12.186  19.584  0.00  0.00    +0.000 A 
ATOM     10  C   UNL     1       0.096  11.436  18.785  0.00  0.00    +0.000 A 
ATOM     11  C   UNL     1       0.641  10.233  19.268  0.00  0.00    +0.000 A 
ATOM     12  C   UNL     1       1.566   9.460  18.416  0.00  0.00    +0.000 C 
ATOM     13  O   UNL     1       1.871   9.881  17.314  0.00  0.00    +0.000 OA
ENDROOT
BRANCH   3  14
ATOM     14  C   UNL     1       2.257   6.314  20.669  0.00  0.00    +0.000 C 
BRANCH  14  15
ATOM     15  C   UNL     1       1.524   5.137  19.988  0.00  0.00    +0.000 C 
BRANCH  15  16
ATOM     16  C   UNL     1       2.285   3.788  19.863  0.00  0.00    +0.000 C 
BRANCH  16  17
ATOM     17  C   UNL     1       2.967   3.587  18.517  0.00  0.00    +0.000 C 
ATOM     18  O   UNL     1       2.474   2.814  17.696  0.00  0.00    +0.000 OA
ATOM     19  N   UNL     1       4.119   4.325  18.214  0.00  0.00    +0.000 N 
ATOM     20  C   UNL     1       4.615   4.167  16.843  0.00  0.00    +0.000 C 
ATOM     21  C   UNL     1       5.631   5.246  16.422  0.00  0.00    +0.000 C 
ATOM     22  N   UNL     1       6.737   5.475  17.374  0.00  0.00    +0.000 NA
ATOM     23  C   UNL     1       7.687   4.364  17.401  0.00  0.00    +0.000 C 
ATOM     24  C   UNL     1       6.164   5.724  18.708  0.00  0.00    +0.000 C 
ATOM     25  C   UNL     1       5.160   4.652  19.203  0.00  0.00    +0.000 C 
ENDBRANCH  16  17
ENDBRANCH  15  16
ENDBRANCH  14  15
ENDBRANCH   3  14
TORSDOF 4
ENDMDL
MODEL 7
REMARK VINA RESULT:      -7.0      2.671      8.257
REMARK  Name = 
REMARK  6 active torsions:
REMARK  status: ('A' for Active; 'I' for Inactive)
REMARK    1  A    between atoms: C_1  and  C_2
REMARK    2  A    between atoms: C_3  and  C_4
REMARK    3  A    between atoms: C_4  and  C_5
REMARK    4  A    between atoms: C_5  and  C_6
REMARK    5  A    between atoms: C_6  and  C_7
REMARK    6  A    between atoms: N_12  and  C_13
REMARK                            x       y       z     vdW  Elec       q    Type
REMARK                         _______ _______ _______ _____ _____    ______ ____
ROOT
ATOM      1  C   UNL     1       1.151   3.088  18.666  0.00  0.00    +0.000 C 
ATOM      2  C   UNL     1       2.495   3.729  18.462  0.00  0.00    +0.000 C 
ATOM      3  C   UNL     1       3.129   4.481  19.385  0.00  0.00    +0.000 C 
ATOM      4  C   UNL     1       4.502   5.010  19.083  0.00  0.00    +0.000 C 
ATOM      5  O   UNL     1       5.142   5.635  19.925  0.00  0.00    +0.000 OA
ATOM      6  C   UNL     1       5.097   4.767  17.744  0.00  0.00    +0.000 A 
ATOM      7  C   UNL     1       6.373   5.267  17.428  0.00  0.00    +0.000 A 
ATOM      8  C   UNL     1       6.921   5.072  16.156  0.00  0.00    +0.000 A 
ATOM      9  C   UNL     1       6.201   4.382  15.182  0.00  0.00    +0.000 A 
ATOM     10  C   UNL     1       4.948   3.848  15.501  0.00  0.00    +0.000 A 
ATOM     11  C   UNL     1       4.399   4.047  16.781  0.00  0.00    +0.000 A 
ATOM     12  C   UNL     1       3.080   3.467  17.105  0.00  0.00    +0.000 C 
ATOM     13  O   UNL     1       2.492   2.798  16.274  0.00  0.00    +0.000 OA
ENDROOT
BRANCH   3  14
ATOM     14  C   UNL     1       2.517   4.802  20.758  0.00  0.00    +0.000 C 
BRANCH  14  15
ATOM     15  C   UNL     1       1.509   5.970  20.675  0.00  0.00    +0.000 C 
BRANCH  15  16
ATOM     16  C   UNL     1       2.073   7.416  20.729  0.00  0.00    +0.000 C 
BRANCH  16  17
ATOM     17  C   UNL     1       1.763   8.246  19.491  0.00  0.00    +0.000 C 
ATOM     18  O   UNL     1       2.298   7.962  18.420  0.00  0.00    +0.000 OA
ATOM     19  N   UNL     1       0.832   9.290  19.580  0.00  0.00    +0.000 N 
ATOM     20  C   UNL     1       0.497   9.933  18.305  0.00  0.00    +0.000 C 
ATOM     21  C   UNL     1      -0.775  10.801  18.362  0.00  0.00    +0.000 C 
ATOM     22  N   UNL     1      -0.831  11.761  19.483  0.00  0.00    +0.000 NA
ATOM     23  C   UNL     1       0.109  12.868  19.315  0.00  0.00    +0.000 C 
ATOM     24  C   UNL     1      -0.584  11.033  20.739  0.00  0.00    +0.000 C 
ATOM     25  C   UNL     1       0.703  10.168  20.755  0.00  0.00    +0.000 C 
ENDBRANCH  16  17
ENDBRANCH  15  16
ENDBRANCH  14  15
ENDBRANCH   3  14
TORSDOF 4
ENDMDL
MODEL 8
REMARK VINA RESULT:      -7.0      2.902      8.058
REMARK  Name = 
REMARK  6 active torsions:
REMARK  status: ('A' for Active; 'I' for Inactive)
REMARK    1  A    between atoms: C_1  and  C_2
REMARK    2  A    between atoms: C_3  and  C_4
REMARK    3  A    between atoms: C_4  and  C_5
REMARK    4  A    between atoms: C_5  and  C_6
REMARK    5  A    between atoms: C_6  and  C_7
REMARK    6  A    between atoms: N_12  and  C_13
REMARK                            x       y       z     vdW  Elec       q    Type
REMARK                         _______ _______ _______ _____ _____    ______ ____
ROOT
ATOM      1  C   UNL     1       2.552   3.670  21.263  0.00  0.00    +0.000 C 
ATOM      2  C   UNL     1       2.972   4.551  20.119  0.00  0.00    +0.000 C 
ATOM      3  C   UNL     1       2.337   5.686  19.759  0.00  0.00    +0.000 C 
ATOM      4  C   UNL     1       2.896   6.514  18.637  0.00  0.00    +0.000 C 
ATOM      5  O   UNL     1       2.392   7.591  18.329  0.00  0.00    +0.000 OA
ATOM      6  C   UNL     1       4.084   6.024  17.893  0.00  0.00    +0.000 A 
ATOM      7  C   UNL     1       4.617   6.770  16.827  0.00  0.00    +0.000 A 
ATOM      8  C   UNL     1       5.713   6.294  16.100  0.00  0.00    +0.000 A 
ATOM      9  C   UNL     1       6.287   5.065  16.424  0.00  0.00    +0.000 A 
ATOM     10  C   UNL     1       5.787   4.336  17.508  0.00  0.00    +0.000 A 
ATOM     11  C   UNL     1       4.684   4.817  18.235  0.00  0.00    +0.000 A 
ATOM     12  C   UNL     1       4.177   4.040  19.384  0.00  0.00    +0.000 C 
ATOM     13  O   UNL     1       4.732   3.006  19.710  0.00  0.00    +0.000 OA
ENDROOT
BRANCH   3  14
ATOM     14  C   UNL     1       1.071   6.191  20.468  0.00  0.00    +0.000 C 
BRANCH  14  15
ATOM     15  C   UNL     1       1.319   7.533  21.192  0.00  0.00    +0.000 C 
BRANCH  15  16
ATOM     16  C   UNL     1       0.092   8.260  21.807  0.00  0.00    +0.000 C 
BRANCH  16  17
ATOM     17  C   UNL     1       0.279   9.763  21.963  0.00  0.00    +0.000 C 
ATOM     18  O   UNL     1       0.229  10.268  23.084  0.00  0.00    +0.000 OA
ATOM     19  N   UNL     1       0.559  10.541  20.831  0.00  0.00    +0.000 N 
ATOM     20  C   UNL     1       0.865  11.949  21.106  0.00  0.00    +0.000 C 
ATOM     21  C   UNL     1       1.523  12.684  19.922  0.00  0.00    +0.000 C 
ATOM     22  N   UNL     1       0.839  12.523  18.623  0.00  0.00    +0.000 NA
ATOM     23  C   UNL     1      -0.432  13.243  18.570  0.00  0.00    +0.000 C 
ATOM     24  C   UNL     1       0.653  11.085  18.365  0.00  0.00    +0.000 C 
ATOM     25  C   UNL     1      -0.038  10.297  19.508  0.00  0.00    +0.000 C 
ENDBRANCH  16  17
ENDBRANCH  15  16
ENDBRANCH  14  15
ENDBRANCH   3  14
TORSDOF 4
ENDMDL
MODEL 9
REMARK VINA RESULT:      -7.0      3.043      8.877
REMARK  Name = 
REMARK  6 active torsions:
REMARK  status: ('A' for Active; 'I' for Inactive)
REMARK    1  A    between atoms: C_1  and  C_2
REMARK    2  A    between atoms: C_3  and  C_4
REMARK    3  A    between atoms: C_4  and  C_5
REMARK    4  A    between atoms: C_5  and  C_6
REMARK    5  A    between atoms: C_6  and  C_7
REMARK    6  A    between atoms: N_12  and  C_13
REMARK                            x       y       z     vdW  Elec       q    Type
REMARK                         _______ _______ _______ _____ _____    ______ ____
ROOT
ATOM      1  C   UNL     1       2.305   4.077  21.332  0.00  0.00    +0.000 C 
ATOM      2  C   UNL     1       2.771   4.862  20.137  0.00  0.00    +0.000 C 
ATOM      3  C   UNL     1       2.278   6.064  19.776  0.00  0.00    +0.000 C 
ATOM      4  C   UNL     1       2.877   6.778  18.597  0.00  0.00    +0.000 C 
ATOM      5  O   UNL     1       2.508   7.906  18.283  0.00  0.00    +0.000 OA
ATOM      6  C   UNL     1       3.939   6.108  17.804  0.00  0.00    +0.000 A 
ATOM      7  C   UNL     1       4.504   6.746  16.685  0.00  0.00    +0.000 A 
ATOM      8  C   UNL     1       5.478   6.103  15.913  0.00  0.00    +0.000 A 
ATOM      9  C   UNL     1       5.895   4.815  16.245  0.00  0.00    +0.000 A 
ATOM     10  C   UNL     1       5.367   4.190  17.379  0.00  0.00    +0.000 A 
ATOM     11  C   UNL     1       4.386   4.838  18.152  0.00  0.00    +0.000 A 
ATOM     12  C   UNL     1       3.847   4.169  19.352  0.00  0.00    +0.000 C 
ATOM     13  O   UNL     1       4.274   3.076  19.680  0.00  0.00    +0.000 OA
ENDROOT
BRANCH   3  14
ATOM     14  C   UNL     1       1.139   6.759  20.539  0.00  0.00    +0.000 C 
BRANCH  14  15
ATOM     15  C   UNL     1       1.635   8.021  21.280  0.00  0.00    +0.000 C 
BRANCH  15  16
ATOM     16  C   UNL     1       0.912   9.363  20.983  0.00  0.00    +0.000 C 
BRANCH  16  17
ATOM     17  C   UNL     1       0.001   9.835  22.109  0.00  0.00    +0.000 C 
ATOM     18  O   UNL     1      -0.088   9.167  23.138  0.00  0.00    +0.000 OA
ATOM     19  N   UNL     1      -0.682  11.051  21.975  0.00  0.00    +0.000 N 
ATOM     20  C   UNL     1      -1.417  11.485  23.168  0.00  0.00    +0.000 C 
ATOM     21  C   UNL     1      -1.839  12.967  23.133  0.00  0.00    +0.000 C 
ATOM     22  N   UNL     1      -2.517  13.398  21.893  0.00  0.00    +0.000 NA
ATOM     23  C   UNL     1      -3.866  12.845  21.776  0.00  0.00    +0.000 C 
ATOM     24  C   UNL     1      -1.680  13.019  20.742  0.00  0.00    +0.000 C 
ATOM     25  C   UNL     1      -1.252  11.529  20.704  0.00  0.00    +0.000 C 
ENDBRANCH  16  17
ENDBRANCH  15  16
ENDBRANCH  14  15
ENDBRANCH   3  14
TORSDOF 4
ENDMDL
