MODEL 1
REMARK VINA RESULT:      -7.1      0.000      0.000
REMARK  Name = 
REMARK  9 active torsions:
REMARK  status: ('A' for Active; 'I' for Inactive)
REMARK    1  A    between atoms: C_1  and  C_2
REMARK    2  A    between atoms: C_2  and  N_3
REMARK    3  A    between atoms: C_4  and  C_6
REMARK    4  A    between atoms: C_6  and  O_7
REMARK    5  A    between atoms: O_7  and  C_8
REMARK    6  A    between atoms: C_8  and  C_10
REMARK    7  A    between atoms: C_10  and  N_11
REMARK    8  A    between atoms: C_12  and  C_14
REMARK    9  A    between atoms: C_19  and  N_20
REMARK                            x       y       z     vdW  Elec       q    Type
REMARK                         _______ _______ _______ _____ _____    ______ ____
ROOT
ATOM      1  N   UNL     1       3.801   3.247  19.549  0.00  0.00    +0.000 N 
ATOM      2  C   UNL     1       3.917   3.402  18.185  0.00  0.00    +0.000 C 
ATOM      3  O   UNL     1       3.078   2.984  17.396  0.00  0.00    +0.000 OA
ATOM      4  H   UNL     1       4.316   3.855  20.175  0.00  0.00    +0.000 HD
ENDROOT
BRANCH   2   5
ATOM      5  C   UNL     1       5.091   4.161  17.680  0.00  0.00    +0.000 A 
ATOM      6  C   UNL     1       5.914   4.916  18.523  0.00  0.00    +0.000 A 
ATOM      7  C   UNL     1       7.014   5.592  17.990  0.00  0.00    +0.000 A 
ATOM      8 CL   UNL     1       8.023   6.518  19.031  0.00  0.00    +0.000 Cl
ATOM      9  C   UNL     1       7.309   5.527  16.629  0.00  0.00    +0.000 A 
ATOM     10  C   UNL     1       6.492   4.759  15.793  0.00  0.00    +0.000 A 
ATOM     11  C   UNL     1       5.390   4.071  16.315  0.00  0.00    +0.000 A 
BRANCH  10  12
ATOM     12  N   UNL     1       6.788   4.675  14.358  0.00  0.00    +0.000 N 
ATOM     13  O   UNL     1       7.646   5.444  13.902  0.00  0.00    +0.000 OA
ATOM     14  O   UNL     1       6.159   3.844  13.690  0.00  0.00    +0.000 OA
ENDBRANCH  10  12
ENDBRANCH   2   5
BRANCH   1  15
ATOM     15  C   UNL     1       2.645   2.555  20.096  0.00  0.00    +0.000 C 
BRANCH  15  16
ATOM     16  C   UNL     1       2.113   3.277  21.325  0.00  0.00    +0.000 C 
ATOM     17  O   UNL     1       1.588   2.702  22.270  0.00  0.00    +0.000 OA
BRANCH  16  18
ATOM     18  O   UNL     1       2.399   4.605  21.262  0.00  0.00    +0.000 OA
BRANCH  18  19
ATOM     19  C   UNL     1       1.448   5.433  20.589  0.00  0.00    +0.000 C 
BRANCH  19  21
ATOM     20  N   UNL     1       2.407   6.682  18.697  0.00  0.00    +0.000 N 
ATOM     21  C   UNL     1       2.024   6.732  20.019  0.00  0.00    +0.000 C 
ATOM     22  O   UNL     1       2.112   7.748  20.706  0.00  0.00    +0.000 OA
ATOM     23  H   UNL     1       2.223   5.831  18.170  0.00  0.00    +0.000 HD
BRANCH  20  25
ATOM     24  C   UNL     1       1.820   8.837  17.665  0.00  0.00    +0.000 C 
ATOM     25  C   UNL     1       2.920   7.847  18.005  0.00  0.00    +0.000 C 
ENDBRANCH  20  25
ENDBRANCH  19  21
ENDBRANCH  18  19
ENDBRANCH  16  18
ENDBRANCH  15  16
ENDBRANCH   1  15
TORSDOF 8
ENDMDL
MODEL 2
REMARK VINA RESULT:      -7.1      1.496      1.745
REMARK  Name = 
REMARK  9 active torsions:
REMARK  status: ('A' for Active; 'I' for Inactive)
REMARK    1  A    between atoms: C_1  and  C_2
REMARK    2  A    between atoms: C_2  and  N_3
REMARK    3  A    between atoms: C_4  and  C_6
REMARK    4  A    between atoms: C_6  and  O_7
REMARK    5  A    between atoms: O_7  and  C_8
REMARK    6  A    between atoms: C_8  and  C_10
REMARK    7  A    between atoms: C_10  and  N_11
REMARK    8  A    between atoms: C_12  and  C_14
REMARK    9  A    between atoms: C_19  and  N_20
REMARK                            x       y       z     vdW  Elec       q    Type
REMARK                         _______ _______ _______ _____ _____    ______ ____
ROOT
ATOM      1  N   UNL     1       4.037   2.659  17.985  0.00  0.00    +0.000 N 
ATOM      2  C   UNL     1       4.986   3.411  18.642  0.00  0.00    +0.000 C 
ATOM      3  O   UNL     1       5.215   3.292  19.839  0.00  0.00    +0.000 OA
ATOM      4  H   UNL     1       4.086   2.546  16.979  0.00  0.00    +0.000 HD
ENDROOT
BRANCH   2   5
ATOM      5  C   UNL     1       5.792   4.359  17.828  0.00  0.00    +0.000 A 
ATOM      6  C   UNL     1       6.470   5.445  18.394  0.00  0.00    +0.000 A 
ATOM      7  C   UNL     1       7.225   6.288  17.577  0.00  0.00    +0.000 A 
ATOM      8 CL   UNL     1       8.058   7.621  18.279  0.00  0.00    +0.000 Cl
ATOM      9  C   UNL     1       7.319   6.069  16.204  0.00  0.00    +0.000 A 
ATOM     10  C   UNL     1       6.651   4.974  15.645  0.00  0.00    +0.000 A 
ATOM     11  C   UNL     1       5.895   4.116  16.452  0.00  0.00    +0.000 A 
BRANCH  10  12
ATOM     12  N   UNL     1       6.739   4.724  14.201  0.00  0.00    +0.000 N 
ATOM     13  O   UNL     1       7.554   5.392  13.550  0.00  0.00    +0.000 OA
ATOM     14  O   UNL     1       5.991   3.862  13.721  0.00  0.00    +0.000 OA
ENDBRANCH  10  12
ENDBRANCH   2   5
BRANCH   1  15
ATOM     15  C   UNL     1       3.257   1.682  18.727  0.00  0.00    +0.000 C 
BRANCH  15  16
ATOM     16  C   UNL     1       1.910   2.259  19.133  0.00  0.00    +0.000 C 
ATOM     17  O   UNL     1       0.846   1.888  18.655  0.00  0.00    +0.000 OA
BRANCH  16  18
ATOM     18  O   UNL     1       2.056   3.146  20.154  0.00  0.00    +0.000 OA
BRANCH  18  19
ATOM     19  C   UNL     1       1.416   4.414  19.995  0.00  0.00    +0.000 C 
BRANCH  19  21
ATOM     20  N   UNL     1       2.623   6.392  19.164  0.00  0.00    +0.000 N 
ATOM     21  C   UNL     1       1.936   5.248  18.821  0.00  0.00    +0.000 C 
ATOM     22  O   UNL     1       1.759   4.894  17.657  0.00  0.00    +0.000 OA
ATOM     23  H   UNL     1       2.804   6.573  20.149  0.00  0.00    +0.000 HD
BRANCH  20  25
ATOM     24  C   UNL     1       2.336   8.445  17.839  0.00  0.00    +0.000 C 
ATOM     25  C   UNL     1       3.220   7.253  18.163  0.00  0.00    +0.000 C 
ENDBRANCH  20  25
ENDBRANCH  19  21
ENDBRANCH  18  19
ENDBRANCH  16  18
ENDBRANCH  15  16
ENDBRANCH   1  15
TORSDOF 8
ENDMDL
MODEL 3
REMARK VINA RESULT:      -7.1      3.119      7.649
REMARK  Name = 
REMARK  9 active torsions:
REMARK  status: ('A' for Active; 'I' for Inactive)
REMARK    1  A    between atoms: C_1  and  C_2
REMARK    2  A    between atoms: C_2  and  N_3
REMARK    3  A    between atoms: C_4  and  C_6
REMARK    4  A    between atoms: C_6  and  O_7
REMARK    5  A    between atoms: O_7  and  C_8
REMARK    6  A    between atoms: C_8  and  C_10
REMARK    7  A    between atoms: C_10  and  N_11
REMARK    8  A    between atoms: C_12  and  C_14
REMARK    9  A    between atoms: C_19  and  N_20
REMARK                            x       y       z     vdW  Elec       q    Type
REMARK                         _______ _______ _______ _____ _____    ______ ____
ROOT
ATOM      1  N   UNL     1       5.932   4.893  16.696  0.00  0.00    +0.000 N 
ATOM      2  C   UNL     1       5.897   4.740  18.064  0.00  0.00    +0.000 C 
ATOM      3  O   UNL     1       6.878   4.415  18.721  0.00  0.00    +0.000 OA
ATOM      4  H   UNL     1       5.227   5.452  16.229  0.00  0.00    +0.000 HD
ENDROOT
BRANCH   2   5
ATOM      5  C   UNL     1       4.615   5.042  18.754  0.00  0.00    +0.000 A 
ATOM      6  C   UNL     1       3.954   6.267  18.606  0.00  0.00    +0.000 A 
ATOM      7  C   UNL     1       2.743   6.482  19.266  0.00  0.00    +0.000 A 
ATOM      8 CL   UNL     1       1.935   7.990  19.081  0.00  0.00    +0.000 Cl
ATOM      9  C   UNL     1       2.175   5.495  20.072  0.00  0.00    +0.000 A 
ATOM     10  C   UNL     1       2.832   4.267  20.204  0.00  0.00    +0.000 A 
ATOM     11  C   UNL     1       4.044   4.035  19.543  0.00  0.00    +0.000 A 
BRANCH  10  12
ATOM     12  N   UNL     1       2.249   3.214  21.045  0.00  0.00    +0.000 N 
ATOM     13  O   UNL     1       1.014   3.139  21.099  0.00  0.00    +0.000 OA
ATOM     14  O   UNL     1       3.028   2.467  21.651  0.00  0.00    +0.000 OA
ENDBRANCH  10  12
ENDBRANCH   2   5
BRANCH   1  15
ATOM     15  C   UNL     1       7.175   4.658  15.980  0.00  0.00    +0.000 C 
BRANCH  15  16
ATOM     16  C   UNL     1       6.944   4.667  14.477  0.00  0.00    +0.000 C 
ATOM     17  O   UNL     1       7.533   5.417  13.708  0.00  0.00    +0.000 OA
BRANCH  16  18
ATOM     18  O   UNL     1       6.091   3.672  14.116  0.00  0.00    +0.000 OA
BRANCH  18  19
ATOM     19  C   UNL     1       5.172   3.968  13.062  0.00  0.00    +0.000 C 
BRANCH  19  21
ATOM     20  N   UNL     1       6.236   2.076  11.899  0.00  0.00    +0.000 N 
ATOM     21  C   UNL     1       5.178   2.959  11.910  0.00  0.00    +0.000 C 
ATOM     22  O   UNL     1       4.279   2.940  11.072  0.00  0.00    +0.000 OA
ATOM     23  H   UNL     1       6.894   2.097  12.675  0.00  0.00    +0.000 HD
BRANCH  20  25
ATOM     24  C   UNL     1       6.215  -0.354  11.513  0.00  0.00    +0.000 C 
ATOM     25  C   UNL     1       6.348   1.031  10.903  0.00  0.00    +0.000 C 
ENDBRANCH  20  25
ENDBRANCH  19  21
ENDBRANCH  18  19
ENDBRANCH  16  18
ENDBRANCH  15  16
ENDBRANCH   1  15
TORSDOF 8
ENDMDL
MODEL 4
REMARK VINA RESULT:      -7.0      1.227      1.632
REMARK  Name = 
REMARK  9 active torsions:
REMARK  status: ('A' for Active; 'I' for Inactive)
REMARK    1  A    between atoms: C_1  and  C_2
REMARK    2  A    between atoms: C_2  and  N_3
REMARK    3  A    between atoms: C_4  and  C_6
REMARK    4  A    between atoms: C_6  and  O_7
REMARK    5  A    between atoms: O_7  and  C_8
REMARK    6  A    between atoms: C_8  and  C_10
REMARK    7  A    between atoms: C_10  and  N_11
REMARK    8  A    between atoms: C_12  and  C_14
REMARK    9  A    between atoms: C_19  and  N_20
REMARK                            x       y       z     vdW  Elec       q    Type
REMARK                         _______ _______ _______ _____ _____    ______ ____
ROOT
ATOM      1  N   UNL     1       4.118   2.328  18.376  0.00  0.00    +0.000 N 
ATOM      2  C   UNL     1       3.992   3.218  17.333  0.00  0.00    +0.000 C 
ATOM      3  O   UNL     1       2.946   3.373  16.715  0.00  0.00    +0.000 OA
ATOM      4  H   UNL     1       4.862   2.443  19.055  0.00  0.00    +0.000 HD
ENDROOT
BRANCH   2   5
ATOM      5  C   UNL     1       5.176   4.053  16.999  0.00  0.00    +0.000 A 
ATOM      6  C   UNL     1       5.885   4.771  17.970  0.00  0.00    +0.000 A 
ATOM      7  C   UNL     1       7.000   5.522  17.596  0.00  0.00    +0.000 A 
ATOM      8 CL   UNL     1       7.867   6.402  18.793  0.00  0.00    +0.000 Cl
ATOM      9  C   UNL     1       7.424   5.571  16.269  0.00  0.00    +0.000 A 
ATOM     10  C   UNL     1       6.722   4.839  15.305  0.00  0.00    +0.000 A 
ATOM     11  C   UNL     1       5.606   4.077  15.666  0.00  0.00    +0.000 A 
BRANCH  10  12
ATOM     12  N   UNL     1       7.155   4.875  13.902  0.00  0.00    +0.000 N 
ATOM     13  O   UNL     1       6.585   4.118  13.105  0.00  0.00    +0.000 OA
ATOM     14  O   UNL     1       8.066   5.658  13.603  0.00  0.00    +0.000 OA
ENDBRANCH  10  12
ENDBRANCH   2   5
BRANCH   1  15
ATOM     15  C   UNL     1       2.974   1.523  18.774  0.00  0.00    +0.000 C 
BRANCH  15  16
ATOM     16  C   UNL     1       2.074   2.295  19.727  0.00  0.00    +0.000 C 
ATOM     17  O   UNL     1       0.866   2.416  19.564  0.00  0.00    +0.000 OA
BRANCH  16  18
ATOM     18  O   UNL     1       2.776   2.724  20.809  0.00  0.00    +0.000 OA
BRANCH  18  19
ATOM     19  C   UNL     1       2.188   3.776  21.577  0.00  0.00    +0.000 C 
BRANCH  19  21
ATOM     20  N   UNL     1       3.130   5.584  20.196  0.00  0.00    +0.000 N 
ATOM     21  C   UNL     1       2.002   5.092  20.816  0.00  0.00    +0.000 C 
ATOM     22  O   UNL     1       0.907   5.647  20.757  0.00  0.00    +0.000 OA
ATOM     23  H   UNL     1       3.979   5.024  20.218  0.00  0.00    +0.000 HD
BRANCH  20  25
ATOM     24  C   UNL     1       2.550   6.535  18.002  0.00  0.00    +0.000 C 
ATOM     25  C   UNL     1       3.097   6.791  19.395  0.00  0.00    +0.000 C 
ENDBRANCH  20  25
ENDBRANCH  19  21
ENDBRANCH  18  19
ENDBRANCH  16  18
ENDBRANCH  15  16
ENDBRANCH   1  15
TORSDOF 8
ENDMDL
MODEL 5
REMARK VINA RESULT:      -7.0      2.345      2.650
REMARK  Name = 
REMARK  9 active torsions:
REMARK  status: ('A' for Active; 'I' for Inactive)
REMARK    1  A    between atoms: C_1  and  C_2
REMARK    2  A    between atoms: C_2  and  N_3
REMARK    3  A    between atoms: C_4  and  C_6
REMARK    4  A    between atoms: C_6  and  O_7
REMARK    5  A    between atoms: O_7  and  C_8
REMARK    6  A    between atoms: C_8  and  C_10
REMARK    7  A    between atoms: C_10  and  N_11
REMARK    8  A    between atoms: C_12  and  C_14
REMARK    9  A    between atoms: C_19  and  N_20
REMARK                            x       y       z     vdW  Elec       q    Type
REMARK                         _______ _______ _______ _____ _____    ______ ____
ROOT
ATOM      1  N   UNL     1       3.719   3.174  19.478  0.00  0.00    +0.000 N 
ATOM      2  C   UNL     1       3.961   3.021  18.130  0.00  0.00    +0.000 C 
ATOM      3  O   UNL     1       3.254   2.335  17.403  0.00  0.00    +0.000 OA
ATOM      4  H   UNL     1       4.105   3.968  19.976  0.00  0.00    +0.000 HD
ENDROOT
BRANCH   2   5
ATOM      5  C   UNL     1       5.101   3.777  17.550  0.00  0.00    +0.000 A 
ATOM      6  C   UNL     1       5.342   3.830  16.172  0.00  0.00    +0.000 A 
ATOM      7  C   UNL     1       6.420   4.573  15.687  0.00  0.00    +0.000 A 
ATOM      8 CL   UNL     1       6.711   4.635  13.992  0.00  0.00    +0.000 Cl
ATOM      9  C   UNL     1       7.264   5.269  16.553  0.00  0.00    +0.000 A 
ATOM     10  C   UNL     1       7.009   5.226  17.928  0.00  0.00    +0.000 A 
ATOM     11  C   UNL     1       5.929   4.489  18.427  0.00  0.00    +0.000 A 
BRANCH  10  12
ATOM     12  N   UNL     1       7.884   5.953  18.855  0.00  0.00    +0.000 N 
ATOM     13  O   UNL     1       8.207   7.110  18.554  0.00  0.00    +0.000 OA
ATOM     14  O   UNL     1       8.249   5.364  19.881  0.00  0.00    +0.000 OA
ENDBRANCH  10  12
ENDBRANCH   2   5
BRANCH   1  15
ATOM     15  C   UNL     1       2.586   2.494  20.085  0.00  0.00    +0.000 C 
BRANCH  15  16
ATOM     16  C   UNL     1       2.106   3.240  21.320  0.00  0.00    +0.000 C 
ATOM     17  O   UNL     1       1.572   2.690  22.275  0.00  0.00    +0.000 OA
BRANCH  16  18
ATOM     18  O   UNL     1       2.447   4.554  21.250  0.00  0.00    +0.000 OA
BRANCH  18  19
ATOM     19  C   UNL     1       1.469   5.440  20.701  0.00  0.00    +0.000 C 
BRANCH  19  21
ATOM     20  N   UNL     1       2.270   7.382  19.416  0.00  0.00    +0.000 N 
ATOM     21  C   UNL     1       1.859   6.067  19.359  0.00  0.00    +0.000 C 
ATOM     22  O   UNL     1       1.822   5.420  18.315  0.00  0.00    +0.000 OA
ATOM     23  H   UNL     1       2.357   7.824  20.328  0.00  0.00    +0.000 HD
BRANCH  20  25
ATOM     24  C   UNL     1       1.765   9.205  17.843  0.00  0.00    +0.000 C 
ATOM     25  C   UNL     1       2.720   8.092  18.236  0.00  0.00    +0.000 C 
ENDBRANCH  20  25
ENDBRANCH  19  21
ENDBRANCH  18  19
ENDBRANCH  16  18
ENDBRANCH  15  16
ENDBRANCH   1  15
TORSDOF 8
ENDMDL
MODEL 6
REMARK VINA RESULT:      -6.9      3.238      7.301
REMARK  Name = 
REMARK  9 active torsions:
REMARK  status: ('A' for Active; 'I' for Inactive)
REMARK    1  A    between atoms: C_1  and  C_2
REMARK    2  A    between atoms: C_2  and  N_3
REMARK    3  A    between atoms: C_4  and  C_6
REMARK    4  A    between atoms: C_6  and  O_7
REMARK    5  A    between atoms: O_7  and  C_8
REMARK    6  A    between atoms: C_8  and  C_10
REMARK    7  A    between atoms: C_10  and  N_11
REMARK    8  A    between atoms: C_12  and  C_14
REMARK    9  A    between atoms: C_19  and  N_20
REMARK                            x       y       z     vdW  Elec       q    Type
REMARK                         _______ _______ _______ _____ _____    ______ ____
ROOT
ATOM      1  N   UNL     1       4.946   5.354  16.899  0.00  0.00    +0.000 N 
ATOM      2  C   UNL     1       4.159   6.364  17.407  0.00  0.00    +0.000 C 
ATOM      3  O   UNL     1       4.071   7.466  16.879  0.00  0.00    +0.000 OA
ATOM      4  H   UNL     1       4.762   4.390  17.154  0.00  0.00    +0.000 HD
ENDROOT
BRANCH   2   5
ATOM      5  C   UNL     1       3.350   6.059  18.616  0.00  0.00    +0.000 A 
ATOM      6  C   UNL     1       2.579   7.029  19.267  0.00  0.00    +0.000 A 
ATOM      7  C   UNL     1       1.826   6.675  20.387  0.00  0.00    +0.000 A 
ATOM      8 CL   UNL     1       0.879   7.872  21.182  0.00  0.00    +0.000 Cl
ATOM      9  C   UNL     1       1.825   5.368  20.873  0.00  0.00    +0.000 A 
ATOM     10  C   UNL     1       2.586   4.398  20.210  0.00  0.00    +0.000 A 
ATOM     11  C   UNL     1       3.341   4.738  19.082  0.00  0.00    +0.000 A 
BRANCH  10  12
ATOM     12  N   UNL     1       2.597   3.016  20.703  0.00  0.00    +0.000 N 
ATOM     13  O   UNL     1       1.541   2.561  21.163  0.00  0.00    +0.000 OA
ATOM     14  O   UNL     1       3.663   2.390  20.633  0.00  0.00    +0.000 OA
ENDBRANCH  10  12
ENDBRANCH   2   5
BRANCH   1  15
ATOM     15  C   UNL     1       5.719   5.586  15.689  0.00  0.00    +0.000 C 
BRANCH  15  16
ATOM     16  C   UNL     1       6.789   4.519  15.517  0.00  0.00    +0.000 C 
ATOM     17  O   UNL     1       7.785   4.444  16.225  0.00  0.00    +0.000 OA
BRANCH  16  18
ATOM     18  O   UNL     1       6.427   3.627  14.558  0.00  0.00    +0.000 OA
BRANCH  18  19
ATOM     19  C   UNL     1       6.612   4.036  13.201  0.00  0.00    +0.000 C 
BRANCH  19  21
ATOM     20  N   UNL     1       4.522   3.622  11.967  0.00  0.00    +0.000 N 
ATOM     21  C   UNL     1       5.823   3.218  12.175  0.00  0.00    +0.000 C 
ATOM     22  O   UNL     1       6.340   2.280  11.571  0.00  0.00    +0.000 OA
ATOM     23  H   UNL     1       4.193   4.461  12.440  0.00  0.00    +0.000 HD
BRANCH  20  25
ATOM     24  C   UNL     1       3.210   3.945   9.911  0.00  0.00    +0.000 C 
ATOM     25  C   UNL     1       3.670   2.979  10.989  0.00  0.00    +0.000 C 
ENDBRANCH  20  25
ENDBRANCH  19  21
ENDBRANCH  18  19
ENDBRANCH  16  18
ENDBRANCH  15  16
ENDBRANCH   1  15
TORSDOF 8
ENDMDL
MODEL 7
REMARK VINA RESULT:      -6.9      2.794      7.154
REMARK  Name = 
REMARK  9 active torsions:
REMARK  status: ('A' for Active; 'I' for Inactive)
REMARK    1  A    between atoms: C_1  and  C_2
REMARK    2  A    between atoms: C_2  and  N_3
REMARK    3  A    between atoms: C_4  and  C_6
REMARK    4  A    between atoms: C_6  and  O_7
REMARK    5  A    between atoms: O_7  and  C_8
REMARK    6  A    between atoms: C_8  and  C_10
REMARK    7  A    between atoms: C_10  and  N_11
REMARK    8  A    between atoms: C_12  and  C_14
REMARK    9  A    between atoms: C_19  and  N_20
REMARK                            x       y       z     vdW  Elec       q    Type
REMARK                         _______ _______ _______ _____ _____    ______ ____
ROOT
ATOM      1  N   UNL     1       6.118   5.094  18.537  0.00  0.00    +0.000 N 
ATOM      2  C   UNL     1       4.964   4.389  18.276  0.00  0.00    +0.000 C 
ATOM      3  O   UNL     1       4.891   3.533  17.403  0.00  0.00    +0.000 OA
ATOM      4  H   UNL     1       6.246   5.545  19.435  0.00  0.00    +0.000 HD
ENDROOT
BRANCH   2   5
ATOM      5  C   UNL     1       3.787   4.660  19.143  0.00  0.00    +0.000 A 
ATOM      6  C   UNL     1       3.143   3.651  19.869  0.00  0.00    +0.000 A 
ATOM      7  C   UNL     1       2.053   3.973  20.681  0.00  0.00    +0.000 A 
ATOM      8 CL   UNL     1       1.266   2.729  21.572  0.00  0.00    +0.000 Cl
ATOM      9  C   UNL     1       1.594   5.285  20.784  0.00  0.00    +0.000 A 
ATOM     10  C   UNL     1       2.250   6.292  20.069  0.00  0.00    +0.000 A 
ATOM     11  C   UNL     1       3.347   5.985  19.255  0.00  0.00    +0.000 A 
BRANCH  10  12
ATOM     12  N   UNL     1       1.784   7.681  20.166  0.00  0.00    +0.000 N 
ATOM     13  O   UNL     1       1.314   8.055  21.249  0.00  0.00    +0.000 OA
ATOM     14  O   UNL     1       1.884   8.392  19.157  0.00  0.00    +0.000 OA
ENDBRANCH  10  12
ENDBRANCH   2   5
BRANCH   1  15
ATOM     15  C   UNL     1       7.312   4.830  17.749  0.00  0.00    +0.000 C 
BRANCH  15  16
ATOM     16  C   UNL     1       7.216   5.490  16.382  0.00  0.00    +0.000 C 
ATOM     17  O   UNL     1       6.849   6.647  16.217  0.00  0.00    +0.000 OA
BRANCH  16  18
ATOM     18  O   UNL     1       7.688   4.661  15.414  0.00  0.00    +0.000 OA
BRANCH  18  19
ATOM     19  C   UNL     1       7.302   4.960  14.071  0.00  0.00    +0.000 C 
BRANCH  19  21
ATOM     20  N   UNL     1       6.499   3.379  12.363  0.00  0.00    +0.000 N 
ATOM     21  C   UNL     1       6.188   4.069  13.515  0.00  0.00    +0.000 C 
ATOM     22  O   UNL     1       5.102   3.974  14.082  0.00  0.00    +0.000 OA
ATOM     23  H   UNL     1       7.448   3.442  12.001  0.00  0.00    +0.000 HD
BRANCH  20  25
ATOM     24  C   UNL     1       6.260   1.221  11.205  0.00  0.00    +0.000 C 
ATOM     25  C   UNL     1       5.565   2.457  11.750  0.00  0.00    +0.000 C 
ENDBRANCH  20  25
ENDBRANCH  19  21
ENDBRANCH  18  19
ENDBRANCH  16  18
ENDBRANCH  15  16
ENDBRANCH   1  15
TORSDOF 8
ENDMDL
MODEL 8
REMARK VINA RESULT:      -6.9      1.038      1.253
REMARK  Name = 
REMARK  9 active torsions:
REMARK  status: ('A' for Active; 'I' for Inactive)
REMARK    1  A    between atoms: C_1  and  C_2
REMARK    2  A    between atoms: C_2  and  N_3
REMARK    3  A    between atoms: C_4  and  C_6
REMARK    4  A    between atoms: C_6  and  O_7
REMARK    5  A    between atoms: O_7  and  C_8
REMARK    6  A    between atoms: C_8  and  C_10
REMARK    7  A    between atoms: C_10  and  N_11
REMARK    8  A    between atoms: C_12  and  C_14
REMARK    9  A    between atoms: C_19  and  N_20
REMARK                            x       y       z     vdW  Elec       q    Type
REMARK                         _______ _______ _______ _____ _____    ______ ____
ROOT
ATOM      1  N   UNL     1       3.271   3.105  17.838  0.00  0.00    +0.000 N 
ATOM      2  C   UNL     1       4.461   3.330  18.494  0.00  0.00    +0.000 C 
ATOM      3  O   UNL     1       4.738   2.806  19.566  0.00  0.00    +0.000 OA
ATOM      4  H   UNL     1       3.199   3.282  16.843  0.00  0.00    +0.000 HD
ENDROOT
BRANCH   2   5
ATOM      5  C   UNL     1       5.457   4.207  17.823  0.00  0.00    +0.000 A 
ATOM      6  C   UNL     1       6.214   5.154  18.523  0.00  0.00    +0.000 A 
ATOM      7  C   UNL     1       7.147   5.934  17.838  0.00  0.00    +0.000 A 
ATOM      8 CL   UNL     1       8.076   7.096  18.704  0.00  0.00    +0.000 Cl
ATOM      9  C   UNL     1       7.341   5.788  16.465  0.00  0.00    +0.000 A 
ATOM     10  C   UNL     1       6.593   4.829  15.773  0.00  0.00    +0.000 A 
ATOM     11  C   UNL     1       5.658   4.036  16.448  0.00  0.00    +0.000 A 
BRANCH  10  12
ATOM     12  N   UNL     1       6.785   4.657  14.328  0.00  0.00    +0.000 N 
ATOM     13  O   UNL     1       6.098   3.802  13.754  0.00  0.00    +0.000 OA
ATOM     14  O   UNL     1       7.625   5.377  13.771  0.00  0.00    +0.000 OA
ENDBRANCH  10  12
ENDBRANCH   2   5
BRANCH   1  15
ATOM     15  C   UNL     1       2.284   2.215  18.429  0.00  0.00    +0.000 C 
BRANCH  15  16
ATOM     16  C   UNL     1       1.639   2.855  19.648  0.00  0.00    +0.000 C 
ATOM     17  O   UNL     1       1.549   2.296  20.734  0.00  0.00    +0.000 OA
BRANCH  16  18
ATOM     18  O   UNL     1       1.286   4.141  19.385  0.00  0.00    +0.000 OA
BRANCH  18  19
ATOM     19  C   UNL     1       1.492   5.088  20.435  0.00  0.00    +0.000 C 
BRANCH  19  21
ATOM     20  N   UNL     1       2.535   6.476  18.689  0.00  0.00    +0.000 N 
ATOM     21  C   UNL     1       2.036   6.443  19.973  0.00  0.00    +0.000 C 
ATOM     22  O   UNL     1       2.002   7.430  20.706  0.00  0.00    +0.000 OA
ATOM     23  H   UNL     1       2.449   5.642  18.113  0.00  0.00    +0.000 HD
BRANCH  20  25
ATOM     24  C   UNL     1       1.910   8.634  17.686  0.00  0.00    +0.000 C 
ATOM     25  C   UNL     1       3.035   7.699  18.095  0.00  0.00    +0.000 C 
ENDBRANCH  20  25
ENDBRANCH  19  21
ENDBRANCH  18  19
ENDBRANCH  16  18
ENDBRANCH  15  16
ENDBRANCH   1  15
TORSDOF 8
ENDMDL
MODEL 9
REMARK VINA RESULT:      -6.9      2.712      6.183
REMARK  Name = 
REMARK  9 active torsions:
REMARK  status: ('A' for Active; 'I' for Inactive)
REMARK    1  A    between atoms: C_1  and  C_2
REMARK    2  A    between atoms: C_2  and  N_3
REMARK    3  A    between atoms: C_4  and  C_6
REMARK    4  A    between atoms: C_6  and  O_7
REMARK    5  A    between atoms: O_7  and  C_8
REMARK    6  A    between atoms: C_8  and  C_10
REMARK    7  A    between atoms: C_10  and  N_11
REMARK    8  A    between atoms: C_12  and  C_14
REMARK    9  A    between atoms: C_19  and  N_20
REMARK                            x       y       z     vdW  Elec       q    Type
REMARK                         _______ _______ _______ _____ _____    ______ ____
ROOT
ATOM      1  N   UNL     1       4.740   4.240  16.723  0.00  0.00    +0.000 N 
ATOM      2  C   UNL     1       4.038   3.363  17.520  0.00  0.00    +0.000 C 
ATOM      3  O   UNL     1       4.101   2.147  17.385  0.00  0.00    +0.000 OA
ATOM      4  H   UNL     1       4.921   5.184  17.043  0.00  0.00    +0.000 HD
ENDROOT
BRANCH   2   5
ATOM      5  C   UNL     1       3.221   3.941  18.619  0.00  0.00    +0.000 A 
ATOM      6  C   UNL     1       2.653   3.152  19.626  0.00  0.00    +0.000 A 
ATOM      7  C   UNL     1       1.911   3.758  20.642  0.00  0.00    +0.000 A 
ATOM      8 CL   UNL     1       1.215   2.783  21.877  0.00  0.00    +0.000 Cl
ATOM      9  C   UNL     1       1.726   5.140  20.674  0.00  0.00    +0.000 A 
ATOM     10  C   UNL     1       2.309   5.925  19.674  0.00  0.00    +0.000 A 
ATOM     11  C   UNL     1       3.060   5.332  18.652  0.00  0.00    +0.000 A 
BRANCH  10  12
ATOM     12  N   UNL     1       2.128   7.382  19.691  0.00  0.00    +0.000 N 
ATOM     13  O   UNL     1       1.663   7.892  20.719  0.00  0.00    +0.000 OA
ATOM     14  O   UNL     1       2.448   8.012  18.674  0.00  0.00    +0.000 OA
ENDBRANCH  10  12
ENDBRANCH   2   5
BRANCH   1  15
ATOM     15  C   UNL     1       5.593   3.722  15.665  0.00  0.00    +0.000 C 
BRANCH  15  16
ATOM     16  C   UNL     1       6.672   4.728  15.298  0.00  0.00    +0.000 C 
ATOM     17  O   UNL     1       6.482   5.678  14.549  0.00  0.00    +0.000 OA
BRANCH  16  18
ATOM     18  O   UNL     1       7.815   4.481  15.993  0.00  0.00    +0.000 OA
BRANCH  18  19
ATOM     19  C   UNL     1       7.719   4.530  17.418  0.00  0.00    +0.000 C 
BRANCH  19  21
ATOM     20  N   UNL     1       7.706   6.980  17.176  0.00  0.00    +0.000 N 
ATOM     21  C   UNL     1       7.390   5.913  17.988  0.00  0.00    +0.000 C 
ATOM     22  O   UNL     1       6.860   6.041  19.090  0.00  0.00    +0.000 OA
ATOM     23  H   UNL     1       8.063   6.790  16.242  0.00  0.00    +0.000 HD
BRANCH  20  25
ATOM     24  C   UNL     1       8.556   8.994  18.306  0.00  0.00    +0.000 C 
ATOM     25  C   UNL     1       7.405   8.345  17.557  0.00  0.00    +0.000 C 
ENDBRANCH  20  25
ENDBRANCH  19  21
ENDBRANCH  18  19
ENDBRANCH  16  18
ENDBRANCH  15  16
ENDBRANCH   1  15
TORSDOF 8
ENDMDL
