MODEL 1
REMARK VINA RESULT:      -7.7      0.000      0.000
REMARK  Name = 
REMARK  5 active torsions:
REMARK  status: ('A' for Active; 'I' for Inactive)
REMARK    1  A    between atoms: C_1  and  C_2
REMARK    2  A    between atoms: C_2  and  O_4
REMARK    3  A    between atoms: O_4  and  C_5
REMARK    4  A    between atoms: C_5  and  C_6
REMARK    5  A    between atoms: C_9  and  C_10
REMARK                            x       y       z     vdW  Elec       q    Type
REMARK                         _______ _______ _______ _____ _____    ______ ____
ROOT
ATOM      1  C   UNL     1       2.977   6.664  17.977  0.00  0.00    +0.000 A 
ATOM      2  N   UNL     1       4.102   7.271  17.431  0.00  0.00    +0.000 NA
ATOM      3  N   UNL     1       4.927   6.336  16.970  0.00  0.00    +0.000 NA
ATOM      4  N   UNL     1       4.350   5.154  17.224  0.00  0.00    +0.000 N 
ATOM      5  C   UNL     1       4.909   3.921  16.872  0.00  0.00    +0.000 A 
ATOM      6  N   UNL     1       4.307   2.783  17.134  0.00  0.00    +0.000 NA
ATOM      7  C   UNL     1       3.105   2.921  17.771  0.00  0.00    +0.000 A 
ATOM      8  N   UNL     1       2.328   1.855  18.134  0.00  0.00    +0.000 N 
ATOM      9  C   UNL     1       1.186   2.318  18.751  0.00  0.00    +0.000 A 
ATOM     10  C   UNL     1       1.228   3.701  18.780  0.00  0.00    +0.000 A 
ATOM     11  C   UNL     1       2.431   4.066  18.168  0.00  0.00    +0.000 A 
ATOM     12  C   UNL     1       3.141   5.308  17.856  0.00  0.00    +0.000 A 
ATOM     13  H   UNL     1       2.571   0.889  17.970  0.00  0.00    +0.000 HD
ENDROOT
BRANCH   1  17
ATOM     14  C   UNL     1       1.093  10.118  19.797  0.00  0.00    +0.000 C 
ATOM     15  C   UNL     1       0.964   8.780  20.536  0.00  0.00    +0.000 C 
ATOM     16  C   UNL     1       1.962   7.744  20.009  0.00  0.00    +0.000 C 
ATOM     17  C   UNL     1       1.861   7.528  18.486  0.00  0.00    +0.000 C 
ATOM     18  C   UNL     1       1.882   8.877  17.740  0.00  0.00    +0.000 C 
ATOM     19  C   UNL     1       0.901   9.906  18.289  0.00  0.00    +0.000 C 
BRANCH  14  20
ATOM     20  C   UNL     1       0.098  11.156  20.341  0.00  0.00    +0.000 C 
BRANCH  20  21
ATOM     21  O   UNL     1       0.401  11.493  21.710  0.00  0.00    +0.000 OA
BRANCH  21  23
ATOM     22  C   UNL     1      -1.819  11.920  22.349  0.00  0.00    +0.000 C 
ATOM     23  C   UNL     1      -0.555  11.164  22.620  0.00  0.00    +0.000 C 
ATOM     24  O   UNL     1      -0.420  10.369  23.540  0.00  0.00    +0.000 OA
ENDBRANCH  21  23
ENDBRANCH  20  21
ENDBRANCH  14  20
ENDBRANCH   1  17
TORSDOF 4
ENDMDL
MODEL 2
REMARK VINA RESULT:      -7.6      4.730      8.316
REMARK  Name = 
REMARK  5 active torsions:
REMARK  status: ('A' for Active; 'I' for Inactive)
REMARK    1  A    between atoms: C_1  and  C_2
REMARK    2  A    between atoms: C_2  and  O_4
REMARK    3  A    between atoms: O_4  and  C_5
REMARK    4  A    between atoms: C_5  and  C_6
REMARK    5  A    between atoms: C_9  and  C_10
REMARK                            x       y       z     vdW  Elec       q    Type
REMARK                         _______ _______ _______ _____ _____    ______ ____
ROOT
ATOM      1  C   UNL     1       2.840   5.991  18.827  0.00  0.00    +0.000 A 
ATOM      2  N   UNL     1       2.763   5.004  19.802  0.00  0.00    +0.000 NA
ATOM      3  N   UNL     1       2.100   5.474  20.854  0.00  0.00    +0.000 NA
ATOM      4  N   UNL     1       1.768   6.739  20.565  0.00  0.00    +0.000 N 
ATOM      5  C   UNL     1       1.044   7.571  21.425  0.00  0.00    +0.000 A 
ATOM      6  N   UNL     1       0.733   8.807  21.102  0.00  0.00    +0.000 NA
ATOM      7  C   UNL     1       1.178   9.189  19.868  0.00  0.00    +0.000 A 
ATOM      8  N   UNL     1       0.961  10.437  19.351  0.00  0.00    +0.000 N 
ATOM      9  C   UNL     1       1.528  10.512  18.098  0.00  0.00    +0.000 A 
ATOM     10  C   UNL     1       2.113   9.294  17.802  0.00  0.00    +0.000 A 
ATOM     11  C   UNL     1       1.891   8.476  18.915  0.00  0.00    +0.000 A 
ATOM     12  C   UNL     1       2.215   7.107  19.321  0.00  0.00    +0.000 A 
ATOM     13  H   UNL     1       0.465  11.174  19.830  0.00  0.00    +0.000 HD
ENDROOT
BRANCH   1  17
ATOM     14  C   UNL     1       5.999   4.947  16.047  0.00  0.00    +0.000 C 
ATOM     15  C   UNL     1       5.331   6.316  15.866  0.00  0.00    +0.000 C 
ATOM     16  C   UNL     1       4.520   6.718  17.102  0.00  0.00    +0.000 C 
ATOM     17  C   UNL     1       3.473   5.661  17.508  0.00  0.00    +0.000 C 
ATOM     18  C   UNL     1       4.115   4.261  17.589  0.00  0.00    +0.000 C 
ATOM     19  C   UNL     1       4.939   3.884  16.363  0.00  0.00    +0.000 C 
BRANCH  14  20
ATOM     20  C   UNL     1       6.823   4.558  14.809  0.00  0.00    +0.000 C 
BRANCH  20  21
ATOM     21  O   UNL     1       6.076   3.673  13.950  0.00  0.00    +0.000 OA
BRANCH  21  23
ATOM     22  C   UNL     1       5.534   2.794  11.840  0.00  0.00    +0.000 C 
ATOM     23  C   UNL     1       6.411   3.714  12.632  0.00  0.00    +0.000 C 
ATOM     24  O   UNL     1       7.301   4.396  12.144  0.00  0.00    +0.000 OA
ENDBRANCH  21  23
ENDBRANCH  20  21
ENDBRANCH  14  20
ENDBRANCH   1  17
TORSDOF 4
ENDMDL
MODEL 3
REMARK VINA RESULT:      -7.6      2.127      2.537
REMARK  Name = 
REMARK  5 active torsions:
REMARK  status: ('A' for Active; 'I' for Inactive)
REMARK    1  A    between atoms: C_1  and  C_2
REMARK    2  A    between atoms: C_2  and  O_4
REMARK    3  A    between atoms: O_4  and  C_5
REMARK    4  A    between atoms: C_5  and  C_6
REMARK    5  A    between atoms: C_9  and  C_10
REMARK                            x       y       z     vdW  Elec       q    Type
REMARK                         _______ _______ _______ _____ _____    ______ ____
ROOT
ATOM      1  C   UNL     1       3.159   6.578  18.609  0.00  0.00    +0.000 A 
ATOM      2  N   UNL     1       4.205   6.891  17.748  0.00  0.00    +0.000 NA
ATOM      3  N   UNL     1       5.083   5.894  17.741  0.00  0.00    +0.000 NA
ATOM      4  N   UNL     1       4.619   4.966  18.588  0.00  0.00    +0.000 N 
ATOM      5  C   UNL     1       5.263   3.751  18.843  0.00  0.00    +0.000 A 
ATOM      6  N   UNL     1       4.771   2.862  19.677  0.00  0.00    +0.000 NA
ATOM      7  C   UNL     1       3.591   3.236  20.257  0.00  0.00    +0.000 A 
ATOM      8  N   UNL     1       2.922   2.451  21.157  0.00  0.00    +0.000 N 
ATOM      9  C   UNL     1       1.774   3.101  21.556  0.00  0.00    +0.000 A 
ATOM     10  C   UNL     1       1.701   4.316  20.900  0.00  0.00    +0.000 A 
ATOM     11  C   UNL     1       2.841   4.392  20.094  0.00  0.00    +0.000 A 
ATOM     12  C   UNL     1       3.431   5.350  19.157  0.00  0.00    +0.000 A 
ATOM     13  H   UNL     1       3.238   1.545  21.469  0.00  0.00    +0.000 HD
ENDROOT
BRANCH   1  17
ATOM     14  C   UNL     1       1.077  10.295  19.408  0.00  0.00    +0.000 C 
ATOM     15  C   UNL     1       0.728   9.094  20.295  0.00  0.00    +0.000 C 
ATOM     16  C   UNL     1       1.771   7.977  20.171  0.00  0.00    +0.000 C 
ATOM     17  C   UNL     1       1.998   7.522  18.716  0.00  0.00    +0.000 C 
ATOM     18  C   UNL     1       2.244   8.735  17.796  0.00  0.00    +0.000 C 
ATOM     19  C   UNL     1       1.213   9.848  17.947  0.00  0.00    +0.000 C 
BRANCH  14  20
ATOM     20  C   UNL     1       0.035  11.417  19.549  0.00  0.00    +0.000 C 
BRANCH  20  21
ATOM     21  O   UNL     1      -1.303  10.895  19.424  0.00  0.00    +0.000 OA
BRANCH  21  23
ATOM     22  C   UNL     1      -2.684   9.881  17.816  0.00  0.00    +0.000 C 
ATOM     23  C   UNL     1      -1.899  11.092  18.216  0.00  0.00    +0.000 C 
ATOM     24  O   UNL     1      -1.814  12.105  17.536  0.00  0.00    +0.000 OA
ENDBRANCH  21  23
ENDBRANCH  20  21
ENDBRANCH  14  20
ENDBRANCH   1  17
TORSDOF 4
ENDMDL
MODEL 4
REMARK VINA RESULT:      -7.5      2.487      3.773
REMARK  Name = 
REMARK  5 active torsions:
REMARK  status: ('A' for Active; 'I' for Inactive)
REMARK    1  A    between atoms: C_1  and  C_2
REMARK    2  A    between atoms: C_2  and  O_4
REMARK    3  A    between atoms: O_4  and  C_5
REMARK    4  A    between atoms: C_5  and  C_6
REMARK    5  A    between atoms: C_9  and  C_10
REMARK                            x       y       z     vdW  Elec       q    Type
REMARK                         _______ _______ _______ _____ _____    ______ ____
ROOT
ATOM      1  C   UNL     1       2.375   6.161  20.005  0.00  0.00    +0.000 A 
ATOM      2  N   UNL     1       1.398   5.498  20.738  0.00  0.00    +0.000 NA
ATOM      3  N   UNL     1       1.744   4.223  20.880  0.00  0.00    +0.000 NA
ATOM      4  N   UNL     1       2.912   4.068  20.243  0.00  0.00    +0.000 N 
ATOM      5  C   UNL     1       3.612   2.858  20.180  0.00  0.00    +0.000 A 
ATOM      6  N   UNL     1       4.759   2.748  19.549  0.00  0.00    +0.000 NA
ATOM      7  C   UNL     1       5.192   3.910  18.973  0.00  0.00    +0.000 A 
ATOM      8  N   UNL     1       6.361   4.002  18.267  0.00  0.00    +0.000 N 
ATOM      9  C   UNL     1       6.517   5.294  17.817  0.00  0.00    +0.000 A 
ATOM     10  C   UNL     1       5.436   6.045  18.244  0.00  0.00    +0.000 A 
ATOM     11  C   UNL     1       4.615   5.171  18.962  0.00  0.00    +0.000 A 
ATOM     12  C   UNL     1       3.338   5.242  19.676  0.00  0.00    +0.000 A 
ATOM     13  H   UNL     1       6.993   3.231  18.109  0.00  0.00    +0.000 HD
ENDROOT
BRANCH   1  17
ATOM     14  C   UNL     1       0.448   9.901  18.959  0.00  0.00    +0.000 C 
ATOM     15  C   UNL     1       1.621   9.449  18.081  0.00  0.00    +0.000 C 
ATOM     16  C   UNL     1       1.963   7.973  18.309  0.00  0.00    +0.000 C 
ATOM     17  C   UNL     1       2.242   7.640  19.788  0.00  0.00    +0.000 C 
ATOM     18  C   UNL     1       1.118   8.186  20.692  0.00  0.00    +0.000 C 
ATOM     19  C   UNL     1       0.771   9.649  20.438  0.00  0.00    +0.000 C 
BRANCH  14  20
ATOM     20  C   UNL     1       0.101  11.379  18.713  0.00  0.00    +0.000 C 
BRANCH  20  21
ATOM     21  O   UNL     1       1.002  12.246  19.430  0.00  0.00    +0.000 OA
BRANCH  21  23
ATOM     22  C   UNL     1       2.740  13.306  18.257  0.00  0.00    +0.000 C 
ATOM     23  C   UNL     1       1.343  13.397  18.789  0.00  0.00    +0.000 C 
ATOM     24  O   UNL     1       0.627  14.380  18.658  0.00  0.00    +0.000 OA
ENDBRANCH  21  23
ENDBRANCH  20  21
ENDBRANCH  14  20
ENDBRANCH   1  17
TORSDOF 4
ENDMDL
MODEL 5
REMARK VINA RESULT:      -7.5      1.437      1.449
REMARK  Name = 
REMARK  5 active torsions:
REMARK  status: ('A' for Active; 'I' for Inactive)
REMARK    1  A    between atoms: C_1  and  C_2
REMARK    2  A    between atoms: C_2  and  O_4
REMARK    3  A    between atoms: O_4  and  C_5
REMARK    4  A    between atoms: C_5  and  C_6
REMARK    5  A    between atoms: C_9  and  C_10
REMARK                            x       y       z     vdW  Elec       q    Type
REMARK                         _______ _______ _______ _____ _____    ______ ____
ROOT
ATOM      1  C   UNL     1       2.996   6.741  18.636  0.00  0.00    +0.000 A 
ATOM      2  N   UNL     1       3.937   7.098  17.677  0.00  0.00    +0.000 NA
ATOM      3  N   UNL     1       4.816   6.112  17.533  0.00  0.00    +0.000 NA
ATOM      4  N   UNL     1       4.455   5.147  18.389  0.00  0.00    +0.000 N 
ATOM      5  C   UNL     1       5.132   3.930  18.523  0.00  0.00    +0.000 A 
ATOM      6  N   UNL     1       4.741   3.005  19.371  0.00  0.00    +0.000 NA
ATOM      7  C   UNL     1       3.631   3.343  20.093  0.00  0.00    +0.000 A 
ATOM      8  N   UNL     1       3.071   2.518  21.031  0.00  0.00    +0.000 N 
ATOM      9  C   UNL     1       1.971   3.139  21.580  0.00  0.00    +0.000 A 
ATOM     10  C   UNL     1       1.818   4.378  20.984  0.00  0.00    +0.000 A 
ATOM     11  C   UNL     1       2.860   4.496  20.060  0.00  0.00    +0.000 A 
ATOM     12  C   UNL     1       3.335   5.496  19.101  0.00  0.00    +0.000 A 
ATOM     13  H   UNL     1       3.427   1.604  21.270  0.00  0.00    +0.000 HD
ENDROOT
BRANCH   1  17
ATOM     14  C   UNL     1       0.979  10.335  19.978  0.00  0.00    +0.000 C 
ATOM     15  C   UNL     1       0.657   9.034  20.722  0.00  0.00    +0.000 C 
ATOM     16  C   UNL     1       1.685   7.939  20.417  0.00  0.00    +0.000 C 
ATOM     17  C   UNL     1       1.848   7.667  18.908  0.00  0.00    +0.000 C 
ATOM     18  C   UNL     1       2.066   8.985  18.137  0.00  0.00    +0.000 C 
ATOM     19  C   UNL     1       1.051  10.073  18.468  0.00  0.00    +0.000 C 
BRANCH  14  20
ATOM     20  C   UNL     1      -0.048  11.433  20.301  0.00  0.00    +0.000 C 
BRANCH  20  21
ATOM     21  O   UNL     1       0.171  11.973  21.620  0.00  0.00    +0.000 OA
BRANCH  21  23
ATOM     22  C   UNL     1      -2.031  12.371  22.334  0.00  0.00    +0.000 C 
ATOM     23  C   UNL     1      -0.752  11.625  22.557  0.00  0.00    +0.000 C 
ATOM     24  O   UNL     1      -0.580  10.822  23.464  0.00  0.00    +0.000 OA
ENDBRANCH  21  23
ENDBRANCH  20  21
ENDBRANCH  14  20
ENDBRANCH   1  17
TORSDOF 4
ENDMDL
MODEL 6
REMARK VINA RESULT:      -7.5      2.040      3.260
REMARK  Name = 
REMARK  5 active torsions:
REMARK  status: ('A' for Active; 'I' for Inactive)
REMARK    1  A    between atoms: C_1  and  C_2
REMARK    2  A    between atoms: C_2  and  O_4
REMARK    3  A    between atoms: O_4  and  C_5
REMARK    4  A    between atoms: C_5  and  C_6
REMARK    5  A    between atoms: C_9  and  C_10
REMARK                            x       y       z     vdW  Elec       q    Type
REMARK                         _______ _______ _______ _____ _____    ______ ____
ROOT
ATOM      1  C   UNL     1       2.232   5.692  19.708  0.00  0.00    +0.000 A 
ATOM      2  N   UNL     1       1.398   5.073  20.633  0.00  0.00    +0.000 NA
ATOM      3  N   UNL     1       1.536   3.755  20.538  0.00  0.00    +0.000 NA
ATOM      4  N   UNL     1       2.430   3.531  19.566  0.00  0.00    +0.000 N 
ATOM      5  C   UNL     1       2.855   2.256  19.176  0.00  0.00    +0.000 A 
ATOM      6  N   UNL     1       3.740   2.078  18.221  0.00  0.00    +0.000 NA
ATOM      7  C   UNL     1       4.194   3.238  17.658  0.00  0.00    +0.000 A 
ATOM      8  N   UNL     1       5.114   3.265  16.645  0.00  0.00    +0.000 N 
ATOM      9  C   UNL     1       5.366   4.574  16.299  0.00  0.00    +0.000 A 
ATOM     10  C   UNL     1       4.602   5.401  17.103  0.00  0.00    +0.000 A 
ATOM     11  C   UNL     1       3.873   4.556  17.946  0.00  0.00    +0.000 A 
ATOM     12  C   UNL     1       2.883   4.703  19.016  0.00  0.00    +0.000 A 
ATOM     13  H   UNL     1       5.527   2.444  16.229  0.00  0.00    +0.000 HD
ENDROOT
BRANCH   1  17
ATOM     14  C   UNL     1       0.842   9.772  19.252  0.00  0.00    +0.000 C 
ATOM     15  C   UNL     1       1.903   9.280  18.261  0.00  0.00    +0.000 C 
ATOM     16  C   UNL     1       2.032   7.753  18.281  0.00  0.00    +0.000 C 
ATOM     17  C   UNL     1       2.311   7.190  19.689  0.00  0.00    +0.000 C 
ATOM     18  C   UNL     1       1.313   7.764  20.715  0.00  0.00    +0.000 C 
ATOM     19  C   UNL     1       1.177   9.282  20.667  0.00  0.00    +0.000 C 
BRANCH  14  20
ATOM     20  C   UNL     1       0.709  11.304  19.215  0.00  0.00    +0.000 C 
BRANCH  20  21
ATOM     21  O   UNL     1       1.037  11.881  20.494  0.00  0.00    +0.000 OA
BRANCH  21  23
ATOM     22  C   UNL     1       2.361  13.187  19.059  0.00  0.00    +0.000 C 
ATOM     23  C   UNL     1       1.878  12.951  20.456  0.00  0.00    +0.000 C 
ATOM     24  O   UNL     1       2.208  13.633  21.416  0.00  0.00    +0.000 OA
ENDBRANCH  21  23
ENDBRANCH  20  21
ENDBRANCH  14  20
ENDBRANCH   1  17
TORSDOF 4
ENDMDL
MODEL 7
REMARK VINA RESULT:      -7.5      2.176      3.289
REMARK  Name = 
REMARK  5 active torsions:
REMARK  status: ('A' for Active; 'I' for Inactive)
REMARK    1  A    between atoms: C_1  and  C_2
REMARK    2  A    between atoms: C_2  and  O_4
REMARK    3  A    between atoms: O_4  and  C_5
REMARK    4  A    between atoms: C_5  and  C_6
REMARK    5  A    between atoms: C_9  and  C_10
REMARK                            x       y       z     vdW  Elec       q    Type
REMARK                         _______ _______ _______ _____ _____    ______ ____
ROOT
ATOM      1  C   UNL     1       2.279   5.872  19.713  0.00  0.00    +0.000 A 
ATOM      2  N   UNL     1       1.516   5.245  20.691  0.00  0.00    +0.000 NA
ATOM      3  N   UNL     1       1.707   3.931  20.623  0.00  0.00    +0.000 NA
ATOM      4  N   UNL     1       2.564   3.718  19.616  0.00  0.00    +0.000 N 
ATOM      5  C   UNL     1       3.026   2.453  19.239  0.00  0.00    +0.000 A 
ATOM      6  N   UNL     1       3.873   2.286  18.248  0.00  0.00    +0.000 NA
ATOM      7  C   UNL     1       4.250   3.449  17.636  0.00  0.00    +0.000 A 
ATOM      8  N   UNL     1       5.120   3.487  16.580  0.00  0.00    +0.000 N 
ATOM      9  C   UNL     1       5.299   4.795  16.189  0.00  0.00    +0.000 A 
ATOM     10  C   UNL     1       4.537   5.611  17.007  0.00  0.00    +0.000 A 
ATOM     11  C   UNL     1       3.885   4.760  17.905  0.00  0.00    +0.000 A 
ATOM     12  C   UNL     1       2.940   4.893  19.016  0.00  0.00    +0.000 A 
ATOM     13  H   UNL     1       5.549   2.673  16.166  0.00  0.00    +0.000 HD
ENDROOT
BRANCH   1  17
ATOM     14  C   UNL     1       0.697   9.875  19.201  0.00  0.00    +0.000 C 
ATOM     15  C   UNL     1       1.744   9.402  18.185  0.00  0.00    +0.000 C 
ATOM     16  C   UNL     1       1.940   7.883  18.241  0.00  0.00    +0.000 C 
ATOM     17  C   UNL     1       2.292   7.371  19.652  0.00  0.00    +0.000 C 
ATOM     18  C   UNL     1       1.306   7.930  20.697  0.00  0.00    +0.000 C 
ATOM     19  C   UNL     1       1.102   9.439  20.615  0.00  0.00    +0.000 C 
BRANCH  14  20
ATOM     20  C   UNL     1       0.496  11.398  19.128  0.00  0.00    +0.000 C 
BRANCH  20  21
ATOM     21  O   UNL     1      -0.583  11.734  18.233  0.00  0.00    +0.000 OA
BRANCH  21  23
ATOM     22  C   UNL     1      -2.524  10.489  17.781  0.00  0.00    +0.000 C 
ATOM     23  C   UNL     1      -1.834  11.457  18.692  0.00  0.00    +0.000 C 
ATOM     24  O   UNL     1      -2.343  11.924  19.701  0.00  0.00    +0.000 OA
ENDBRANCH  21  23
ENDBRANCH  20  21
ENDBRANCH  14  20
ENDBRANCH   1  17
TORSDOF 4
ENDMDL
MODEL 8
REMARK VINA RESULT:      -7.5      5.139      8.034
REMARK  Name = 
REMARK  5 active torsions:
REMARK  status: ('A' for Active; 'I' for Inactive)
REMARK    1  A    between atoms: C_1  and  C_2
REMARK    2  A    between atoms: C_2  and  O_4
REMARK    3  A    between atoms: O_4  and  C_5
REMARK    4  A    between atoms: C_5  and  C_6
REMARK    5  A    between atoms: C_9  and  C_10
REMARK                            x       y       z     vdW  Elec       q    Type
REMARK                         _______ _______ _______ _____ _____    ______ ____
ROOT
ATOM      1  C   UNL     1       3.917   6.142  17.832  0.00  0.00    +0.000 A 
ATOM      2  N   UNL     1       3.591   7.459  17.523  0.00  0.00    +0.000 NA
ATOM      3  N   UNL     1       2.715   7.915  18.412  0.00  0.00    +0.000 NA
ATOM      4  N   UNL     1       2.473   6.911  19.265  0.00  0.00    +0.000 N 
ATOM      5  C   UNL     1       1.607   7.009  20.360  0.00  0.00    +0.000 A 
ATOM      6  N   UNL     1       1.402   6.001  21.178  0.00  0.00    +0.000 NA
ATOM      7  C   UNL     1       2.105   4.872  20.860  0.00  0.00    +0.000 A 
ATOM      8  N   UNL     1       2.024   3.715  21.587  0.00  0.00    +0.000 N 
ATOM      9  C   UNL     1       2.846   2.767  21.018  0.00  0.00    +0.000 A 
ATOM     10  C   UNL     1       3.467   3.324  19.914  0.00  0.00    +0.000 A 
ATOM     11  C   UNL     1       2.996   4.637  19.824  0.00  0.00    +0.000 A 
ATOM     12  C   UNL     1       3.191   5.788  18.939  0.00  0.00    +0.000 A 
ATOM     13  H   UNL     1       1.444   3.595  22.404  0.00  0.00    +0.000 HD
ENDROOT
BRANCH   1  17
ATOM     14  C   UNL     1       5.699   4.311  14.330  0.00  0.00    +0.000 C 
ATOM     15  C   UNL     1       5.421   3.399  15.531  0.00  0.00    +0.000 C 
ATOM     16  C   UNL     1       4.470   4.060  16.535  0.00  0.00    +0.000 C 
ATOM     17  C   UNL     1       4.960   5.441  17.012  0.00  0.00    +0.000 C 
ATOM     18  C   UNL     1       5.343   6.329  15.811  0.00  0.00    +0.000 C 
ATOM     19  C   UNL     1       6.271   5.652  14.809  0.00  0.00    +0.000 C 
BRANCH  14  20
ATOM     20  C   UNL     1       6.642   3.635  13.321  0.00  0.00    +0.000 C 
BRANCH  20  21
ATOM     21  O   UNL     1       6.126   3.745  11.979  0.00  0.00    +0.000 OA
BRANCH  21  23
ATOM     22  C   UNL     1       3.960   3.204  11.247  0.00  0.00    +0.000 C 
ATOM     23  C   UNL     1       5.338   2.714  11.568  0.00  0.00    +0.000 C 
ATOM     24  O   UNL     1       5.685   1.545  11.472  0.00  0.00    +0.000 OA
ENDBRANCH  21  23
ENDBRANCH  20  21
ENDBRANCH  14  20
ENDBRANCH   1  17
TORSDOF 4
ENDMDL
MODEL 9
REMARK VINA RESULT:      -7.4      1.661      3.153
REMARK  Name = 
REMARK  5 active torsions:
REMARK  status: ('A' for Active; 'I' for Inactive)
REMARK    1  A    between atoms: C_1  and  C_2
REMARK    2  A    between atoms: C_2  and  O_4
REMARK    3  A    between atoms: O_4  and  C_5
REMARK    4  A    between atoms: C_5  and  C_6
REMARK    5  A    between atoms: C_9  and  C_10
REMARK                            x       y       z     vdW  Elec       q    Type
REMARK                         _______ _______ _______ _____ _____    ______ ____
ROOT
ATOM      1  C   UNL     1       2.895   6.327  18.146  0.00  0.00    +0.000 A 
ATOM      2  N   UNL     1       1.890   5.366  18.098  0.00  0.00    +0.000 NA
ATOM      3  N   UNL     1       2.375   4.248  17.569  0.00  0.00    +0.000 NA
ATOM      4  N   UNL     1       3.659   4.488  17.272  0.00  0.00    +0.000 N 
ATOM      5  C   UNL     1       4.520   3.540  16.708  0.00  0.00    +0.000 A 
ATOM      6  N   UNL     1       5.776   3.813  16.437  0.00  0.00    +0.000 NA
ATOM      7  C   UNL     1       6.151   5.088  16.756  0.00  0.00    +0.000 A 
ATOM      8  N   UNL     1       7.416   5.567  16.547  0.00  0.00    +0.000 N 
ATOM      9  C   UNL     1       7.478   6.877  16.970  0.00  0.00    +0.000 A 
ATOM     10  C   UNL     1       6.238   7.243  17.463  0.00  0.00    +0.000 A 
ATOM     11  C   UNL     1       5.417   6.120  17.323  0.00  0.00    +0.000 A 
ATOM     12  C   UNL     1       4.024   5.768  17.605  0.00  0.00    +0.000 A 
ATOM     13  H   UNL     1       8.169   5.031  16.141  0.00  0.00    +0.000 HD
ENDROOT
BRANCH   1  17
ATOM     14  C   UNL     1       0.495   9.560  19.750  0.00  0.00    +0.000 C 
ATOM     15  C   UNL     1       1.342   9.867  18.510  0.00  0.00    +0.000 C 
ATOM     16  C   UNL     1       1.835   8.586  17.830  0.00  0.00    +0.000 C 
ATOM     17  C   UNL     1       2.603   7.652  18.786  0.00  0.00    +0.000 C 
ATOM     18  C   UNL     1       1.804   7.422  20.085  0.00  0.00    +0.000 C 
ATOM     19  C   UNL     1       1.299   8.704  20.738  0.00  0.00    +0.000 C 
BRANCH  14  20
ATOM     20  C   UNL     1      -0.008  10.851  20.418  0.00  0.00    +0.000 C 
BRANCH  20  21
ATOM     21  O   UNL     1       0.470  10.950  21.775  0.00  0.00    +0.000 OA
BRANCH  21  23
ATOM     22  C   UNL     1      -1.585  11.764  22.570  0.00  0.00    +0.000 C 
ATOM     23  C   UNL     1      -0.471  10.778  22.743  0.00  0.00    +0.000 C 
ATOM     24  O   UNL     1      -0.430   9.946  23.638  0.00  0.00    +0.000 OA
ENDBRANCH  21  23
ENDBRANCH  20  21
ENDBRANCH  14  20
ENDBRANCH   1  17
TORSDOF 4
ENDMDL
