MODEL 1
REMARK VINA RESULT:      -8.6      0.000      0.000
REMARK  Name = 
REMARK  6 active torsions:
REMARK  status: ('A' for Active; 'I' for Inactive)
REMARK    1  A    between atoms: C_1  and  C_2
REMARK    2  A    between atoms: C_4  and  C_5
REMARK    3  A    between atoms: N_7  and  S_8
REMARK    4  A    between atoms: S_8  and  C_11
REMARK    5  A    between atoms: C_14  and  C_15
REMARK    6  A    between atoms: C_21  and  C_22
REMARK                            x       y       z     vdW  Elec       q    Type
REMARK                         _______ _______ _______ _____ _____    ______ ____
ROOT
ATOM      1  C   UNL     1       2.423   6.071  19.054  0.00  0.00    +0.000 A 
ATOM      2  C   UNL     1       1.924   6.243  20.346  0.00  0.00    +0.000 A 
ATOM      3  C   UNL     1       1.416   7.488  20.731  0.00  0.00    +0.000 A 
ATOM      4  C   UNL     1       1.449   8.600  19.861  0.00  0.00    +0.000 A 
ATOM      5  C   UNL     1       1.971   8.411  18.572  0.00  0.00    +0.000 A 
ATOM      6  C   UNL     1       2.449   7.153  18.169  0.00  0.00    +0.000 A 
ENDROOT
BRANCH   4   7
ATOM      7  C   UNL     1       0.923   9.904  20.383  0.00  0.00    +0.000 C 
ATOM      8  O   UNL     1       1.279  10.941  19.834  0.00  0.00    +0.000 OA
ATOM      9  N   UNL     1       0.100   9.849  21.491  0.00  0.00    +0.000 N 
ATOM     10  C   UNL     1      -0.428  10.975  22.061  0.00  0.00    +0.000 A 
ATOM     11  N   UNL     1      -0.926  11.064  23.274  0.00  0.00    +0.000 NA
ATOM     12  N   UNL     1      -1.367  12.363  23.417  0.00  0.00    +0.000 NA
ATOM     13  C   UNL     1      -1.162  12.968  22.257  0.00  0.00    +0.000 A 
ATOM     14  O   UNL     1      -0.542  12.134  21.357  0.00  0.00    +0.000 OA
ATOM     15  H   UNL     1      -0.012   9.019  22.046  0.00  0.00    +0.000 HD
BRANCH  13  16
ATOM     16  C   UNL     1      -1.593  14.306  21.971  0.00  0.00    +0.000 A 
ATOM     17  C   UNL     1      -2.233  15.176  22.834  0.00  0.00    +0.000 A 
ATOM     18  C   UNL     1      -2.549  16.423  22.219  0.00  0.00    +0.000 A 
ATOM     19  C   UNL     1      -2.142  16.463  20.905  0.00  0.00    +0.000 A 
ATOM     20  S   UNL     1      -1.378  15.010  20.425  0.00  0.00    +0.000 S 
ENDBRANCH  13  16
ENDBRANCH   4   7
BRANCH   1  21
ATOM     21  S   UNL     1       3.026   4.457  18.537  0.00  0.00    +0.000 S 
ATOM     22  O   UNL     1       2.095   3.942  17.560  0.00  0.00    +0.000 OA
ATOM     23  O   UNL     1       3.330   3.708  19.746  0.00  0.00    +0.000 OA
BRANCH  21  30
ATOM     24  C   UNL     1       6.040   5.269  15.004  0.00  0.00    +0.000 C 
ATOM     25  C   UNL     1       6.269   4.169  16.041  0.00  0.00    +0.000 C 
ATOM     26  C   UNL     1       7.348   4.546  17.056  0.00  0.00    +0.000 C 
ATOM     27  C   UNL     1       6.871   5.682  17.963  0.00  0.00    +0.000 C 
ATOM     28  C   UNL     1       7.951   6.031  18.985  0.00  0.00    +0.000 C 
ATOM     29  C   UNL     1       5.573   5.287  18.666  0.00  0.00    +0.000 C 
ATOM     30  N   UNL     1       4.515   4.824  17.726  0.00  0.00    +0.000 NA
ATOM     31  C   UNL     1       4.968   3.784  16.758  0.00  0.00    +0.000 C 
ENDBRANCH  21  30
ENDBRANCH   1  21
TORSDOF 4
ENDMDL
MODEL 2
REMARK VINA RESULT:      -8.5      2.393      2.897
REMARK  Name = 
REMARK  6 active torsions:
REMARK  status: ('A' for Active; 'I' for Inactive)
REMARK    1  A    between atoms: C_1  and  C_2
REMARK    2  A    between atoms: C_4  and  C_5
REMARK    3  A    between atoms: N_7  and  S_8
REMARK    4  A    between atoms: S_8  and  C_11
REMARK    5  A    between atoms: C_14  and  C_15
REMARK    6  A    between atoms: C_21  and  C_22
REMARK                            x       y       z     vdW  Elec       q    Type
REMARK                         _______ _______ _______ _____ _____    ______ ____
ROOT
ATOM      1  C   UNL     1       2.305   6.925  18.946  0.00  0.00    +0.000 A 
ATOM      2  C   UNL     1       2.366   7.661  17.761  0.00  0.00    +0.000 A 
ATOM      3  C   UNL     1       1.955   8.998  17.756  0.00  0.00    +0.000 A 
ATOM      4  C   UNL     1       1.419   9.611  18.910  0.00  0.00    +0.000 A 
ATOM      5  C   UNL     1       1.349   8.849  20.087  0.00  0.00    +0.000 A 
ATOM      6  C   UNL     1       1.795   7.517  20.107  0.00  0.00    +0.000 A 
ENDROOT
BRANCH   4   7
ATOM      7  C   UNL     1       0.964  11.035  18.791  0.00  0.00    +0.000 C 
ATOM      8  O   UNL     1      -0.223  11.254  18.571  0.00  0.00    +0.000 OA
ATOM      9  N   UNL     1       1.934  12.013  18.889  0.00  0.00    +0.000 N 
ATOM     10  C   UNL     1       1.637  13.345  18.782  0.00  0.00    +0.000 A 
ATOM     11  N   UNL     1       2.496  14.308  18.529  0.00  0.00    +0.000 NA
ATOM     12  N   UNL     1       1.773  15.482  18.541  0.00  0.00    +0.000 NA
ATOM     13  C   UNL     1       0.528  15.165  18.862  0.00  0.00    +0.000 A 
ATOM     14  O   UNL     1       0.376  13.805  19.006  0.00  0.00    +0.000 OA
ATOM     15  H   UNL     1       2.918  11.810  18.861  0.00  0.00    +0.000 HD
BRANCH  13  16
ATOM     16  C   UNL     1      -0.507  16.131  19.085  0.00  0.00    +0.000 A 
ATOM     17  C   UNL     1      -0.787  17.244  18.314  0.00  0.00    +0.000 A 
ATOM     18  C   UNL     1      -1.868  18.014  18.834  0.00  0.00    +0.000 A 
ATOM     19  C   UNL     1      -2.377  17.466  19.990  0.00  0.00    +0.000 A 
ATOM     20  S   UNL     1      -1.560  16.030  20.433  0.00  0.00    +0.000 S 
ENDBRANCH  13  16
ENDBRANCH   4   7
BRANCH   1  21
ATOM     21  S   UNL     1       2.884   5.223  18.971  0.00  0.00    +0.000 S 
ATOM     22  O   UNL     1       1.937   4.434  18.217  0.00  0.00    +0.000 OA
ATOM     23  O   UNL     1       3.193   4.897  20.354  0.00  0.00    +0.000 OA
BRANCH  21  30
ATOM     24  C   UNL     1       5.796   5.373  15.267  0.00  0.00    +0.000 C 
ATOM     25  C   UNL     1       5.880   4.279  16.332  0.00  0.00    +0.000 C 
ATOM     26  C   UNL     1       7.063   4.481  17.278  0.00  0.00    +0.000 C 
ATOM     27  C   UNL     1       6.850   5.709  18.164  0.00  0.00    +0.000 C 
ATOM     28  C   UNL     1       8.030   5.884  19.119  0.00  0.00    +0.000 C 
ATOM     29  C   UNL     1       5.543   5.578  18.944  0.00  0.00    +0.000 C 
ATOM     30  N   UNL     1       4.368   5.290  18.075  0.00  0.00    +0.000 NA
ATOM     31  C   UNL     1       4.572   4.158  17.126  0.00  0.00    +0.000 C 
ENDBRANCH  21  30
ENDBRANCH   1  21
TORSDOF 4
ENDMDL
MODEL 3
REMARK VINA RESULT:      -8.5      1.695      1.806
REMARK  Name = 
REMARK  6 active torsions:
REMARK  status: ('A' for Active; 'I' for Inactive)
REMARK    1  A    between atoms: C_1  and  C_2
REMARK    2  A    between atoms: C_4  and  C_5
REMARK    3  A    between atoms: N_7  and  S_8
REMARK    4  A    between atoms: S_8  and  C_11
REMARK    5  A    between atoms: C_14  and  C_15
REMARK    6  A    between atoms: C_21  and  C_22
REMARK                            x       y       z     vdW  Elec       q    Type
REMARK                         _______ _______ _______ _____ _____    ______ ____
ROOT
ATOM      1  C   UNL     1       2.382   6.048  19.173  0.00  0.00    +0.000 A 
ATOM      2  C   UNL     1       1.885   6.200  20.469  0.00  0.00    +0.000 A 
ATOM      3  C   UNL     1       1.377   7.440  20.873  0.00  0.00    +0.000 A 
ATOM      4  C   UNL     1       1.408   8.564  20.020  0.00  0.00    +0.000 A 
ATOM      5  C   UNL     1       1.928   8.395  18.727  0.00  0.00    +0.000 A 
ATOM      6  C   UNL     1       2.406   7.144  18.304  0.00  0.00    +0.000 A 
ENDROOT
BRANCH   4   7
ATOM      7  C   UNL     1       0.882   9.860  20.562  0.00  0.00    +0.000 C 
ATOM      8  O   UNL     1       0.177   9.833  21.565  0.00  0.00    +0.000 OA
ATOM      9  N   UNL     1       1.192  11.006  19.855  0.00  0.00    +0.000 N 
ATOM     10  C   UNL     1       0.755  12.242  20.248  0.00  0.00    +0.000 A 
ATOM     11  N   UNL     1       0.705  13.317  19.493  0.00  0.00    +0.000 NA
ATOM     12  N   UNL     1       0.234  14.333  20.298  0.00  0.00    +0.000 NA
ATOM     13  C   UNL     1       0.083  13.824  21.511  0.00  0.00    +0.000 A 
ATOM     14  O   UNL     1       0.381  12.481  21.534  0.00  0.00    +0.000 OA
ATOM     15  H   UNL     1       1.590  10.988  18.933  0.00  0.00    +0.000 HD
BRANCH  13  16
ATOM     16  C   UNL     1      -0.287  14.599  22.659  0.00  0.00    +0.000 A 
ATOM     17  C   UNL     1      -1.158  14.228  23.668  0.00  0.00    +0.000 A 
ATOM     18  C   UNL     1      -1.327  15.249  24.648  0.00  0.00    +0.000 A 
ATOM     19  C   UNL     1      -0.582  16.369  24.354  0.00  0.00    +0.000 A 
ATOM     20  S   UNL     1       0.319  16.181  22.912  0.00  0.00    +0.000 S 
ENDBRANCH  13  16
ENDBRANCH   4   7
BRANCH   1  21
ATOM     21  S   UNL     1       2.985   4.442  18.631  0.00  0.00    +0.000 S 
ATOM     22  O   UNL     1       2.047   3.936  17.656  0.00  0.00    +0.000 OA
ATOM     23  O   UNL     1       3.304   3.680  19.827  0.00  0.00    +0.000 OA
BRANCH  21  30
ATOM     24  C   UNL     1       5.951   5.353  15.081  0.00  0.00    +0.000 C 
ATOM     25  C   UNL     1       6.185   4.214  16.074  0.00  0.00    +0.000 C 
ATOM     26  C   UNL     1       7.284   4.543  17.084  0.00  0.00    +0.000 C 
ATOM     27  C   UNL     1       6.833   5.650  18.039  0.00  0.00    +0.000 C 
ATOM     28  C   UNL     1       7.933   5.951  19.056  0.00  0.00    +0.000 C 
ATOM     29  C   UNL     1       5.543   5.243  18.748  0.00  0.00    +0.000 C 
ATOM     30  N   UNL     1       4.465   4.825  17.810  0.00  0.00    +0.000 NA
ATOM     31  C   UNL     1       4.892   3.816  16.798  0.00  0.00    +0.000 C 
ENDBRANCH  21  30
ENDBRANCH   1  21
TORSDOF 4
ENDMDL
MODEL 4
REMARK VINA RESULT:      -8.4      0.705      1.197
REMARK  Name = 
REMARK  6 active torsions:
REMARK  status: ('A' for Active; 'I' for Inactive)
REMARK    1  A    between atoms: C_1  and  C_2
REMARK    2  A    between atoms: C_4  and  C_5
REMARK    3  A    between atoms: N_7  and  S_8
REMARK    4  A    between atoms: S_8  and  C_11
REMARK    5  A    between atoms: C_14  and  C_15
REMARK    6  A    between atoms: C_21  and  C_22
REMARK                            x       y       z     vdW  Elec       q    Type
REMARK                         _______ _______ _______ _____ _____    ______ ____
ROOT
ATOM      1  C   UNL     1       2.579   5.830  19.047  0.00  0.00    +0.000 A 
ATOM      2  C   UNL     1       2.649   6.959  18.228  0.00  0.00    +0.000 A 
ATOM      3  C   UNL     1       2.139   8.179  18.688  0.00  0.00    +0.000 A 
ATOM      4  C   UNL     1       1.496   8.285  19.940  0.00  0.00    +0.000 A 
ATOM      5  C   UNL     1       1.420   7.135  20.741  0.00  0.00    +0.000 A 
ATOM      6  C   UNL     1       1.963   5.916  20.299  0.00  0.00    +0.000 A 
ENDROOT
BRANCH   4   7
ATOM      7  C   UNL     1       0.941   9.625  20.323  0.00  0.00    +0.000 C 
ATOM      8  O   UNL     1       1.163  10.582  19.590  0.00  0.00    +0.000 OA
ATOM      9  N   UNL     1       0.250   9.699  21.517  0.00  0.00    +0.000 N 
ATOM     10  C   UNL     1      -0.289  10.871  21.973  0.00  0.00    +0.000 A 
ATOM     11  N   UNL     1      -0.657  11.119  23.211  0.00  0.00    +0.000 NA
ATOM     12  N   UNL     1      -1.168  12.400  23.212  0.00  0.00    +0.000 NA
ATOM     13  C   UNL     1      -1.134  12.829  21.960  0.00  0.00    +0.000 A 
ATOM     14  O   UNL     1      -0.559  11.899  21.125  0.00  0.00    +0.000 OA
ATOM     15  H   UNL     1       0.256   8.960  22.198  0.00  0.00    +0.000 HD
BRANCH  13  16
ATOM     16  C   UNL     1      -1.684  14.083  21.533  0.00  0.00    +0.000 A 
ATOM     17  C   UNL     1      -1.040  15.069  20.808  0.00  0.00    +0.000 A 
ATOM     18  C   UNL     1      -1.869  16.206  20.575  0.00  0.00    +0.000 A 
ATOM     19  C   UNL     1      -3.118  16.051  21.133  0.00  0.00    +0.000 A 
ATOM     20  S   UNL     1      -3.287  14.543  21.922  0.00  0.00    +0.000 S 
ENDBRANCH  13  16
ENDBRANCH   4   7
BRANCH   1  21
ATOM     21  S   UNL     1       3.284   4.274  18.483  0.00  0.00    +0.000 S 
ATOM     22  O   UNL     1       2.324   3.663  17.594  0.00  0.00    +0.000 OA
ATOM     23  O   UNL     1       3.763   3.571  19.661  0.00  0.00    +0.000 OA
BRANCH  21  30
ATOM     24  C   UNL     1       5.960   5.116  14.694  0.00  0.00    +0.000 C 
ATOM     25  C   UNL     1       6.414   4.201  15.832  0.00  0.00    +0.000 C 
ATOM     26  C   UNL     1       7.461   4.865  16.726  0.00  0.00    +0.000 C 
ATOM     27  C   UNL     1       6.845   6.012  17.528  0.00  0.00    +0.000 C 
ATOM     28  C   UNL     1       7.899   6.649  18.433  0.00  0.00    +0.000 C 
ATOM     29  C   UNL     1       5.663   5.506  18.353  0.00  0.00    +0.000 C 
ATOM     30  N   UNL     1       4.654   4.771  17.541  0.00  0.00    +0.000 NA
ATOM     31  C   UNL     1       5.228   3.705  16.670  0.00  0.00    +0.000 C 
ENDBRANCH  21  30
ENDBRANCH   1  21
TORSDOF 4
ENDMDL
MODEL 5
REMARK VINA RESULT:      -8.4      1.403      1.709
REMARK  Name = 
REMARK  6 active torsions:
REMARK  status: ('A' for Active; 'I' for Inactive)
REMARK    1  A    between atoms: C_1  and  C_2
REMARK    2  A    between atoms: C_4  and  C_5
REMARK    3  A    between atoms: N_7  and  S_8
REMARK    4  A    between atoms: S_8  and  C_11
REMARK    5  A    between atoms: C_14  and  C_15
REMARK    6  A    between atoms: C_21  and  C_22
REMARK                            x       y       z     vdW  Elec       q    Type
REMARK                         _______ _______ _______ _____ _____    ______ ____
ROOT
ATOM      1  C   UNL     1       2.382   5.694  19.182  0.00  0.00    +0.000 A 
ATOM      2  C   UNL     1       2.436   6.902  18.484  0.00  0.00    +0.000 A 
ATOM      3  C   UNL     1       2.013   8.081  19.108  0.00  0.00    +0.000 A 
ATOM      4  C   UNL     1       1.473   8.072  20.413  0.00  0.00    +0.000 A 
ATOM      5  C   UNL     1       1.410   6.845  21.091  0.00  0.00    +0.000 A 
ATOM      6  C   UNL     1       1.867   5.665  20.482  0.00  0.00    +0.000 A 
ENDROOT
BRANCH   4   7
ATOM      7  C   UNL     1       1.004   9.381  20.977  0.00  0.00    +0.000 C 
ATOM      8  O   UNL     1       1.474   9.760  22.045  0.00  0.00    +0.000 OA
ATOM      9  N   UNL     1       0.028  10.054  20.270  0.00  0.00    +0.000 N 
ATOM     10  C   UNL     1      -0.485  11.249  20.696  0.00  0.00    +0.000 A 
ATOM     11  N   UNL     1      -1.615  11.789  20.297  0.00  0.00    +0.000 NA
ATOM     12  N   UNL     1      -1.721  12.995  20.957  0.00  0.00    +0.000 NA
ATOM     13  C   UNL     1      -0.616  13.141  21.672  0.00  0.00    +0.000 A 
ATOM     14  O   UNL     1       0.204  12.042  21.561  0.00  0.00    +0.000 OA
ATOM     15  H   UNL     1      -0.488   9.634  19.516  0.00  0.00    +0.000 HD
BRANCH  13  16
ATOM     16  C   UNL     1      -0.300  14.326  22.415  0.00  0.00    +0.000 A 
ATOM     17  C   UNL     1      -0.970  14.817  23.521  0.00  0.00    +0.000 A 
ATOM     18  C   UNL     1      -0.410  16.037  24.003  0.00  0.00    +0.000 A 
ATOM     19  C   UNL     1       0.668  16.439  23.246  0.00  0.00    +0.000 A 
ATOM     20  S   UNL     1       1.002  15.346  21.974  0.00  0.00    +0.000 S 
ENDBRANCH  13  16
ENDBRANCH   4   7
BRANCH   1  21
ATOM     21  S   UNL     1       2.977   4.186  18.403  0.00  0.00    +0.000 S 
ATOM     22  O   UNL     1       2.042   3.844  17.356  0.00  0.00    +0.000 OA
ATOM     23  O   UNL     1       3.280   3.245  19.470  0.00  0.00    +0.000 OA
BRANCH  21  30
ATOM     24  C   UNL     1       6.022   5.426  15.024  0.00  0.00    +0.000 C 
ATOM     25  C   UNL     1       6.270   4.240  15.958  0.00  0.00    +0.000 C 
ATOM     26  C   UNL     1       7.318   4.555  17.026  0.00  0.00    +0.000 C 
ATOM     27  C   UNL     1       6.787   5.584  18.025  0.00  0.00    +0.000 C 
ATOM     28  C   UNL     1       7.837   5.870  19.098  0.00  0.00    +0.000 C 
ATOM     29  C   UNL     1       5.492   5.083  18.661  0.00  0.00    +0.000 C 
ATOM     30  N   UNL     1       4.466   4.677  17.661  0.00  0.00    +0.000 NA
ATOM     31  C   UNL     1       4.971   3.747  16.609  0.00  0.00    +0.000 C 
ENDBRANCH  21  30
ENDBRANCH   1  21
TORSDOF 4
ENDMDL
MODEL 6
REMARK VINA RESULT:      -8.4      1.055      2.067
REMARK  Name = 
REMARK  6 active torsions:
REMARK  status: ('A' for Active; 'I' for Inactive)
REMARK    1  A    between atoms: C_1  and  C_2
REMARK    2  A    between atoms: C_4  and  C_5
REMARK    3  A    between atoms: N_7  and  S_8
REMARK    4  A    between atoms: S_8  and  C_11
REMARK    5  A    between atoms: C_14  and  C_15
REMARK    6  A    between atoms: C_21  and  C_22
REMARK                            x       y       z     vdW  Elec       q    Type
REMARK                         _______ _______ _______ _____ _____    ______ ____
ROOT
ATOM      1  C   UNL     1       2.870   5.065  19.097  0.00  0.00    +0.000 A 
ATOM      2  C   UNL     1       2.886   6.203  18.289  0.00  0.00    +0.000 A 
ATOM      3  C   UNL     1       2.329   7.396  18.763  0.00  0.00    +0.000 A 
ATOM      4  C   UNL     1       1.692   7.464  20.021  0.00  0.00    +0.000 A 
ATOM      5  C   UNL     1       1.670   6.304  20.811  0.00  0.00    +0.000 A 
ATOM      6  C   UNL     1       2.261   5.114  20.355  0.00  0.00    +0.000 A 
ENDROOT
BRANCH   4   7
ATOM      7  C   UNL     1       1.084   8.776  20.421  0.00  0.00    +0.000 C 
ATOM      8  O   UNL     1       1.133   9.710  19.627  0.00  0.00    +0.000 OA
ATOM      9  N   UNL     1       0.547   8.857  21.691  0.00  0.00    +0.000 N 
ATOM     10  C   UNL     1      -0.021  10.006  22.168  0.00  0.00    +0.000 A 
ATOM     11  N   UNL     1      -0.247  10.287  23.432  0.00  0.00    +0.000 NA
ATOM     12  N   UNL     1      -0.855  11.525  23.450  0.00  0.00    +0.000 NA
ATOM     13  C   UNL     1      -1.015  11.894  22.188  0.00  0.00    +0.000 A 
ATOM     14  O   UNL     1      -0.479  10.969  21.322  0.00  0.00    +0.000 OA
ATOM     15  H   UNL     1       0.700   8.155  22.393  0.00  0.00    +0.000 HD
BRANCH  13  16
ATOM     16  C   UNL     1      -1.714  13.080  21.788  0.00  0.00    +0.000 A 
ATOM     17  C   UNL     1      -2.988  13.462  22.165  0.00  0.00    +0.000 A 
ATOM     18  C   UNL     1      -3.394  14.687  21.561  0.00  0.00    +0.000 A 
ATOM     19  C   UNL     1      -2.417  15.200  20.738  0.00  0.00    +0.000 A 
ATOM     20  S   UNL     1      -1.021  14.212  20.706  0.00  0.00    +0.000 S 
ENDBRANCH  13  16
ENDBRANCH   4   7
BRANCH   1  21
ATOM     21  S   UNL     1       3.634   3.545  18.513  0.00  0.00    +0.000 S 
ATOM     22  O   UNL     1       2.861   3.078  17.386  0.00  0.00    +0.000 OA
ATOM     23  O   UNL     1       3.844   2.698  19.677  0.00  0.00    +0.000 OA
BRANCH  21  30
ATOM     24  C   UNL     1       8.170   4.829  18.576  0.00  0.00    +0.000 C 
ATOM     25  C   UNL     1       7.068   5.736  18.028  0.00  0.00    +0.000 C 
ATOM     26  C   UNL     1       7.068   5.788  16.500  0.00  0.00    +0.000 C 
ATOM     27  C   UNL     1       6.637   4.445  15.908  0.00  0.00    +0.000 C 
ATOM     28  C   UNL     1       6.621   4.522  14.382  0.00  0.00    +0.000 C 
ATOM     29  C   UNL     1       5.261   4.051  16.441  0.00  0.00    +0.000 C 
ATOM     30  N   UNL     1       5.180   4.071  17.928  0.00  0.00    +0.000 NA
ATOM     31  C   UNL     1       5.684   5.329  18.551  0.00  0.00    +0.000 C 
ENDBRANCH  21  30
ENDBRANCH   1  21
TORSDOF 4
ENDMDL
MODEL 7
REMARK VINA RESULT:      -8.4      1.500      1.638
REMARK  Name = 
REMARK  6 active torsions:
REMARK  status: ('A' for Active; 'I' for Inactive)
REMARK    1  A    between atoms: C_1  and  C_2
REMARK    2  A    between atoms: C_4  and  C_5
REMARK    3  A    between atoms: N_7  and  S_8
REMARK    4  A    between atoms: S_8  and  C_11
REMARK    5  A    between atoms: C_14  and  C_15
REMARK    6  A    between atoms: C_21  and  C_22
REMARK                            x       y       z     vdW  Elec       q    Type
REMARK                         _______ _______ _______ _____ _____    ______ ____
ROOT
ATOM      1  C   UNL     1       2.385   5.943  19.310  0.00  0.00    +0.000 A 
ATOM      2  C   UNL     1       1.841   6.017  20.594  0.00  0.00    +0.000 A 
ATOM      3  C   UNL     1       1.342   7.237  21.064  0.00  0.00    +0.000 A 
ATOM      4  C   UNL     1       1.431   8.417  20.293  0.00  0.00    +0.000 A 
ATOM      5  C   UNL     1       1.997   8.325  19.012  0.00  0.00    +0.000 A 
ATOM      6  C   UNL     1       2.466   7.095  18.522  0.00  0.00    +0.000 A 
ENDROOT
BRANCH   4   7
ATOM      7  C   UNL     1       0.910   9.684  20.903  0.00  0.00    +0.000 C 
ATOM      8  O   UNL     1       1.243   9.962  22.050  0.00  0.00    +0.000 OA
ATOM      9  N   UNL     1       0.041  10.437  20.137  0.00  0.00    +0.000 N 
ATOM     10  C   UNL     1      -0.508  11.604  20.596  0.00  0.00    +0.000 A 
ATOM     11  N   UNL     1      -1.571  12.201  20.104  0.00  0.00    +0.000 NA
ATOM     12  N   UNL     1      -1.745  13.350  20.846  0.00  0.00    +0.000 NA
ATOM     13  C   UNL     1      -0.740  13.411  21.705  0.00  0.00    +0.000 A 
ATOM     14  O   UNL     1       0.074  12.306  21.606  0.00  0.00    +0.000 OA
ATOM     15  H   UNL     1      -0.379  10.093  19.292  0.00  0.00    +0.000 HD
BRANCH  13  16
ATOM     16  C   UNL     1      -0.507  14.522  22.581  0.00  0.00    +0.000 A 
ATOM     17  C   UNL     1       0.431  15.525  22.420  0.00  0.00    +0.000 A 
ATOM     18  C   UNL     1       0.418  16.464  23.493  0.00  0.00    +0.000 A 
ATOM     19  C   UNL     1      -0.527  16.144  24.442  0.00  0.00    +0.000 A 
ATOM     20  S   UNL     1      -1.395  14.728  24.031  0.00  0.00    +0.000 S 
ENDBRANCH  13  16
ENDBRANCH   4   7
BRANCH   1  21
ATOM     21  S   UNL     1       2.976   4.364  18.682  0.00  0.00    +0.000 S 
ATOM     22  O   UNL     1       2.010   3.896  17.715  0.00  0.00    +0.000 OA
ATOM     23  O   UNL     1       3.333   3.552  19.834  0.00  0.00    +0.000 OA
BRANCH  21  30
ATOM     24  C   UNL     1       5.839   5.396  15.081  0.00  0.00    +0.000 C 
ATOM     25  C   UNL     1       6.116   4.241  16.044  0.00  0.00    +0.000 C 
ATOM     26  C   UNL     1       7.233   4.569  17.034  0.00  0.00    +0.000 C 
ATOM     27  C   UNL     1       6.788   5.648  18.022  0.00  0.00    +0.000 C 
ATOM     28  C   UNL     1       7.908   5.946  19.018  0.00  0.00    +0.000 C 
ATOM     29  C   UNL     1       5.522   5.205  18.754  0.00  0.00    +0.000 C 
ATOM     30  N   UNL     1       4.428   4.788  17.833  0.00  0.00    +0.000 NA
ATOM     31  C   UNL     1       4.847   3.807  16.790  0.00  0.00    +0.000 C 
ENDBRANCH  21  30
ENDBRANCH   1  21
TORSDOF 4
ENDMDL
MODEL 8
REMARK VINA RESULT:      -8.3      1.445      1.997
REMARK  Name = 
REMARK  6 active torsions:
REMARK  status: ('A' for Active; 'I' for Inactive)
REMARK    1  A    between atoms: C_1  and  C_2
REMARK    2  A    between atoms: C_4  and  C_5
REMARK    3  A    between atoms: N_7  and  S_8
REMARK    4  A    between atoms: S_8  and  C_11
REMARK    5  A    between atoms: C_14  and  C_15
REMARK    6  A    between atoms: C_21  and  C_22
REMARK                            x       y       z     vdW  Elec       q    Type
REMARK                         _______ _______ _______ _____ _____    ______ ____
ROOT
ATOM      1  C   UNL     1       2.261   6.778  19.099  0.00  0.00    +0.000 A 
ATOM      2  C   UNL     1       2.407   7.691  18.053  0.00  0.00    +0.000 A 
ATOM      3  C   UNL     1       2.049   9.030  18.250  0.00  0.00    +0.000 A 
ATOM      4  C   UNL     1       1.486   9.472  19.466  0.00  0.00    +0.000 A 
ATOM      5  C   UNL     1       1.331   8.535  20.499  0.00  0.00    +0.000 A 
ATOM      6  C   UNL     1       1.722   7.198  20.319  0.00  0.00    +0.000 A 
ENDROOT
BRANCH   4   7
ATOM      7  C   UNL     1       1.093  10.917  19.563  0.00  0.00    +0.000 C 
ATOM      8  O   UNL     1       1.256  11.635  18.583  0.00  0.00    +0.000 OA
ATOM      9  N   UNL     1       0.612  11.355  20.782  0.00  0.00    +0.000 N 
ATOM     10  C   UNL     1       0.236  12.654  20.990  0.00  0.00    +0.000 A 
ATOM     11  N   UNL     1       0.092  13.236  22.160  0.00  0.00    +0.000 NA
ATOM     12  N   UNL     1      -0.323  14.525  21.901  0.00  0.00    +0.000 NA
ATOM     13  C   UNL     1      -0.464  14.628  20.589  0.00  0.00    +0.000 A 
ATOM     14  O   UNL     1      -0.099  13.466  19.951  0.00  0.00    +0.000 OA
ATOM     15  H   UNL     1       0.679  10.809  21.623  0.00  0.00    +0.000 HD
BRANCH  13  16
ATOM     16  C   UNL     1      -0.990  15.790  19.934  0.00  0.00    +0.000 A 
ATOM     17  C   UNL     1      -0.452  16.443  18.840  0.00  0.00    +0.000 A 
ATOM     18  C   UNL     1      -1.213  17.586  18.456  0.00  0.00    +0.000 A 
ATOM     19  C   UNL     1      -2.306  17.771  19.272  0.00  0.00    +0.000 A 
ATOM     20  S   UNL     1      -2.414  16.568  20.483  0.00  0.00    +0.000 S 
ENDBRANCH  13  16
ENDBRANCH   4   7
BRANCH   1  21
ATOM     21  S   UNL     1       2.771   5.068  18.869  0.00  0.00    +0.000 S 
ATOM     22  O   UNL     1       1.785   4.434  18.025  0.00  0.00    +0.000 OA
ATOM     23  O   UNL     1       3.083   4.534  20.185  0.00  0.00    +0.000 OA
BRANCH  21  30
ATOM     24  C   UNL     1       5.654   5.397  15.153  0.00  0.00    +0.000 C 
ATOM     25  C   UNL     1       5.783   4.286  16.196  0.00  0.00    +0.000 C 
ATOM     26  C   UNL     1       6.964   4.512  17.139  0.00  0.00    +0.000 C 
ATOM     27  C   UNL     1       6.711   5.714  18.050  0.00  0.00    +0.000 C 
ATOM     28  C   UNL     1       7.891   5.912  19.002  0.00  0.00    +0.000 C 
ATOM     29  C   UNL     1       5.415   5.520  18.834  0.00  0.00    +0.000 C 
ATOM     30  N   UNL     1       4.246   5.207  17.966  0.00  0.00    +0.000 NA
ATOM     31  C   UNL     1       4.485   4.102  16.994  0.00  0.00    +0.000 C 
ENDBRANCH  21  30
ENDBRANCH   1  21
TORSDOF 4
ENDMDL
MODEL 9
REMARK VINA RESULT:      -8.3      1.601      1.677
REMARK  Name = 
REMARK  6 active torsions:
REMARK  status: ('A' for Active; 'I' for Inactive)
REMARK    1  A    between atoms: C_1  and  C_2
REMARK    2  A    between atoms: C_4  and  C_5
REMARK    3  A    between atoms: N_7  and  S_8
REMARK    4  A    between atoms: S_8  and  C_11
REMARK    5  A    between atoms: C_14  and  C_15
REMARK    6  A    between atoms: C_21  and  C_22
REMARK                            x       y       z     vdW  Elec       q    Type
REMARK                         _______ _______ _______ _____ _____    ______ ____
ROOT
ATOM      1  C   UNL     1       2.432   5.812  19.276  0.00  0.00    +0.000 A 
ATOM      2  C   UNL     1       1.823   5.892  20.530  0.00  0.00    +0.000 A 
ATOM      3  C   UNL     1       1.218   7.088  20.929  0.00  0.00    +0.000 A 
ATOM      4  C   UNL     1       1.259   8.243  20.118  0.00  0.00    +0.000 A 
ATOM      5  C   UNL     1       1.892   8.148  18.870  0.00  0.00    +0.000 A 
ATOM      6  C   UNL     1       2.470   6.938  18.448  0.00  0.00    +0.000 A 
ENDROOT
BRANCH   4   7
ATOM      7  C   UNL     1       0.622   9.490  20.655  0.00  0.00    +0.000 C 
ATOM      8  O   UNL     1      -0.579   9.475  20.902  0.00  0.00    +0.000 OA
ATOM      9  N   UNL     1       1.433  10.600  20.792  0.00  0.00    +0.000 N 
ATOM     10  C   UNL     1       0.958  11.795  21.258  0.00  0.00    +0.000 A 
ATOM     11  N   UNL     1       1.538  12.966  21.111  0.00  0.00    +0.000 NA
ATOM     12  N   UNL     1       0.733  13.879  21.759  0.00  0.00    +0.000 NA
ATOM     13  C   UNL     1      -0.258  13.197  22.311  0.00  0.00    +0.000 A 
ATOM     14  O   UNL     1      -0.178  11.858  22.005  0.00  0.00    +0.000 OA
ATOM     15  H   UNL     1       2.354  10.654  20.394  0.00  0.00    +0.000 HD
BRANCH  13  16
ATOM     16  C   UNL     1      -1.248  13.783  23.166  0.00  0.00    +0.000 A 
ATOM     17  C   UNL     1      -1.055  14.791  24.093  0.00  0.00    +0.000 A 
ATOM     18  C   UNL     1      -2.248  15.120  24.800  0.00  0.00    +0.000 A 
ATOM     19  C   UNL     1      -3.313  14.349  24.393  0.00  0.00    +0.000 A 
ATOM     20  S   UNL     1      -2.874  13.246  23.162  0.00  0.00    +0.000 S 
ENDBRANCH  13  16
ENDBRANCH   4   7
BRANCH   1  21
ATOM     21  S   UNL     1       3.163   4.259  18.736  0.00  0.00    +0.000 S 
ATOM     22  O   UNL     1       2.243   3.652  17.803  0.00  0.00    +0.000 OA
ATOM     23  O   UNL     1       3.592   3.551  19.930  0.00  0.00    +0.000 OA
BRANCH  21  30
ATOM     24  C   UNL     1       5.891   5.433  15.074  0.00  0.00    +0.000 C 
ATOM     25  C   UNL     1       6.254   4.304  16.039  0.00  0.00    +0.000 C 
ATOM     26  C   UNL     1       7.369   4.705  17.005  0.00  0.00    +0.000 C 
ATOM     27  C   UNL     1       6.879   5.763  17.995  0.00  0.00    +0.000 C 
ATOM     28  C   UNL     1       7.997   6.135  18.967  0.00  0.00    +0.000 C 
ATOM     29  C   UNL     1       5.656   5.251  18.753  0.00  0.00    +0.000 C 
ATOM     30  N   UNL     1       4.572   4.763  17.857  0.00  0.00    +0.000 NA
ATOM     31  C   UNL     1       5.028   3.800  16.813  0.00  0.00    +0.000 C 
ENDBRANCH  21  30
ENDBRANCH   1  21
TORSDOF 4
ENDMDL
