MODEL 1
REMARK VINA RESULT:      -7.8      0.000      0.000
REMARK  Name = 
REMARK  4 active torsions:
REMARK  status: ('A' for Active; 'I' for Inactive)
REMARK    1  A    between atoms: N_1  and  C_2
REMARK    2  A    between atoms: C_9  and  O_10
REMARK    3  A    between atoms: N_11  and  C_12
REMARK    4  A    between atoms: C_12  and  C_13
REMARK                            x       y       z     vdW  Elec       q    Type
REMARK                         _______ _______ _______ _____ _____    ______ ____
ROOT
ATOM      1  C   UNL     1       7.066   4.957  14.471  0.00  0.00    +0.000 A 
ATOM      2  N   UNL     1       6.259   3.900  14.185  0.00  0.00    +0.000 NA
ATOM      3  C   UNL     1       5.516   3.372  15.181  0.00  0.00    +0.000 A 
ATOM      4  N   UNL     1       5.467   3.759  16.473  0.00  0.00    +0.000 NA
ATOM      5  C   UNL     1       6.294   4.793  16.720  0.00  0.00    +0.000 A 
ATOM      6  C   UNL     1       7.112   5.440  15.801  0.00  0.00    +0.000 A 
ATOM      7  N   UNL     1       7.833   6.469  16.423  0.00  0.00    +0.000 NA
ATOM      8  C   UNL     1       7.452   6.424  17.679  0.00  0.00    +0.000 A 
ATOM      9  N   UNL     1       6.527   5.433  17.914  0.00  0.00    +0.000 N 
ENDROOT
BRANCH   1  10
ATOM     10  N   UNL     1       7.810   5.506  13.449  0.00  0.00    +0.000 N 
ATOM     11  H   UNL     1       7.697   5.164  12.507  0.00  0.00    +0.000 HD
ATOM     12  H   UNL     1       8.443   6.261  13.663  0.00  0.00    +0.000 HD
ENDBRANCH   1  10
BRANCH   8  13
ATOM     13  O   UNL     1       7.896   7.233  18.637  0.00  0.00    +0.000 OA
ATOM     14  H   UNL     1       8.158   6.677  19.392  0.00  0.00    +0.000 HD
ENDBRANCH   8  13
BRANCH   9  15
ATOM     15  C   UNL     1       5.960   5.108  19.213  0.00  0.00    +0.000 C 
BRANCH  15  16
ATOM     16  C   UNL     1       4.417   5.309  19.136  0.00  0.00    +0.000 A 
ATOM     17  C   UNL     1       4.164   6.565  18.276  0.00  0.00    +0.000 A 
ATOM     18  C   UNL     1       2.848   6.912  18.043  0.00  0.00    +0.000 A 
ATOM     19  C   UNL     1       1.849   6.176  18.627  0.00  0.00    +0.000 A 
ATOM     20  C   UNL     1       2.106   5.112  19.330  0.00  0.00    +0.000 A 
ATOM     21  C   UNL     1       1.092   4.382  19.950  0.00  0.00    +0.000 A 
ATOM     22  C   UNL     1       1.084   3.178  20.761  0.00  0.00    +0.000 A 
ATOM     23  C   UNL     1       2.000   2.505  21.522  0.00  0.00    +0.000 A 
ATOM     24  C   UNL     1       3.406   3.440  20.689  0.00  0.00    +0.000 A 
ATOM     25  C   UNL     1       3.388   4.586  19.700  0.00  0.00    +0.000 A 
ENDBRANCH  15  16
ENDBRANCH   9  15
TORSDOF 4
ENDMDL
MODEL 2
REMARK VINA RESULT:      -7.5      2.973      4.303
REMARK  Name = 
REMARK  4 active torsions:
REMARK  status: ('A' for Active; 'I' for Inactive)
REMARK    1  A    between atoms: N_1  and  C_2
REMARK    2  A    between atoms: C_9  and  O_10
REMARK    3  A    between atoms: N_11  and  C_12
REMARK    4  A    between atoms: C_12  and  C_13
REMARK                            x       y       z     vdW  Elec       q    Type
REMARK                         _______ _______ _______ _____ _____    ______ ____
ROOT
ATOM      1  C   UNL     1       6.070   4.074  16.642  0.00  0.00    +0.000 A 
ATOM      2  N   UNL     1       7.173   4.601  17.238  0.00  0.00    +0.000 NA
ATOM      3  C   UNL     1       7.016   5.266  18.403  0.00  0.00    +0.000 A 
ATOM      4  N   UNL     1       5.871   5.493  19.080  0.00  0.00    +0.000 NA
ATOM      5  C   UNL     1       4.802   4.972  18.449  0.00  0.00    +0.000 A 
ATOM      6  C   UNL     1       4.807   4.264  17.253  0.00  0.00    +0.000 A 
ATOM      7  N   UNL     1       3.505   3.880  16.902  0.00  0.00    +0.000 NA
ATOM      8  C   UNL     1       2.751   4.358  17.867  0.00  0.00    +0.000 A 
ATOM      9  N   UNL     1       3.480   5.025  18.823  0.00  0.00    +0.000 N 
ENDROOT
BRANCH   1  10
ATOM     10  N   UNL     1       6.234   3.380  15.462  0.00  0.00    +0.000 N 
ATOM     11  H   UNL     1       5.455   3.269  14.833  0.00  0.00    +0.000 HD
ATOM     12  H   UNL     1       7.147   3.014  15.240  0.00  0.00    +0.000 HD
ENDBRANCH   1  10
BRANCH   8  13
ATOM     13  O   UNL     1       1.429   4.227  17.933  0.00  0.00    +0.000 OA
ATOM     14  H   UNL     1       1.178   3.488  17.352  0.00  0.00    +0.000 HD
ENDBRANCH   8  13
BRANCH   9  15
ATOM     15  C   UNL     1       2.919   5.704  19.981  0.00  0.00    +0.000 C 
BRANCH  15  16
ATOM     16  C   UNL     1       2.378   7.089  19.519  0.00  0.00    +0.000 A 
ATOM     17  C   UNL     1       2.946   7.353  18.109  0.00  0.00    +0.000 A 
ATOM     18  C   UNL     1       2.561   8.524  17.484  0.00  0.00    +0.000 A 
ATOM     19  C   UNL     1       1.759   9.409  18.159  0.00  0.00    +0.000 A 
ATOM     20  C   UNL     1       1.288   9.139  19.341  0.00  0.00    +0.000 A 
ATOM     21  C   UNL     1       0.499  10.052  20.040  0.00  0.00    +0.000 A 
ATOM     22  C   UNL     1      -0.161  10.016  21.333  0.00  0.00    +0.000 A 
ATOM     23  C   UNL     1      -0.006   9.301  22.489  0.00  0.00    +0.000 A 
ATOM     24  C   UNL     1       1.036   8.022  21.583  0.00  0.00    +0.000 A 
ATOM     25  C   UNL     1       1.566   7.998  20.165  0.00  0.00    +0.000 A 
ENDBRANCH  15  16
ENDBRANCH   9  15
TORSDOF 4
ENDMDL
MODEL 3
REMARK VINA RESULT:      -7.5      1.355      1.719
REMARK  Name = 
REMARK  4 active torsions:
REMARK  status: ('A' for Active; 'I' for Inactive)
REMARK    1  A    between atoms: N_1  and  C_2
REMARK    2  A    between atoms: C_9  and  O_10
REMARK    3  A    between atoms: N_11  and  C_12
REMARK    4  A    between atoms: C_12  and  C_13
REMARK                            x       y       z     vdW  Elec       q    Type
REMARK                         _______ _______ _______ _____ _____    ______ ____
ROOT
ATOM      1  C   UNL     1       7.669   5.097  13.603  0.00  0.00    +0.000 A 
ATOM      2  N   UNL     1       6.948   4.656  12.537  0.00  0.00    +0.000 NA
ATOM      3  C   UNL     1       5.807   3.972  12.773  0.00  0.00    +0.000 A 
ATOM      4  N   UNL     1       5.267   3.647  13.966  0.00  0.00    +0.000 NA
ATOM      5  C   UNL     1       6.019   4.085  14.994  0.00  0.00    +0.000 A 
ATOM      6  C   UNL     1       7.208   4.800  14.909  0.00  0.00    +0.000 A 
ATOM      7  N   UNL     1       7.709   5.080  16.188  0.00  0.00    +0.000 NA
ATOM      8  C   UNL     1       6.837   4.535  17.007  0.00  0.00    +0.000 A 
ATOM      9  N   UNL     1       5.801   3.922  16.342  0.00  0.00    +0.000 N 
ENDROOT
BRANCH   1  10
ATOM     10  N   UNL     1       8.823   5.810  13.360  0.00  0.00    +0.000 N 
ATOM     11  H   UNL     1       8.867   6.440  12.574  0.00  0.00    +0.000 HD
ATOM     12  H   UNL     1       9.600   5.703  13.993  0.00  0.00    +0.000 HD
ENDBRANCH   1  10
BRANCH   8  13
ATOM     13  O   UNL     1       6.925   4.557  18.334  0.00  0.00    +0.000 OA
ATOM     14  H   UNL     1       6.098   4.937  18.677  0.00  0.00    +0.000 HD
ENDBRANCH   8  13
BRANCH   9  15
ATOM     15  C   UNL     1       4.716   3.191  16.977  0.00  0.00    +0.000 C 
BRANCH  15  16
ATOM     16  C   UNL     1       3.915   4.186  17.869  0.00  0.00    +0.000 A 
ATOM     17  C   UNL     1       4.049   5.582  17.226  0.00  0.00    +0.000 A 
ATOM     18  C   UNL     1       3.379   6.623  17.840  0.00  0.00    +0.000 A 
ATOM     19  C   UNL     1       2.692   6.383  19.002  0.00  0.00    +0.000 A 
ATOM     20  C   UNL     1       2.590   5.186  19.501  0.00  0.00    +0.000 A 
ATOM     21  C   UNL     1       1.920   4.948  20.700  0.00  0.00    +0.000 A 
ATOM     22  C   UNL     1       1.641   3.745  21.465  0.00  0.00    +0.000 A 
ATOM     23  C   UNL     1       2.182   2.491  21.546  0.00  0.00    +0.000 A 
ATOM     24  C   UNL     1       3.081   2.753  19.913  0.00  0.00    +0.000 A 
ATOM     25  C   UNL     1       3.209   3.979  19.035  0.00  0.00    +0.000 A 
ENDBRANCH  15  16
ENDBRANCH   9  15
TORSDOF 4
ENDMDL
MODEL 4
REMARK VINA RESULT:      -7.4      3.001      6.229
REMARK  Name = 
REMARK  4 active torsions:
REMARK  status: ('A' for Active; 'I' for Inactive)
REMARK    1  A    between atoms: N_1  and  C_2
REMARK    2  A    between atoms: C_9  and  O_10
REMARK    3  A    between atoms: N_11  and  C_12
REMARK    4  A    between atoms: C_12  and  C_13
REMARK                            x       y       z     vdW  Elec       q    Type
REMARK                         _______ _______ _______ _____ _____    ______ ____
ROOT
ATOM      1  C   UNL     1       1.593   2.809  20.687  0.00  0.00    +0.000 A 
ATOM      2  N   UNL     1       1.863   1.798  19.817  0.00  0.00    +0.000 NA
ATOM      3  C   UNL     1       2.469   2.102  18.649  0.00  0.00    +0.000 A 
ATOM      4  N   UNL     1       2.853   3.317  18.206  0.00  0.00    +0.000 NA
ATOM      5  C   UNL     1       2.551   4.292  19.086  0.00  0.00    +0.000 A 
ATOM      6  C   UNL     1       1.935   4.134  20.322  0.00  0.00    +0.000 A 
ATOM      7  N   UNL     1       1.781   5.373  20.958  0.00  0.00    +0.000 NA
ATOM      8  C   UNL     1       2.289   6.241  20.112  0.00  0.00    +0.000 A 
ATOM      9  N   UNL     1       2.766   5.645  18.968  0.00  0.00    +0.000 N 
ENDROOT
BRANCH   1  10
ATOM     10  N   UNL     1       0.990   2.494  21.886  0.00  0.00    +0.000 N 
ATOM     11  H   UNL     1       1.451   1.870  22.530  0.00  0.00    +0.000 HD
ATOM     12  H   UNL     1       0.102   2.918  22.106  0.00  0.00    +0.000 HD
ENDBRANCH   1  10
BRANCH   8  13
ATOM     13  O   UNL     1       2.346   7.554  20.314  0.00  0.00    +0.000 OA
ATOM     14  H   UNL     1       1.959   7.734  21.188  0.00  0.00    +0.000 HD
ENDBRANCH   8  13
BRANCH   9  15
ATOM     15  C   UNL     1       3.337   6.350  17.832  0.00  0.00    +0.000 C 
BRANCH  15  16
ATOM     16  C   UNL     1       4.770   5.793  17.583  0.00  0.00    +0.000 A 
ATOM     17  C   UNL     1       5.586   6.042  18.869  0.00  0.00    +0.000 A 
ATOM     18  C   UNL     1       6.891   5.590  18.883  0.00  0.00    +0.000 A 
ATOM     19  C   UNL     1       7.409   5.008  17.755  0.00  0.00    +0.000 A 
ATOM     20  C   UNL     1       6.681   4.801  16.697  0.00  0.00    +0.000 A 
ATOM     21  C   UNL     1       7.217   4.239  15.538  0.00  0.00    +0.000 A 
ATOM     22  C   UNL     1       6.652   3.887  14.248  0.00  0.00    +0.000 A 
ATOM     23  C   UNL     1       5.550   4.260  13.529  0.00  0.00    +0.000 A 
ATOM     24  C   UNL     1       4.769   5.002  15.072  0.00  0.00    +0.000 A 
ATOM     25  C   UNL     1       5.322   5.197  16.468  0.00  0.00    +0.000 A 
ENDBRANCH  15  16
ENDBRANCH   9  15
TORSDOF 4
ENDMDL
MODEL 5
REMARK VINA RESULT:      -7.4      3.130      6.305
REMARK  Name = 
REMARK  4 active torsions:
REMARK  status: ('A' for Active; 'I' for Inactive)
REMARK    1  A    between atoms: N_1  and  C_2
REMARK    2  A    between atoms: C_9  and  O_10
REMARK    3  A    between atoms: N_11  and  C_12
REMARK    4  A    between atoms: C_12  and  C_13
REMARK                            x       y       z     vdW  Elec       q    Type
REMARK                         _______ _______ _______ _____ _____    ______ ____
ROOT
ATOM      1  C   UNL     1       1.692   7.906  20.034  0.00  0.00    +0.000 A 
ATOM      2  N   UNL     1       2.000   8.573  18.890  0.00  0.00    +0.000 NA
ATOM      3  C   UNL     1       2.633   7.899  17.905  0.00  0.00    +0.000 A 
ATOM      4  N   UNL     1       3.021   6.606  17.902  0.00  0.00    +0.000 NA
ATOM      5  C   UNL     1       2.715   5.987  19.059  0.00  0.00    +0.000 A 
ATOM      6  C   UNL     1       2.067   6.546  20.154  0.00  0.00    +0.000 A 
ATOM      7  N   UNL     1       1.924   5.599  21.178  0.00  0.00    +0.000 NA
ATOM      8  C   UNL     1       2.482   4.510  20.698  0.00  0.00    +0.000 A 
ATOM      9  N   UNL     1       2.976   4.688  19.426  0.00  0.00    +0.000 N 
ENDROOT
BRANCH   1  10
ATOM     10  N   UNL     1       1.031   8.591  21.031  0.00  0.00    +0.000 N 
ATOM     11  H   UNL     1       0.737   9.543  20.875  0.00  0.00    +0.000 HD
ATOM     12  H   UNL     1       0.833   8.114  21.896  0.00  0.00    +0.000 HD
ENDBRANCH   1  10
BRANCH   8  13
ATOM     13  O   UNL     1       2.574   3.354  21.348  0.00  0.00    +0.000 OA
ATOM     14  H   UNL     1       3.030   3.526  22.190  0.00  0.00    +0.000 HD
ENDBRANCH   8  13
BRANCH   9  15
ATOM     15  C   UNL     1       3.690   3.681  18.658  0.00  0.00    +0.000 C 
BRANCH  15  16
ATOM     16  C   UNL     1       5.028   4.305  18.163  0.00  0.00    +0.000 A 
ATOM     17  C   UNL     1       5.729   4.915  19.394  0.00  0.00    +0.000 A 
ATOM     18  C   UNL     1       6.966   5.496  19.190  0.00  0.00    +0.000 A 
ATOM     19  C   UNL     1       7.473   5.559  17.917  0.00  0.00    +0.000 A 
ATOM     20  C   UNL     1       6.857   5.016  16.909  0.00  0.00    +0.000 A 
ATOM     21  C   UNL     1       7.356   5.108  15.610  0.00  0.00    +0.000 A 
ATOM     22  C   UNL     1       6.902   4.598  14.329  0.00  0.00    +0.000 A 
ATOM     23  C   UNL     1       5.708   4.174  13.813  0.00  0.00    +0.000 A 
ATOM     24  C   UNL     1       4.999   4.001  15.548  0.00  0.00    +0.000 A 
ATOM     25  C   UNL     1       5.572   4.378  16.897  0.00  0.00    +0.000 A 
ENDBRANCH  15  16
ENDBRANCH   9  15
TORSDOF 4
ENDMDL
MODEL 6
REMARK VINA RESULT:      -7.4      1.926      3.726
REMARK  Name = 
REMARK  4 active torsions:
REMARK  status: ('A' for Active; 'I' for Inactive)
REMARK    1  A    between atoms: N_1  and  C_2
REMARK    2  A    between atoms: C_9  and  O_10
REMARK    3  A    between atoms: N_11  and  C_12
REMARK    4  A    between atoms: C_12  and  C_13
REMARK                            x       y       z     vdW  Elec       q    Type
REMARK                         _______ _______ _______ _____ _____    ______ ____
ROOT
ATOM      1  C   UNL     1       7.664   6.771  17.658  0.00  0.00    +0.000 A 
ATOM      2  N   UNL     1       8.050   6.619  18.953  0.00  0.00    +0.000 NA
ATOM      3  C   UNL     1       7.480   5.634  19.680  0.00  0.00    +0.000 A 
ATOM      4  N   UNL     1       6.539   4.750  19.286  0.00  0.00    +0.000 NA
ATOM      5  C   UNL     1       6.171   4.946  18.005  0.00  0.00    +0.000 A 
ATOM      6  C   UNL     1       6.668   5.911  17.136  0.00  0.00    +0.000 A 
ATOM      7  N   UNL     1       6.045   5.814  15.884  0.00  0.00    +0.000 NA
ATOM      8  C   UNL     1       5.196   4.819  16.016  0.00  0.00    +0.000 A 
ATOM      9  N   UNL     1       5.230   4.262  17.273  0.00  0.00    +0.000 N 
ENDROOT
BRANCH   1  10
ATOM     10  N   UNL     1       8.260   7.765  16.912  0.00  0.00    +0.000 N 
ATOM     11  H   UNL     1       7.800   8.656  16.804  0.00  0.00    +0.000 HD
ATOM     12  H   UNL     1       9.165   7.588  16.504  0.00  0.00    +0.000 HD
ENDBRANCH   1  10
BRANCH   8  13
ATOM     13  O   UNL     1       4.383   4.382  15.059  0.00  0.00    +0.000 OA
ATOM     14  H   UNL     1       4.831   4.524  14.206  0.00  0.00    +0.000 HD
ENDBRANCH   8  13
BRANCH   9  15
ATOM     15  C   UNL     1       4.371   3.181  17.732  0.00  0.00    +0.000 C 
BRANCH  15  16
ATOM     16  C   UNL     1       3.523   3.708  18.928  0.00  0.00    +0.000 A 
ATOM     17  C   UNL     1       3.299   2.519  19.885  0.00  0.00    +0.000 A 
ATOM     18  C   UNL     1       2.593   2.770  21.046  0.00  0.00    +0.000 A 
ATOM     19  C   UNL     1       2.081   4.025  21.258  0.00  0.00    +0.000 A 
ATOM     20  C   UNL     1       2.309   5.004  20.433  0.00  0.00    +0.000 A 
ATOM     21  C   UNL     1       1.762   6.271  20.632  0.00  0.00    +0.000 A 
ATOM     22  C   UNL     1       1.857   7.524  19.905  0.00  0.00    +0.000 A 
ATOM     23  C   UNL     1       2.177   7.890  18.626  0.00  0.00    +0.000 A 
ATOM     24  C   UNL     1       2.959   6.205  18.319  0.00  0.00    +0.000 A 
ATOM     25  C   UNL     1       3.001   4.960  19.178  0.00  0.00    +0.000 A 
ENDBRANCH  15  16
ENDBRANCH   9  15
TORSDOF 4
ENDMDL
MODEL 7
REMARK VINA RESULT:      -7.3      2.067      3.664
REMARK  Name = 
REMARK  4 active torsions:
REMARK  status: ('A' for Active; 'I' for Inactive)
REMARK    1  A    between atoms: N_1  and  C_2
REMARK    2  A    between atoms: C_9  and  O_10
REMARK    3  A    between atoms: N_11  and  C_12
REMARK    4  A    between atoms: C_12  and  C_13
REMARK                            x       y       z     vdW  Elec       q    Type
REMARK                         _______ _______ _______ _____ _____    ______ ____
ROOT
ATOM      1  C   UNL     1       7.737   6.507  18.864  0.00  0.00    +0.000 A 
ATOM      2  N   UNL     1       7.786   5.567  19.845  0.00  0.00    +0.000 NA
ATOM      3  C   UNL     1       6.948   4.510  19.764  0.00  0.00    +0.000 A 
ATOM      4  N   UNL     1       6.030   4.252  18.808  0.00  0.00    +0.000 NA
ATOM      5  C   UNL     1       6.001   5.214  17.867  0.00  0.00    +0.000 A 
ATOM      6  C   UNL     1       6.798   6.352  17.815  0.00  0.00    +0.000 A 
ATOM      7  N   UNL     1       6.482   7.125  16.690  0.00  0.00    +0.000 NA
ATOM      8  C   UNL     1       5.515   6.461  16.097  0.00  0.00    +0.000 A 
ATOM      9  N   UNL     1       5.185   5.304  16.763  0.00  0.00    +0.000 N 
ENDROOT
BRANCH   1  10
ATOM     10  N   UNL     1       8.605   7.575  18.940  0.00  0.00    +0.000 N 
ATOM     11  H   UNL     1       8.888   7.928  19.841  0.00  0.00    +0.000 HD
ATOM     12  H   UNL     1       8.961   7.971  18.084  0.00  0.00    +0.000 HD
ENDBRANCH   1  10
BRANCH   8  13
ATOM     13  O   UNL     1       4.906   6.845  14.979  0.00  0.00    +0.000 OA
ATOM     14  H   UNL     1       3.983   6.540  15.028  0.00  0.00    +0.000 HD
ENDBRANCH   8  13
BRANCH   9  15
ATOM     15  C   UNL     1       4.122   4.391  16.377  0.00  0.00    +0.000 C 
BRANCH  15  16
ATOM     16  C   UNL     1       3.210   4.152  17.617  0.00  0.00    +0.000 A 
ATOM     17  C   UNL     1       2.898   2.642  17.668  0.00  0.00    +0.000 A 
ATOM     18  C   UNL     1       2.124   2.195  18.722  0.00  0.00    +0.000 A 
ATOM     19  C   UNL     1       1.627   3.106  19.620  0.00  0.00    +0.000 A 
ATOM     20  C   UNL     1       1.930   4.369  19.549  0.00  0.00    +0.000 A 
ATOM     21  C   UNL     1       1.400   5.299  20.443  0.00  0.00    +0.000 A 
ATOM     22  C   UNL     1       1.570   6.731  20.609  0.00  0.00    +0.000 A 
ATOM     23  C   UNL     1       1.980   7.766  19.813  0.00  0.00    +0.000 A 
ATOM     24  C   UNL     1       2.742   6.551  18.594  0.00  0.00    +0.000 A 
ATOM     25  C   UNL     1       2.701   5.039  18.542  0.00  0.00    +0.000 A 
ENDBRANCH  15  16
ENDBRANCH   9  15
TORSDOF 4
ENDMDL
MODEL 8
REMARK VINA RESULT:      -7.3      2.204      3.634
REMARK  Name = 
REMARK  4 active torsions:
REMARK  status: ('A' for Active; 'I' for Inactive)
REMARK    1  A    between atoms: N_1  and  C_2
REMARK    2  A    between atoms: C_9  and  O_10
REMARK    3  A    between atoms: N_11  and  C_12
REMARK    4  A    between atoms: C_12  and  C_13
REMARK                            x       y       z     vdW  Elec       q    Type
REMARK                         _______ _______ _______ _____ _____    ______ ____
ROOT
ATOM      1  C   UNL     1       7.606   6.978  18.149  0.00  0.00    +0.000 A 
ATOM      2  N   UNL     1       7.386   7.782  17.074  0.00  0.00    +0.000 NA
ATOM      3  C   UNL     1       6.374   7.469  16.236  0.00  0.00    +0.000 A 
ATOM      4  N   UNL     1       5.521   6.426  16.319  0.00  0.00    +0.000 NA
ATOM      5  C   UNL     1       5.784   5.646  17.385  0.00  0.00    +0.000 A 
ATOM      6  C   UNL     1       6.784   5.840  18.331  0.00  0.00    +0.000 A 
ATOM      7  N   UNL     1       6.756   4.822  19.294  0.00  0.00    +0.000 NA
ATOM      8  C   UNL     1       5.766   4.044  18.920  0.00  0.00    +0.000 A 
ATOM      9  N   UNL     1       5.147   4.492  17.776  0.00  0.00    +0.000 N 
ENDROOT
BRANCH   1  10
ATOM     10  N   UNL     1       8.629   7.309  19.012  0.00  0.00    +0.000 N 
ATOM     11  H   UNL     1       9.572   7.015  18.808  0.00  0.00    +0.000 HD
ATOM     12  H   UNL     1       8.415   7.863  19.826  0.00  0.00    +0.000 HD
ENDBRANCH   1  10
BRANCH   8  13
ATOM     13  O   UNL     1       5.386   2.939  19.555  0.00  0.00    +0.000 OA
ATOM     14  H   UNL     1       4.809   2.437  18.953  0.00  0.00    +0.000 HD
ENDBRANCH   8  13
BRANCH   9  15
ATOM     15  C   UNL     1       4.055   3.814  17.095  0.00  0.00    +0.000 C 
BRANCH  15  16
ATOM     16  C   UNL     1       2.843   3.742  18.070  0.00  0.00    +0.000 A 
ATOM     17  C   UNL     1       2.204   2.348  17.899  0.00  0.00    +0.000 A 
ATOM     18  C   UNL     1       1.121   2.049  18.703  0.00  0.00    +0.000 A 
ATOM     19  C   UNL     1       0.636   3.010  19.554  0.00  0.00    +0.000 A 
ATOM     20  C   UNL     1       1.216   4.167  19.679  0.00  0.00    +0.000 A 
ATOM     21  C   UNL     1       0.703   5.155  20.520  0.00  0.00    +0.000 A 
ATOM     22  C   UNL     1       1.138   6.497  20.862  0.00  0.00    +0.000 A 
ATOM     23  C   UNL     1       1.943   7.441  20.285  0.00  0.00    +0.000 A 
ATOM     24  C   UNL     1       2.691   6.136  19.151  0.00  0.00    +0.000 A 
ATOM     25  C   UNL     1       2.333   4.681  18.942  0.00  0.00    +0.000 A 
ENDBRANCH  15  16
ENDBRANCH   9  15
TORSDOF 4
ENDMDL
MODEL 9
REMARK VINA RESULT:      -7.3      7.775      9.776
REMARK  Name = 
REMARK  4 active torsions:
REMARK  status: ('A' for Active; 'I' for Inactive)
REMARK    1  A    between atoms: N_1  and  C_2
REMARK    2  A    between atoms: C_9  and  O_10
REMARK    3  A    between atoms: N_11  and  C_12
REMARK    4  A    between atoms: C_12  and  C_13
REMARK                            x       y       z     vdW  Elec       q    Type
REMARK                         _______ _______ _______ _____ _____    ______ ____
ROOT
ATOM      1  C   UNL     1      -4.450  11.079  17.432  0.00  0.00    +0.000 A 
ATOM      2  N   UNL     1      -3.815  10.412  16.431  0.00  0.00    +0.000 NA
ATOM      3  C   UNL     1      -2.471  10.298  16.487  0.00  0.00    +0.000 A 
ATOM      4  N   UNL     1      -1.637  10.778  17.434  0.00  0.00    +0.000 NA
ATOM      5  C   UNL     1      -2.301  11.446  18.396  0.00  0.00    +0.000 A 
ATOM      6  C   UNL     1      -3.675  11.643  18.475  0.00  0.00    +0.000 A 
ATOM      7  N   UNL     1      -4.002  12.389  19.616  0.00  0.00    +0.000 NA
ATOM      8  C   UNL     1      -2.846  12.631  20.192  0.00  0.00    +0.000 A 
ATOM      9  N   UNL     1      -1.788  12.088  19.499  0.00  0.00    +0.000 N 
ENDROOT
BRANCH   1  10
ATOM     10  N   UNL     1      -5.823  11.179  17.382  0.00  0.00    +0.000 N 
ATOM     11  H   UNL     1      -6.374  10.382  17.104  0.00  0.00    +0.000 HD
ATOM     12  H   UNL     1      -6.255  12.051  17.648  0.00  0.00    +0.000 HD
ENDBRANCH   1  10
BRANCH   8  13
ATOM     13  O   UNL     1      -2.687  13.323  21.316  0.00  0.00    +0.000 OA
ATOM     14  H   UNL     1      -2.562  14.256  21.071  0.00  0.00    +0.000 HD
ENDBRANCH   8  13
BRANCH   9  15
ATOM     15  C   UNL     1      -0.388  12.232  19.863  0.00  0.00    +0.000 C 
BRANCH  15  16
ATOM     16  C   UNL     1       0.096  10.886  20.480  0.00  0.00    +0.000 A 
ATOM     17  C   UNL     1      -0.339  10.881  21.960  0.00  0.00    +0.000 A 
ATOM     18  C   UNL     1      -0.042   9.753  22.699  0.00  0.00    +0.000 A 
ATOM     19  C   UNL     1       0.668   8.737  22.112  0.00  0.00    +0.000 A 
ATOM     20  C   UNL     1       1.001   8.774  20.855  0.00  0.00    +0.000 A 
ATOM     21  C   UNL     1       1.750   7.756  20.266  0.00  0.00    +0.000 A 
ATOM     22  C   UNL     1       2.239   7.529  18.918  0.00  0.00    +0.000 A 
ATOM     23  C   UNL     1       2.489   8.312  17.825  0.00  0.00    +0.000 A 
ATOM     24  C   UNL     1       1.458   9.705  18.562  0.00  0.00    +0.000 A 
ATOM     25  C   UNL     1       0.802   9.842  19.919  0.00  0.00    +0.000 A 
ENDBRANCH  15  16
ENDBRANCH   9  15
TORSDOF 4
ENDMDL
