MODEL 1
REMARK VINA RESULT:      -7.1      0.000      0.000
REMARK  Name = 
REMARK  8 active torsions:
REMARK  status: ('A' for Active; 'I' for Inactive)
REMARK    1  A    between atoms: C_1  and  C_2
REMARK    2  A    between atoms: C_2  and  O_3
REMARK    3  A    between atoms: O_3  and  C_4
REMARK    4  A    between atoms: C_4  and  C_6
REMARK    5  A    between atoms: C_8  and  C_9
REMARK    6  A    between atoms: N_18  and  C_19
REMARK    7  A    between atoms: C_22  and  S_23
REMARK    8  A    between atoms: S_23  and  N_24
REMARK                            x       y       z     vdW  Elec       q    Type
REMARK                         _______ _______ _______ _____ _____    ______ ____
ROOT
ATOM      1  C   UNL     1      -1.865  11.318  18.180  0.00  0.00    +0.000 A 
ATOM      2  C   UNL     1      -1.023  12.388  18.528  0.00  0.00    +0.000 A 
ATOM      3  C   UNL     1       0.243  11.854  18.705  0.00  0.00    +0.000 A 
ATOM      4  N   UNL     1       0.093  10.484  18.519  0.00  0.00    +0.000 N 
ATOM      5  N   UNL     1      -1.162  10.180  18.075  0.00  0.00    +0.000 NA
ENDROOT
BRANCH   3   6
ATOM      6  C   UNL     1       1.413  12.625  19.025  0.00  0.00    +0.000 A 
ATOM      7  C   UNL     1       2.357  13.017  18.097  0.00  0.00    +0.000 A 
ATOM      8  C   UNL     1       3.365  13.855  18.651  0.00  0.00    +0.000 A 
ATOM      9  C   UNL     1       4.426  14.525  18.019  0.00  0.00    +0.000 A 
ATOM     10  C   UNL     1       4.651  15.833  18.420  0.00  0.00    +0.000 A 
ATOM     11  C   UNL     1       4.325  16.199  19.716  0.00  0.00    +0.000 A 
ATOM     12  C   UNL     1       3.664  15.307  20.570  0.00  0.00    +0.000 A 
ATOM     13  C   UNL     1       3.064  14.192  19.966  0.00  0.00    +0.000 A 
ATOM     14  S   UNL     1       1.927  13.065  20.600  0.00  0.00    +0.000 S 
ENDBRANCH   3   6
BRANCH   4  15
ATOM     15  C   UNL     1       0.999   9.411  18.743  0.00  0.00    +0.000 A 
ATOM     16  C   UNL     1       1.800   8.886  17.718  0.00  0.00    +0.000 A 
ATOM     17  C   UNL     1       2.575   7.743  17.943  0.00  0.00    +0.000 A 
ATOM     18  C   UNL     1       2.570   7.146  19.207  0.00  0.00    +0.000 A 
ATOM     19  C   UNL     1       1.842   7.715  20.255  0.00  0.00    +0.000 A 
ATOM     20  C   UNL     1       1.062   8.854  20.025  0.00  0.00    +0.000 A 
BRANCH  18  21
ATOM     21  S   UNL     1       3.436   5.620  19.458  0.00  0.00    +0.000 S 
ATOM     22  O   UNL     1       4.864   5.849  19.335  0.00  0.00    +0.000 OA
ATOM     23  O   UNL     1       2.840   4.892  20.555  0.00  0.00    +0.000 OA
BRANCH  21  24
ATOM     24  N   UNL     1       2.992   4.772  18.060  0.00  0.00    +0.000 NA
ATOM     25  H   UNL     1       2.851   5.420  17.289  0.00  0.00    +0.000 HD
ATOM     26  H   UNL     1       3.682   4.047  17.865  0.00  0.00    +0.000 HD
ENDBRANCH  21  24
ENDBRANCH  18  21
ENDBRANCH   4  15
BRANCH   1  27
ATOM     27  C   UNL     1      -3.315  11.408  18.015  0.00  0.00    +0.000 C 
ATOM     28  O   UNL     1      -4.027  12.039  18.791  0.00  0.00    +0.000 OA
BRANCH  27  29
ATOM     29  O   UNL     1      -3.784  10.617  17.007  0.00  0.00    +0.000 OA
BRANCH  29  31
ATOM     30  C   UNL     1      -3.034  10.137  14.787  0.00  0.00    +0.000 C 
ATOM     31  C   UNL     1      -3.669  11.176  15.696  0.00  0.00    +0.000 C 
ENDBRANCH  29  31
ENDBRANCH  27  29
ENDBRANCH   1  27
TORSDOF 7
ENDMDL
MODEL 2
REMARK VINA RESULT:      -6.8      1.334      1.514
REMARK  Name = 
REMARK  8 active torsions:
REMARK  status: ('A' for Active; 'I' for Inactive)
REMARK    1  A    between atoms: C_1  and  C_2
REMARK    2  A    between atoms: C_2  and  O_3
REMARK    3  A    between atoms: O_3  and  C_4
REMARK    4  A    between atoms: C_4  and  C_6
REMARK    5  A    between atoms: C_8  and  C_9
REMARK    6  A    between atoms: N_18  and  C_19
REMARK    7  A    between atoms: C_22  and  S_23
REMARK    8  A    between atoms: S_23  and  N_24
REMARK                            x       y       z     vdW  Elec       q    Type
REMARK                         _______ _______ _______ _____ _____    ______ ____
ROOT
ATOM      1  C   UNL     1      -2.003  11.883  19.041  0.00  0.00    +0.000 A 
ATOM      2  C   UNL     1      -1.043  12.891  19.241  0.00  0.00    +0.000 A 
ATOM      3  C   UNL     1       0.196  12.272  19.198  0.00  0.00    +0.000 A 
ATOM      4  N   UNL     1      -0.076  10.917  19.039  0.00  0.00    +0.000 N 
ATOM      5  N   UNL     1      -1.406  10.703  18.815  0.00  0.00    +0.000 NA
ENDROOT
BRANCH   3   6
ATOM      6  C   UNL     1       1.453  12.959  19.313  0.00  0.00    +0.000 A 
ATOM      7  C   UNL     1       2.215  13.363  18.235  0.00  0.00    +0.000 A 
ATOM      8  C   UNL     1       3.364  14.110  18.616  0.00  0.00    +0.000 A 
ATOM      9  C   UNL     1       4.317  14.764  17.819  0.00  0.00    +0.000 A 
ATOM     10  C   UNL     1       4.700  16.031  18.235  0.00  0.00    +0.000 A 
ATOM     11  C   UNL     1       4.664  16.327  19.588  0.00  0.00    +0.000 A 
ATOM     12  C   UNL     1       4.133  15.416  20.509  0.00  0.00    +0.000 A 
ATOM     13  C   UNL     1       3.354  14.375  19.981  0.00  0.00    +0.000 A 
ATOM     14  S   UNL     1       2.299  13.269  20.772  0.00  0.00    +0.000 S 
ENDBRANCH   3   6
BRANCH   4  15
ATOM     15  C   UNL     1       0.781   9.784  19.102  0.00  0.00    +0.000 A 
ATOM     16  C   UNL     1       1.477   9.312  17.980  0.00  0.00    +0.000 A 
ATOM     17  C   UNL     1       2.198   8.115  18.049  0.00  0.00    +0.000 A 
ATOM     18  C   UNL     1       2.247   7.409  19.255  0.00  0.00    +0.000 A 
ATOM     19  C   UNL     1       1.628   7.919  20.399  0.00  0.00    +0.000 A 
ATOM     20  C   UNL     1       0.900   9.112  20.325  0.00  0.00    +0.000 A 
BRANCH  18  21
ATOM     21  S   UNL     1       3.040   5.825  19.310  0.00  0.00    +0.000 S 
ATOM     22  O   UNL     1       2.368   4.916  18.398  0.00  0.00    +0.000 OA
ATOM     23  O   UNL     1       4.475   5.995  19.347  0.00  0.00    +0.000 OA
BRANCH  21  24
ATOM     24  N   UNL     1       2.607   5.309  20.864  0.00  0.00    +0.000 NA
ATOM     25  H   UNL     1       3.434   5.007  21.374  0.00  0.00    +0.000 HD
ATOM     26  H   UNL     1       2.081   6.045  21.335  0.00  0.00    +0.000 HD
ENDBRANCH  21  24
ENDBRANCH  18  21
ENDBRANCH   4  15
BRANCH   1  27
ATOM     27  C   UNL     1      -3.450  12.072  19.127  0.00  0.00    +0.000 C 
ATOM     28  O   UNL     1      -3.991  12.566  20.112  0.00  0.00    +0.000 OA
BRANCH  27  29
ATOM     29  O   UNL     1      -4.119  11.521  18.073  0.00  0.00    +0.000 OA
BRANCH  29  31
ATOM     30  C   UNL     1      -6.455  11.021  18.191  0.00  0.00    +0.000 C 
ATOM     31  C   UNL     1      -5.417  12.070  17.829  0.00  0.00    +0.000 C 
ENDBRANCH  29  31
ENDBRANCH  27  29
ENDBRANCH   1  27
TORSDOF 7
ENDMDL
MODEL 3
REMARK VINA RESULT:      -6.7      0.964      1.704
REMARK  Name = 
REMARK  8 active torsions:
REMARK  status: ('A' for Active; 'I' for Inactive)
REMARK    1  A    between atoms: C_1  and  C_2
REMARK    2  A    between atoms: C_2  and  O_3
REMARK    3  A    between atoms: O_3  and  C_4
REMARK    4  A    between atoms: C_4  and  C_6
REMARK    5  A    between atoms: C_8  and  C_9
REMARK    6  A    between atoms: N_18  and  C_19
REMARK    7  A    between atoms: C_22  and  S_23
REMARK    8  A    between atoms: S_23  and  N_24
REMARK                            x       y       z     vdW  Elec       q    Type
REMARK                         _______ _______ _______ _____ _____    ______ ____
ROOT
ATOM      1  C   UNL     1      -1.921  11.581  18.498  0.00  0.00    +0.000 A 
ATOM      2  C   UNL     1      -1.026  12.622  18.803  0.00  0.00    +0.000 A 
ATOM      3  C   UNL     1       0.230  12.046  18.907  0.00  0.00    +0.000 A 
ATOM      4  N   UNL     1       0.025  10.682  18.725  0.00  0.00    +0.000 N 
ATOM      5  N   UNL     1      -1.262  10.421  18.350  0.00  0.00    +0.000 NA
ENDROOT
BRANCH   3   6
ATOM      6  C   UNL     1       1.441  12.776  19.164  0.00  0.00    +0.000 A 
ATOM      7  C   UNL     1       2.352  13.129  18.189  0.00  0.00    +0.000 A 
ATOM      8  C   UNL     1       3.414  13.934  18.687  0.00  0.00    +0.000 A 
ATOM      9  C   UNL     1       4.467  14.560  18.000  0.00  0.00    +0.000 A 
ATOM     10  C   UNL     1       4.757  15.863  18.379  0.00  0.00    +0.000 A 
ATOM     11  C   UNL     1       4.507  16.249  19.685  0.00  0.00    +0.000 A 
ATOM     12  C   UNL     1       3.856  15.387  20.577  0.00  0.00    +0.000 A 
ATOM     13  C   UNL     1       3.189  14.290  20.012  0.00  0.00    +0.000 A 
ATOM     14  S   UNL     1       2.045  13.209  20.709  0.00  0.00    +0.000 S 
ENDBRANCH   3   6
BRANCH   4  15
ATOM     15  C   UNL     1       0.907   9.579  18.893  0.00  0.00    +0.000 A 
ATOM     16  C   UNL     1       1.665   9.063  17.832  0.00  0.00    +0.000 A 
ATOM     17  C   UNL     1       2.413   7.893  18.004  0.00  0.00    +0.000 A 
ATOM     18  C   UNL     1       2.425   7.260  19.251  0.00  0.00    +0.000 A 
ATOM     19  C   UNL     1       1.742   7.819  20.334  0.00  0.00    +0.000 A 
ATOM     20  C   UNL     1       0.987   8.984  20.158  0.00  0.00    +0.000 A 
BRANCH  18  21
ATOM     21  S   UNL     1       3.255   5.705  19.435  0.00  0.00    +0.000 S 
ATOM     22  O   UNL     1       4.684   5.896  19.263  0.00  0.00    +0.000 OA
ATOM     23  O   UNL     1       2.680   4.969  20.539  0.00  0.00    +0.000 OA
BRANCH  21  24
ATOM     24  N   UNL     1       2.733   4.902  18.037  0.00  0.00    +0.000 NA
ATOM     25  H   UNL     1       2.203   5.538  17.448  0.00  0.00    +0.000 HD
ATOM     26  H   UNL     1       3.533   4.478  17.567  0.00  0.00    +0.000 HD
ENDBRANCH  21  24
ENDBRANCH  18  21
ENDBRANCH   4  15
BRANCH   1  27
ATOM     27  C   UNL     1      -3.374  11.719  18.415  0.00  0.00    +0.000 C 
ATOM     28  O   UNL     1      -3.993  11.532  17.371  0.00  0.00    +0.000 OA
BRANCH  27  29
ATOM     29  O   UNL     1      -3.927  12.203  19.564  0.00  0.00    +0.000 OA
BRANCH  29  31
ATOM     30  C   UNL     1      -5.800  12.515  21.019  0.00  0.00    +0.000 C 
ATOM     31  C   UNL     1      -5.356  12.170  19.607  0.00  0.00    +0.000 C 
ENDBRANCH  29  31
ENDBRANCH  27  29
ENDBRANCH   1  27
TORSDOF 7
ENDMDL
MODEL 4
REMARK VINA RESULT:      -6.7      2.850      6.001
REMARK  Name = 
REMARK  8 active torsions:
REMARK  status: ('A' for Active; 'I' for Inactive)
REMARK    1  A    between atoms: C_1  and  C_2
REMARK    2  A    between atoms: C_2  and  O_3
REMARK    3  A    between atoms: O_3  and  C_4
REMARK    4  A    between atoms: C_4  and  C_6
REMARK    5  A    between atoms: C_8  and  C_9
REMARK    6  A    between atoms: N_18  and  C_19
REMARK    7  A    between atoms: C_22  and  S_23
REMARK    8  A    between atoms: S_23  and  N_24
REMARK                            x       y       z     vdW  Elec       q    Type
REMARK                         _______ _______ _______ _____ _____    ______ ____
ROOT
ATOM      1  C   UNL     1       1.836  13.741  18.607  0.00  0.00    +0.000 A 
ATOM      2  C   UNL     1       0.445  13.753  18.398  0.00  0.00    +0.000 A 
ATOM      3  C   UNL     1      -0.002  12.463  18.630  0.00  0.00    +0.000 A 
ATOM      4  N   UNL     1       1.143  11.722  18.904  0.00  0.00    +0.000 N 
ATOM      5  N   UNL     1       2.240  12.528  19.015  0.00  0.00    +0.000 NA
ENDROOT
BRANCH   3   6
ATOM      6  C   UNL     1      -1.379  12.056  18.569  0.00  0.00    +0.000 A 
ATOM      7  C   UNL     1      -2.341  12.443  19.479  0.00  0.00    +0.000 A 
ATOM      8  C   UNL     1      -3.644  11.986  19.139  0.00  0.00    +0.000 A 
ATOM      9  C   UNL     1      -4.879  12.250  19.753  0.00  0.00    +0.000 A 
ATOM     10  C   UNL     1      -5.940  12.527  18.903  0.00  0.00    +0.000 A 
ATOM     11  C   UNL     1      -5.945  11.963  17.637  0.00  0.00    +0.000 A 
ATOM     12  C   UNL     1      -4.845  11.231  17.172  0.00  0.00    +0.000 A 
ATOM     13  C   UNL     1      -3.647  11.382  17.886  0.00  0.00    +0.000 A 
ATOM     14  S   UNL     1      -2.043  10.919  17.469  0.00  0.00    +0.000 S 
ENDBRANCH   3   6
BRANCH   4  15
ATOM     15  C   UNL     1       1.330  10.319  19.048  0.00  0.00    +0.000 A 
ATOM     16  C   UNL     1       1.021   9.644  20.238  0.00  0.00    +0.000 A 
ATOM     17  C   UNL     1       1.348   8.292  20.387  0.00  0.00    +0.000 A 
ATOM     18  C   UNL     1       1.956   7.610  19.329  0.00  0.00    +0.000 A 
ATOM     19  C   UNL     1       2.187   8.254  18.111  0.00  0.00    +0.000 A 
ATOM     20  C   UNL     1       1.866   9.609  17.967  0.00  0.00    +0.000 A 
BRANCH  18  21
ATOM     21  S   UNL     1       2.500   5.939  19.562  0.00  0.00    +0.000 S 
ATOM     22  O   UNL     1       3.951   5.898  19.564  0.00  0.00    +0.000 OA
ATOM     23  O   UNL     1       1.687   5.294  20.569  0.00  0.00    +0.000 OA
BRANCH  21  24
ATOM     24  N   UNL     1       2.028   5.245  18.090  0.00  0.00    +0.000 NA
ATOM     25  H   UNL     1       1.350   4.506  18.256  0.00  0.00    +0.000 HD
ATOM     26  H   UNL     1       1.696   5.974  17.459  0.00  0.00    +0.000 HD
ENDBRANCH  21  24
ENDBRANCH  18  21
ENDBRANCH   4  15
BRANCH   1  27
ATOM     27  C   UNL     1       2.734  14.867  18.357  0.00  0.00    +0.000 C 
ATOM     28  O   UNL     1       3.938  14.718  18.169  0.00  0.00    +0.000 OA
BRANCH  27  29
ATOM     29  O   UNL     1       2.117  16.076  18.493  0.00  0.00    +0.000 OA
BRANCH  29  31
ATOM     30  C   UNL     1       1.286  17.940  17.245  0.00  0.00    +0.000 C 
ATOM     31  C   UNL     1       2.492  17.058  17.522  0.00  0.00    +0.000 C 
ENDBRANCH  29  31
ENDBRANCH  27  29
ENDBRANCH   1  27
TORSDOF 7
ENDMDL
MODEL 5
REMARK VINA RESULT:      -6.7      2.815      6.215
REMARK  Name = 
REMARK  8 active torsions:
REMARK  status: ('A' for Active; 'I' for Inactive)
REMARK    1  A    between atoms: C_1  and  C_2
REMARK    2  A    between atoms: C_2  and  O_3
REMARK    3  A    between atoms: O_3  and  C_4
REMARK    4  A    between atoms: C_4  and  C_6
REMARK    5  A    between atoms: C_8  and  C_9
REMARK    6  A    between atoms: N_18  and  C_19
REMARK    7  A    between atoms: C_22  and  S_23
REMARK    8  A    between atoms: S_23  and  N_24
REMARK                            x       y       z     vdW  Elec       q    Type
REMARK                         _______ _______ _______ _____ _____    ______ ____
ROOT
ATOM      1  C   UNL     1       1.784  13.838  18.809  0.00  0.00    +0.000 A 
ATOM      2  C   UNL     1       0.398  13.832  18.571  0.00  0.00    +0.000 A 
ATOM      3  C   UNL     1      -0.023  12.520  18.714  0.00  0.00    +0.000 A 
ATOM      4  N   UNL     1       1.133  11.789  18.969  0.00  0.00    +0.000 N 
ATOM      5  N   UNL     1       2.208  12.611  19.153  0.00  0.00    +0.000 NA
ENDROOT
BRANCH   3   6
ATOM      6  C   UNL     1      -1.388  12.086  18.598  0.00  0.00    +0.000 A 
ATOM      7  C   UNL     1      -2.387  12.432  19.486  0.00  0.00    +0.000 A 
ATOM      8  C   UNL     1      -3.669  11.957  19.092  0.00  0.00    +0.000 A 
ATOM      9  C   UNL     1      -4.929  12.180  19.670  0.00  0.00    +0.000 A 
ATOM     10  C   UNL     1      -5.967  12.456  18.792  0.00  0.00    +0.000 A 
ATOM     11  C   UNL     1      -5.919  11.923  17.515  0.00  0.00    +0.000 A 
ATOM     12  C   UNL     1      -4.789  11.225  17.069  0.00  0.00    +0.000 A 
ATOM     13  C   UNL     1      -3.619  11.383  17.826  0.00  0.00    +0.000 A 
ATOM     14  S   UNL     1      -1.992  10.963  17.452  0.00  0.00    +0.000 S 
ENDBRANCH   3   6
BRANCH   4  15
ATOM     15  C   UNL     1       1.350  10.385  19.032  0.00  0.00    +0.000 A 
ATOM     16  C   UNL     1       1.059   9.637  20.182  0.00  0.00    +0.000 A 
ATOM     17  C   UNL     1       1.415   8.285  20.254  0.00  0.00    +0.000 A 
ATOM     18  C   UNL     1       2.035   7.678  19.157  0.00  0.00    +0.000 A 
ATOM     19  C   UNL     1       2.249   8.396  17.978  0.00  0.00    +0.000 A 
ATOM     20  C   UNL     1       1.899   9.749  17.912  0.00  0.00    +0.000 A 
BRANCH  18  21
ATOM     21  S   UNL     1       2.615   6.009  19.295  0.00  0.00    +0.000 S 
ATOM     22  O   UNL     1       1.816   5.147  18.442  0.00  0.00    +0.000 OA
ATOM     23  O   UNL     1       4.061   5.991  19.309  0.00  0.00    +0.000 OA
BRANCH  21  24
ATOM     24  N   UNL     1       2.144   5.641  20.880  0.00  0.00    +0.000 NA
ATOM     25  H   UNL     1       1.198   5.270  20.884  0.00  0.00    +0.000 HD
ATOM     26  H   UNL     1       2.831   5.018  21.305  0.00  0.00    +0.000 HD
ENDBRANCH  21  24
ENDBRANCH  18  21
ENDBRANCH   4  15
BRANCH   1  27
ATOM     27  C   UNL     1       2.660  14.997  18.648  0.00  0.00    +0.000 C 
ATOM     28  O   UNL     1       2.252  16.074  18.222  0.00  0.00    +0.000 OA
BRANCH  27  29
ATOM     29  O   UNL     1       3.971  14.707  18.886  0.00  0.00    +0.000 OA
BRANCH  29  31
ATOM     30  C   UNL     1       6.259  15.108  18.313  0.00  0.00    +0.000 C 
ATOM     31  C   UNL     1       4.848  14.922  17.777  0.00  0.00    +0.000 C 
ENDBRANCH  29  31
ENDBRANCH  27  29
ENDBRANCH   1  27
TORSDOF 7
ENDMDL
MODEL 6
REMARK VINA RESULT:      -6.5      1.577      2.395
REMARK  Name = 
REMARK  8 active torsions:
REMARK  status: ('A' for Active; 'I' for Inactive)
REMARK    1  A    between atoms: C_1  and  C_2
REMARK    2  A    between atoms: C_2  and  O_3
REMARK    3  A    between atoms: O_3  and  C_4
REMARK    4  A    between atoms: C_4  and  C_6
REMARK    5  A    between atoms: C_8  and  C_9
REMARK    6  A    between atoms: N_18  and  C_19
REMARK    7  A    between atoms: C_22  and  S_23
REMARK    8  A    between atoms: S_23  and  N_24
REMARK                            x       y       z     vdW  Elec       q    Type
REMARK                         _______ _______ _______ _____ _____    ______ ____
ROOT
ATOM      1  C   UNL     1      -1.927  12.061  19.276  0.00  0.00    +0.000 A 
ATOM      2  C   UNL     1      -0.944  13.046  19.481  0.00  0.00    +0.000 A 
ATOM      3  C   UNL     1       0.282  12.420  19.326  0.00  0.00    +0.000 A 
ATOM      4  N   UNL     1      -0.016  11.080  19.099  0.00  0.00    +0.000 N 
ATOM      5  N   UNL     1      -1.359  10.892  18.942  0.00  0.00    +0.000 NA
ENDROOT
BRANCH   3   6
ATOM      6  C   UNL     1       1.552  13.088  19.408  0.00  0.00    +0.000 A 
ATOM      7  C   UNL     1       2.341  13.386  18.315  0.00  0.00    +0.000 A 
ATOM      8  C   UNL     1       3.499  14.138  18.655  0.00  0.00    +0.000 A 
ATOM      9  C   UNL     1       4.480  14.704  17.825  0.00  0.00    +0.000 A 
ATOM     10  C   UNL     1       4.885  15.992  18.144  0.00  0.00    +0.000 A 
ATOM     11  C   UNL     1       4.832  16.399  19.467  0.00  0.00    +0.000 A 
ATOM     12  C   UNL     1       4.265  15.578  20.450  0.00  0.00    +0.000 A 
ATOM     13  C   UNL     1       3.472  14.514  19.994  0.00  0.00    +0.000 A 
ATOM     14  S   UNL     1       2.379  13.499  20.852  0.00  0.00    +0.000 S 
ENDBRANCH   3   6
BRANCH   4  15
ATOM     15  C   UNL     1       0.829   9.938  19.040  0.00  0.00    +0.000 A 
ATOM     16  C   UNL     1       1.491   9.560  17.862  0.00  0.00    +0.000 A 
ATOM     17  C   UNL     1       2.200   8.355  17.807  0.00  0.00    +0.000 A 
ATOM     18  C   UNL     1       2.272   7.546  18.945  0.00  0.00    +0.000 A 
ATOM     19  C   UNL     1       1.689   7.960  20.145  0.00  0.00    +0.000 A 
ATOM     20  C   UNL     1       0.973   9.161  20.195  0.00  0.00    +0.000 A 
BRANCH  18  21
ATOM     21  S   UNL     1       3.048   5.956  18.840  0.00  0.00    +0.000 S 
ATOM     22  O   UNL     1       2.201   5.053  18.081  0.00  0.00    +0.000 OA
ATOM     23  O   UNL     1       4.463   6.116  18.588  0.00  0.00    +0.000 OA
BRANCH  21  24
ATOM     24  N   UNL     1       2.932   5.441  20.450  0.00  0.00    +0.000 NA
ATOM     25  H   UNL     1       3.860   5.289  20.835  0.00  0.00    +0.000 HD
ATOM     26  H   UNL     1       2.371   6.106  20.982  0.00  0.00    +0.000 HD
ENDBRANCH  21  24
ENDBRANCH  18  21
ENDBRANCH   4  15
BRANCH   1  27
ATOM     27  C   UNL     1      -3.364  12.255  19.460  0.00  0.00    +0.000 C 
ATOM     28  O   UNL     1      -4.198  11.727  18.729  0.00  0.00    +0.000 OA
BRANCH  27  29
ATOM     29  O   UNL     1      -3.655  13.177  20.423  0.00  0.00    +0.000 OA
BRANCH  29  31
ATOM     30  C   UNL     1      -3.193  13.146  22.770  0.00  0.00    +0.000 C 
ATOM     31  C   UNL     1      -4.103  12.631  21.666  0.00  0.00    +0.000 C 
ENDBRANCH  29  31
ENDBRANCH  27  29
ENDBRANCH   1  27
TORSDOF 7
ENDMDL
MODEL 7
REMARK VINA RESULT:      -6.4      4.587      7.537
REMARK  Name = 
REMARK  8 active torsions:
REMARK  status: ('A' for Active; 'I' for Inactive)
REMARK    1  A    between atoms: C_1  and  C_2
REMARK    2  A    between atoms: C_2  and  O_3
REMARK    3  A    between atoms: O_3  and  C_4
REMARK    4  A    between atoms: C_4  and  C_6
REMARK    5  A    between atoms: C_8  and  C_9
REMARK    6  A    between atoms: N_18  and  C_19
REMARK    7  A    between atoms: C_22  and  S_23
REMARK    8  A    between atoms: S_23  and  N_24
REMARK                            x       y       z     vdW  Elec       q    Type
REMARK                         _______ _______ _______ _____ _____    ______ ____
ROOT
ATOM      1  C   UNL     1      -3.540  10.395  14.964  0.00  0.00    +0.000 A 
ATOM      2  C   UNL     1      -4.800  10.685  15.518  0.00  0.00    +0.000 A 
ATOM      3  C   UNL     1      -4.573  11.105  16.818  0.00  0.00    +0.000 A 
ATOM      4  N   UNL     1      -3.200  10.988  17.008  0.00  0.00    +0.000 N 
ATOM      5  N   UNL     1      -2.564  10.680  15.839  0.00  0.00    +0.000 NA
ENDROOT
BRANCH   3   6
ATOM      6  C   UNL     1      -5.600  11.543  17.722  0.00  0.00    +0.000 A 
ATOM      7  C   UNL     1      -6.134  10.759  18.725  0.00  0.00    +0.000 A 
ATOM      8  C   UNL     1      -7.063  11.460  19.544  0.00  0.00    +0.000 A 
ATOM      9  C   UNL     1      -7.734  11.043  20.704  0.00  0.00    +0.000 A 
ATOM     10  C   UNL     1      -7.790  11.959  21.744  0.00  0.00    +0.000 A 
ATOM     11  C   UNL     1      -7.784  13.311  21.442  0.00  0.00    +0.000 A 
ATOM     12  C   UNL     1      -7.597  13.753  20.126  0.00  0.00    +0.000 A 
ATOM     13  C   UNL     1      -7.091  12.812  19.217  0.00  0.00    +0.000 A 
ATOM     14  S   UNL     1      -6.445  13.033  17.637  0.00  0.00    +0.000 S 
ENDBRANCH   3   6
BRANCH   4  15
ATOM     15  C   UNL     1      -2.410  11.107  18.185  0.00  0.00    +0.000 A 
ATOM     16  C   UNL     1      -2.742  11.996  19.217  0.00  0.00    +0.000 A 
ATOM     17  C   UNL     1      -1.867  12.186  20.293  0.00  0.00    +0.000 A 
ATOM     18  C   UNL     1      -0.675  11.457  20.348  0.00  0.00    +0.000 A 
ATOM     19  C   UNL     1      -0.381  10.507  19.367  0.00  0.00    +0.000 A 
ATOM     20  C   UNL     1      -1.253  10.326  18.287  0.00  0.00    +0.000 A 
BRANCH  18  21
ATOM     21  S   UNL     1       0.499  11.796  21.632  0.00  0.00    +0.000 S 
ATOM     22  O   UNL     1       1.697  12.373  21.051  0.00  0.00    +0.000 OA
ATOM     23  O   UNL     1      -0.178  12.358  22.779  0.00  0.00    +0.000 OA
BRANCH  21  24
ATOM     24  N   UNL     1       0.929  10.222  22.088  0.00  0.00    +0.000 NA
ATOM     25  H   UNL     1       1.692  10.251  22.760  0.00  0.00    +0.000 HD
ATOM     26  H   UNL     1       0.105   9.725  22.425  0.00  0.00    +0.000 HD
ENDBRANCH  21  24
ENDBRANCH  18  21
ENDBRANCH   4  15
BRANCH   1  27
ATOM     27  C   UNL     1      -3.318   9.807  13.644  0.00  0.00    +0.000 C 
ATOM     28  O   UNL     1      -2.208   9.773  13.118  0.00  0.00    +0.000 OA
BRANCH  27  29
ATOM     29  O   UNL     1      -4.476   9.439  13.025  0.00  0.00    +0.000 OA
BRANCH  29  31
ATOM     30  C   UNL     1      -6.056   9.843  11.275  0.00  0.00    +0.000 C 
ATOM     31  C   UNL     1      -4.585   9.841  11.657  0.00  0.00    +0.000 C 
ENDBRANCH  29  31
ENDBRANCH  27  29
ENDBRANCH   1  27
TORSDOF 7
ENDMDL
MODEL 8
REMARK VINA RESULT:      -6.4      2.783      6.051
REMARK  Name = 
REMARK  8 active torsions:
REMARK  status: ('A' for Active; 'I' for Inactive)
REMARK    1  A    between atoms: C_1  and  C_2
REMARK    2  A    between atoms: C_2  and  O_3
REMARK    3  A    between atoms: O_3  and  C_4
REMARK    4  A    between atoms: C_4  and  C_6
REMARK    5  A    between atoms: C_8  and  C_9
REMARK    6  A    between atoms: N_18  and  C_19
REMARK    7  A    between atoms: C_22  and  S_23
REMARK    8  A    between atoms: S_23  and  N_24
REMARK                            x       y       z     vdW  Elec       q    Type
REMARK                         _______ _______ _______ _____ _____    ______ ____
ROOT
ATOM      1  C   UNL     1       1.439  13.502  20.844  0.00  0.00    +0.000 A 
ATOM      2  C   UNL     1       0.178  13.568  20.226  0.00  0.00    +0.000 A 
ATOM      3  C   UNL     1      -0.191  12.264  19.938  0.00  0.00    +0.000 A 
ATOM      4  N   UNL     1       0.887  11.481  20.337  0.00  0.00    +0.000 N 
ATOM      5  N   UNL     1       1.819  12.224  21.003  0.00  0.00    +0.000 NA
ENDROOT
BRANCH   3   6
ATOM      6  C   UNL     1      -1.442  11.886  19.341  0.00  0.00    +0.000 A 
ATOM      7  C   UNL     1      -2.678  12.243  19.843  0.00  0.00    +0.000 A 
ATOM      8  C   UNL     1      -3.755  11.828  19.012  0.00  0.00    +0.000 A 
ATOM      9  C   UNL     1      -5.132  12.081  19.130  0.00  0.00    +0.000 A 
ATOM     10  C   UNL     1      -5.795  12.422  17.960  0.00  0.00    +0.000 A 
ATOM     11  C   UNL     1      -5.322  11.927  16.757  0.00  0.00    +0.000 A 
ATOM     12  C   UNL     1      -4.125  11.201  16.699  0.00  0.00    +0.000 A 
ATOM     13  C   UNL     1      -3.285  11.292  17.818  0.00  0.00    +0.000 A 
ATOM     14  S   UNL     1      -1.640  10.822  18.010  0.00  0.00    +0.000 S 
ENDBRANCH   3   6
BRANCH   4  15
ATOM     15  C   UNL     1       1.157  10.099  20.134  0.00  0.00    +0.000 A 
ATOM     16  C   UNL     1       0.979   9.148  21.150  0.00  0.00    +0.000 A 
ATOM     17  C   UNL     1       1.387   7.824  20.956  0.00  0.00    +0.000 A 
ATOM     18  C   UNL     1       1.944   7.448  19.730  0.00  0.00    +0.000 A 
ATOM     19  C   UNL     1       2.044   8.370  18.685  0.00  0.00    +0.000 A 
ATOM     20  C   UNL     1       1.643   9.696  18.885  0.00  0.00    +0.000 A 
BRANCH  18  21
ATOM     21  S   UNL     1       2.590   5.810  19.528  0.00  0.00    +0.000 S 
ATOM     22  O   UNL     1       1.775   5.082  18.574  0.00  0.00    +0.000 OA
ATOM     23  O   UNL     1       4.034   5.856  19.466  0.00  0.00    +0.000 OA
BRANCH  21  24
ATOM     24  N   UNL     1       2.226   5.139  21.041  0.00  0.00    +0.000 NA
ATOM     25  H   UNL     1       1.223   4.994  21.125  0.00  0.00    +0.000 HD
ATOM     26  H   UNL     1       2.776   4.292  21.182  0.00  0.00    +0.000 HD
ENDBRANCH  21  24
ENDBRANCH  18  21
ENDBRANCH   4  15
BRANCH   1  27
ATOM     27  C   UNL     1       2.258  14.656  21.210  0.00  0.00    +0.000 C 
ATOM     28  O   UNL     1       2.517  14.934  22.378  0.00  0.00    +0.000 OA
BRANCH  27  29
ATOM     29  O   UNL     1       2.574  15.442  20.141  0.00  0.00    +0.000 OA
BRANCH  29  31
ATOM     30  C   UNL     1       3.314  15.490  17.868  0.00  0.00    +0.000 C 
ATOM     31  C   UNL     1       3.536  14.884  19.244  0.00  0.00    +0.000 C 
ENDBRANCH  29  31
ENDBRANCH  27  29
ENDBRANCH   1  27
TORSDOF 7
ENDMDL
MODEL 9
REMARK VINA RESULT:      -6.4      2.795      6.221
REMARK  Name = 
REMARK  8 active torsions:
REMARK  status: ('A' for Active; 'I' for Inactive)
REMARK    1  A    between atoms: C_1  and  C_2
REMARK    2  A    between atoms: C_2  and  O_3
REMARK    3  A    between atoms: O_3  and  C_4
REMARK    4  A    between atoms: C_4  and  C_6
REMARK    5  A    between atoms: C_8  and  C_9
REMARK    6  A    between atoms: N_18  and  C_19
REMARK    7  A    between atoms: C_22  and  S_23
REMARK    8  A    between atoms: S_23  and  N_24
REMARK                            x       y       z     vdW  Elec       q    Type
REMARK                         _______ _______ _______ _____ _____    ______ ____
ROOT
ATOM      1  C   UNL     1       1.773  13.815  18.668  0.00  0.00    +0.000 A 
ATOM      2  C   UNL     1       0.380  13.804  18.481  0.00  0.00    +0.000 A 
ATOM      3  C   UNL     1      -0.036  12.498  18.677  0.00  0.00    +0.000 A 
ATOM      4  N   UNL     1       1.129  11.773  18.909  0.00  0.00    +0.000 N 
ATOM      5  N   UNL     1       2.210  12.599  19.030  0.00  0.00    +0.000 NA
ENDROOT
BRANCH   3   6
ATOM      6  C   UNL     1      -1.404  12.062  18.624  0.00  0.00    +0.000 A 
ATOM      7  C   UNL     1      -2.375  12.451  19.525  0.00  0.00    +0.000 A 
ATOM      8  C   UNL     1      -3.669  11.962  19.193  0.00  0.00    +0.000 A 
ATOM      9  C   UNL     1      -4.910  12.215  19.800  0.00  0.00    +0.000 A 
ATOM     10  C   UNL     1      -5.974  12.453  18.943  0.00  0.00    +0.000 A 
ATOM     11  C   UNL     1      -5.967  11.862  17.691  0.00  0.00    +0.000 A 
ATOM     12  C   UNL     1      -4.852  11.141  17.242  0.00  0.00    +0.000 A 
ATOM     13  C   UNL     1      -3.659  11.331  17.954  0.00  0.00    +0.000 A 
ATOM     14  S   UNL     1      -2.045  10.890  17.549  0.00  0.00    +0.000 S 
ENDBRANCH   3   6
BRANCH   4  15
ATOM     15  C   UNL     1       1.347  10.371  19.003  0.00  0.00    +0.000 A 
ATOM     16  C   UNL     1       1.067   9.649  20.173  0.00  0.00    +0.000 A 
ATOM     17  C   UNL     1       1.426   8.300  20.273  0.00  0.00    +0.000 A 
ATOM     18  C   UNL     1       2.036   7.668  19.186  0.00  0.00    +0.000 A 
ATOM     19  C   UNL     1       2.239   8.358  17.988  0.00  0.00    +0.000 A 
ATOM     20  C   UNL     1       1.887   9.709  17.893  0.00  0.00    +0.000 A 
BRANCH  18  21
ATOM     21  S   UNL     1       2.619   6.003  19.357  0.00  0.00    +0.000 S 
ATOM     22  O   UNL     1       1.820   5.123  18.523  0.00  0.00    +0.000 OA
ATOM     23  O   UNL     1       4.065   5.987  19.369  0.00  0.00    +0.000 OA
BRANCH  21  24
ATOM     24  N   UNL     1       2.150   5.667  20.950  0.00  0.00    +0.000 NA
ATOM     25  H   UNL     1       2.096   4.661  21.092  0.00  0.00    +0.000 HD
ATOM     26  H   UNL     1       2.779   6.140  21.599  0.00  0.00    +0.000 HD
ENDBRANCH  21  24
ENDBRANCH  18  21
ENDBRANCH   4  15
BRANCH   1  27
ATOM     27  C   UNL     1       2.643  14.968  18.443  0.00  0.00    +0.000 C 
ATOM     28  O   UNL     1       3.671  14.895  17.776  0.00  0.00    +0.000 OA
BRANCH  27  29
ATOM     29  O   UNL     1       2.262  16.067  19.155  0.00  0.00    +0.000 OA
BRANCH  29  31
ATOM     30  C   UNL     1       3.265  15.958  21.324  0.00  0.00    +0.000 C 
ATOM     31  C   UNL     1       3.286  16.645  19.968  0.00  0.00    +0.000 C 
ENDBRANCH  29  31
ENDBRANCH  27  29
ENDBRANCH   1  27
TORSDOF 7
ENDMDL
