MODEL 1
REMARK VINA RESULT:      -7.7      0.000      0.000
REMARK  Name = 
REMARK  9 active torsions:
REMARK  status: ('A' for Active; 'I' for Inactive)
REMARK    1  A    between atoms: C_1  and  O_2
REMARK    2  A    between atoms: O_2  and  C_3
REMARK    3  A    between atoms: C_8  and  O_9
REMARK    4  A    between atoms: O_9  and  C_10
REMARK    5  A    between atoms: C_11  and  C_12
REMARK    6  A    between atoms: C_12  and  C_13
REMARK    7  A    between atoms: C_13  and  C_14
REMARK    8  A    between atoms: C_13  and  C_20
REMARK    9  A    between atoms: C_27  and  C_29
REMARK                            x       y       z     vdW  Elec       q    Type
REMARK                         _______ _______ _______ _____ _____    ______ ____
ROOT
ATOM      1  C   UNL     1      -5.253  12.081  18.864  0.00  0.00    +0.000 A 
ATOM      2  C   UNL     1      -4.413  11.522  17.893  0.00  0.00    +0.000 A 
ATOM      3  C   UNL     1      -3.028  11.573  18.032  0.00  0.00    +0.000 A 
ATOM      4  C   UNL     1      -2.451  12.189  19.151  0.00  0.00    +0.000 A 
ATOM      5  C   UNL     1      -3.294  12.732  20.134  0.00  0.00    +0.000 A 
ATOM      6  C   UNL     1      -4.693  12.687  20.003  0.00  0.00    +0.000 A 
ATOM      7  C   UNL     1      -0.927  12.228  19.277  0.00  0.00    +0.000 C 
ATOM      8  N   UNL     1      -0.337  10.910  18.843  0.00  0.00    +0.000 N 
ATOM      9  C   UNL     1       0.728  10.359  19.592  0.00  0.00    +0.000 C 
ATOM     10  O   UNL     1       1.165  10.960  20.580  0.00  0.00    +0.000 OA
ATOM     11  C   UNL     1      -1.040  10.163  17.800  0.00  0.00    +0.000 C 
ATOM     12  C   UNL     1      -2.117  10.919  17.037  0.00  0.00    +0.000 C 
ENDROOT
BRANCH   9  13
ATOM     13  C   UNL     1       1.454   9.074  19.216  0.00  0.00    +0.000 A 
ATOM     14  C   UNL     1       1.474   8.062  20.195  0.00  0.00    +0.000 A 
ATOM     15  C   UNL     1       2.203   6.875  20.019  0.00  0.00    +0.000 A 
ATOM     16  C   UNL     1       2.931   6.672  18.855  0.00  0.00    +0.000 A 
ATOM     17  C   UNL     1       2.865   7.619  17.842  0.00  0.00    +0.000 A 
ATOM     18  C   UNL     1       2.103   8.788  18.007  0.00  0.00    +0.000 A 
ENDBRANCH   9  13
BRANCH   1  20
ATOM     19  C   UNL     1      -7.168  12.701  17.600  0.00  0.00    +0.000 C 
ATOM     20  O   UNL     1      -6.579  11.875  18.596  0.00  0.00    +0.000 OA
ENDBRANCH   1  20
BRANCH   6  21
ATOM     21  O   UNL     1      -5.555  13.173  20.947  0.00  0.00    +0.000 OA
ATOM     22  C   UNL     1      -5.271  12.927  22.317  0.00  0.00    +0.000 C 
ENDBRANCH   6  21
BRANCH   7  23
ATOM     23  C   UNL     1      -0.300  13.423  18.473  0.00  0.00    +0.000 C 
BRANCH  23  24
ATOM     24  C   UNL     1       0.122  14.671  19.323  0.00  0.00    +0.000 C 
BRANCH  24  25
ATOM     25  C   UNL     1       1.607  15.005  19.191  0.00  0.00    +0.000 A 
ATOM     26  C   UNL     1       2.211  15.947  20.040  0.00  0.00    +0.000 A 
ATOM     27  C   UNL     1       3.576  16.211  19.959  0.00  0.00    +0.000 A 
ATOM     28  C   UNL     1       4.360  15.542  19.024  0.00  0.00    +0.000 A 
ATOM     29  C   UNL     1       3.784  14.585  18.191  0.00  0.00    +0.000 A 
ATOM     30  C   UNL     1       2.419  14.307  18.284  0.00  0.00    +0.000 A 
ENDBRANCH  24  25
BRANCH  24  31
ATOM     31  C   UNL     1      -0.677  15.966  19.069  0.00  0.00    +0.000 A 
ATOM     32  C   UNL     1      -1.593  16.407  20.047  0.00  0.00    +0.000 A 
ATOM     33  C   UNL     1      -2.159  17.685  19.984  0.00  0.00    +0.000 A 
ATOM     34  C   UNL     1      -1.825  18.544  18.943  0.00  0.00    +0.000 A 
ATOM     35  C   UNL     1      -0.955  18.111  17.944  0.00  0.00    +0.000 A 
ATOM     36  C   UNL     1      -0.392  16.830  17.999  0.00  0.00    +0.000 A 
ENDBRANCH  24  31
ENDBRANCH  23  24
ENDBRANCH   7  23
TORSDOF 7
ENDMDL
MODEL 2
REMARK VINA RESULT:      -7.6      2.543      7.211
REMARK  Name = 
REMARK  9 active torsions:
REMARK  status: ('A' for Active; 'I' for Inactive)
REMARK    1  A    between atoms: C_1  and  O_2
REMARK    2  A    between atoms: O_2  and  C_3
REMARK    3  A    between atoms: C_8  and  O_9
REMARK    4  A    between atoms: O_9  and  C_10
REMARK    5  A    between atoms: C_11  and  C_12
REMARK    6  A    between atoms: C_12  and  C_13
REMARK    7  A    between atoms: C_13  and  C_14
REMARK    8  A    between atoms: C_13  and  C_20
REMARK    9  A    between atoms: C_27  and  C_29
REMARK                            x       y       z     vdW  Elec       q    Type
REMARK                         _______ _______ _______ _____ _____    ______ ____
ROOT
ATOM      1  C   UNL     1       2.773   6.500  18.732  0.00  0.00    +0.000 A 
ATOM      2  C   UNL     1       2.604   7.628  17.920  0.00  0.00    +0.000 A 
ATOM      3  C   UNL     1       1.918   8.747  18.387  0.00  0.00    +0.000 A 
ATOM      4  C   UNL     1       1.381   8.760  19.681  0.00  0.00    +0.000 A 
ATOM      5  C   UNL     1       1.569   7.636  20.502  0.00  0.00    +0.000 A 
ATOM      6  C   UNL     1       2.258   6.502  20.041  0.00  0.00    +0.000 A 
ATOM      7  C   UNL     1       0.634  10.003  20.166  0.00  0.00    +0.000 C 
ATOM      8  N   UNL     1       1.350  11.250  19.711  0.00  0.00    +0.000 N 
ATOM      9  C   UNL     1       1.469  12.335  20.610  0.00  0.00    +0.000 C 
ATOM     10  O   UNL     1       0.984  12.255  21.743  0.00  0.00    +0.000 OA
ATOM     11  C   UNL     1       2.076  11.190  18.443  0.00  0.00    +0.000 C 
ATOM     12  C   UNL     1       1.787   9.988  17.555  0.00  0.00    +0.000 C 
ENDROOT
BRANCH   9  13
ATOM     13  C   UNL     1       2.106  13.670  20.247  0.00  0.00    +0.000 A 
ATOM     14  C   UNL     1       3.326  13.971  20.884  0.00  0.00    +0.000 A 
ATOM     15  C   UNL     1       3.959  15.213  20.724  0.00  0.00    +0.000 A 
ATOM     16  C   UNL     1       3.384  16.188  19.920  0.00  0.00    +0.000 A 
ATOM     17  C   UNL     1       2.223  15.890  19.221  0.00  0.00    +0.000 A 
ATOM     18  C   UNL     1       1.614  14.631  19.353  0.00  0.00    +0.000 A 
ENDBRANCH   9  13
BRANCH   1  20
ATOM     19  C   UNL     1       4.658   5.966  17.387  0.00  0.00    +0.000 C 
ATOM     20  O   UNL     1       3.531   5.530  18.135  0.00  0.00    +0.000 OA
ENDBRANCH   1  20
BRANCH   6  21
ATOM     21  O   UNL     1       2.494   5.396  20.813  0.00  0.00    +0.000 OA
ATOM     22  C   UNL     1       1.557   4.329  20.775  0.00  0.00    +0.000 C 
ENDBRANCH   6  21
BRANCH   7  23
ATOM     23  C   UNL     1      -0.866  10.009  19.699  0.00  0.00    +0.000 C 
BRANCH  23  24
ATOM     24  C   UNL     1      -1.367  11.333  19.027  0.00  0.00    +0.000 C 
BRANCH  24  25
ATOM     25  C   UNL     1      -2.358  11.083  17.890  0.00  0.00    +0.000 A 
ATOM     26  C   UNL     1      -3.644  11.649  17.920  0.00  0.00    +0.000 A 
ATOM     27  C   UNL     1      -4.528  11.469  16.859  0.00  0.00    +0.000 A 
ATOM     28  C   UNL     1      -4.146  10.716  15.754  0.00  0.00    +0.000 A 
ATOM     29  C   UNL     1      -2.865  10.168  15.695  0.00  0.00    +0.000 A 
ATOM     30  C   UNL     1      -1.972  10.363  16.750  0.00  0.00    +0.000 A 
ENDBRANCH  24  25
BRANCH  24  31
ATOM     31  C   UNL     1      -1.988  12.382  19.972  0.00  0.00    +0.000 A 
ATOM     32  C   UNL     1      -2.571  11.950  21.182  0.00  0.00    +0.000 A 
ATOM     33  C   UNL     1      -2.927  12.864  22.180  0.00  0.00    +0.000 A 
ATOM     34  C   UNL     1      -2.711  14.225  21.987  0.00  0.00    +0.000 A 
ATOM     35  C   UNL     1      -2.177  14.673  20.781  0.00  0.00    +0.000 A 
ATOM     36  C   UNL     1      -1.826  13.763  19.776  0.00  0.00    +0.000 A 
ENDBRANCH  24  31
ENDBRANCH  23  24
ENDBRANCH   7  23
TORSDOF 7
ENDMDL
MODEL 3
REMARK VINA RESULT:      -7.5      0.822      1.441
REMARK  Name = 
REMARK  9 active torsions:
REMARK  status: ('A' for Active; 'I' for Inactive)
REMARK    1  A    between atoms: C_1  and  O_2
REMARK    2  A    between atoms: O_2  and  C_3
REMARK    3  A    between atoms: C_8  and  O_9
REMARK    4  A    between atoms: O_9  and  C_10
REMARK    5  A    between atoms: C_11  and  C_12
REMARK    6  A    between atoms: C_12  and  C_13
REMARK    7  A    between atoms: C_13  and  C_14
REMARK    8  A    between atoms: C_13  and  C_20
REMARK    9  A    between atoms: C_27  and  C_29
REMARK                            x       y       z     vdW  Elec       q    Type
REMARK                         _______ _______ _______ _____ _____    ______ ____
ROOT
ATOM      1  C   UNL     1      -5.276  12.538  20.089  0.00  0.00    +0.000 A 
ATOM      2  C   UNL     1      -4.632  11.939  19.000  0.00  0.00    +0.000 A 
ATOM      3  C   UNL     1      -3.243  11.961  18.890  0.00  0.00    +0.000 A 
ATOM      4  C   UNL     1      -2.467  12.590  19.872  0.00  0.00    +0.000 A 
ATOM      5  C   UNL     1      -3.111  13.174  20.974  0.00  0.00    +0.000 A 
ATOM      6  C   UNL     1      -4.512  13.158  21.094  0.00  0.00    +0.000 A 
ATOM      7  C   UNL     1      -0.944  12.598  19.725  0.00  0.00    +0.000 C 
ATOM      8  N   UNL     1      -0.463  11.258  19.228  0.00  0.00    +0.000 N 
ATOM      9  C   UNL     1       0.708  10.701  19.792  0.00  0.00    +0.000 C 
ATOM     10  O   UNL     1       1.323  11.314  20.670  0.00  0.00    +0.000 OA
ATOM     11  C   UNL     1      -1.354  10.503  18.347  0.00  0.00    +0.000 C 
ATOM     12  C   UNL     1      -2.536  11.265  17.767  0.00  0.00    +0.000 C 
ENDROOT
BRANCH   9  13
ATOM     13  C   UNL     1       1.332   9.392  19.327  0.00  0.00    +0.000 A 
ATOM     14  C   UNL     1       1.403   8.362  20.286  0.00  0.00    +0.000 A 
ATOM     15  C   UNL     1       2.054   7.147  20.021  0.00  0.00    +0.000 A 
ATOM     16  C   UNL     1       2.652   6.933  18.787  0.00  0.00    +0.000 A 
ATOM     17  C   UNL     1       2.531   7.900  17.799  0.00  0.00    +0.000 A 
ATOM     18  C   UNL     1       1.843   9.098  18.055  0.00  0.00    +0.000 A 
ENDBRANCH   9  13
BRANCH   1  20
ATOM     19  C   UNL     1      -7.110  11.059  20.399  0.00  0.00    +0.000 C 
ATOM     20  O   UNL     1      -6.632  12.355  20.065  0.00  0.00    +0.000 OA
ENDBRANCH   1  20
BRANCH   6  21
ATOM     21  O   UNL     1      -5.183  13.684  22.163  0.00  0.00    +0.000 OA
ATOM     22  C   UNL     1      -5.141  12.990  23.401  0.00  0.00    +0.000 C 
ENDBRANCH   6  21
BRANCH   7  23
ATOM     23  C   UNL     1      -0.448  13.760  18.792  0.00  0.00    +0.000 C 
BRANCH  23  24
ATOM     24  C   UNL     1       0.121  15.026  19.520  0.00  0.00    +0.000 C 
BRANCH  24  25
ATOM     25  C   UNL     1       1.605  15.258  19.235  0.00  0.00    +0.000 A 
ATOM     26  C   UNL     1       2.312  14.408  18.369  0.00  0.00    +0.000 A 
ATOM     27  C   UNL     1       3.649  14.651  18.063  0.00  0.00    +0.000 A 
ATOM     28  C   UNL     1       4.304  15.743  18.623  0.00  0.00    +0.000 A 
ATOM     29  C   UNL     1       3.611  16.612  19.464  0.00  0.00    +0.000 A 
ATOM     30  C   UNL     1       2.266  16.380  19.757  0.00  0.00    +0.000 A 
ENDBRANCH  24  25
BRANCH  24  31
ATOM     31  C   UNL     1      -0.623  16.352  19.258  0.00  0.00    +0.000 A 
ATOM     32  C   UNL     1      -0.313  17.090  18.096  0.00  0.00    +0.000 A 
ATOM     33  C   UNL     1      -1.115  18.160  17.684  0.00  0.00    +0.000 A 
ATOM     34  C   UNL     1      -2.237  18.515  18.425  0.00  0.00    +0.000 A 
ATOM     35  C   UNL     1      -2.534  17.825  19.599  0.00  0.00    +0.000 A 
ATOM     36  C   UNL     1      -1.730  16.758  20.019  0.00  0.00    +0.000 A 
ENDBRANCH  24  31
ENDBRANCH  23  24
ENDBRANCH   7  23
TORSDOF 7
ENDMDL
MODEL 4
REMARK VINA RESULT:      -7.5      0.406      1.198
REMARK  Name = 
REMARK  9 active torsions:
REMARK  status: ('A' for Active; 'I' for Inactive)
REMARK    1  A    between atoms: C_1  and  O_2
REMARK    2  A    between atoms: O_2  and  C_3
REMARK    3  A    between atoms: C_8  and  O_9
REMARK    4  A    between atoms: O_9  and  C_10
REMARK    5  A    between atoms: C_11  and  C_12
REMARK    6  A    between atoms: C_12  and  C_13
REMARK    7  A    between atoms: C_13  and  C_14
REMARK    8  A    between atoms: C_13  and  C_20
REMARK    9  A    between atoms: C_27  and  C_29
REMARK                            x       y       z     vdW  Elec       q    Type
REMARK                         _______ _______ _______ _____ _____    ______ ____
ROOT
ATOM      1  C   UNL     1      -5.303  11.919  18.795  0.00  0.00    +0.000 A 
ATOM      2  C   UNL     1      -4.413  11.369  17.865  0.00  0.00    +0.000 A 
ATOM      3  C   UNL     1      -3.036  11.459  18.054  0.00  0.00    +0.000 A 
ATOM      4  C   UNL     1      -2.518  12.107  19.183  0.00  0.00    +0.000 A 
ATOM      5  C   UNL     1      -3.411  12.642  20.126  0.00  0.00    +0.000 A 
ATOM      6  C   UNL     1      -4.801  12.557  19.944  0.00  0.00    +0.000 A 
ATOM      7  C   UNL     1      -1.001  12.189  19.365  0.00  0.00    +0.000 C 
ATOM      8  N   UNL     1      -0.360  10.881  18.974  0.00  0.00    +0.000 N 
ATOM      9  C   UNL     1       0.691  10.371  19.771  0.00  0.00    +0.000 C 
ATOM     10  O   UNL     1       1.074  10.998  20.764  0.00  0.00    +0.000 OA
ATOM     11  C   UNL     1      -1.004  10.100  17.918  0.00  0.00    +0.000 C 
ATOM     12  C   UNL     1      -2.072  10.815  17.103  0.00  0.00    +0.000 C 
ENDROOT
BRANCH   9  13
ATOM     13  C   UNL     1       1.463   9.100  19.442  0.00  0.00    +0.000 A 
ATOM     14  C   UNL     1       2.084   9.060  18.177  0.00  0.00    +0.000 A 
ATOM     15  C   UNL     1       2.730   7.907  17.705  0.00  0.00    +0.000 A 
ATOM     16  C   UNL     1       2.771   6.762  18.490  0.00  0.00    +0.000 A 
ATOM     17  C   UNL     1       2.236   6.800  19.770  0.00  0.00    +0.000 A 
ATOM     18  C   UNL     1       1.624   7.969  20.253  0.00  0.00    +0.000 A 
ENDBRANCH   9  13
BRANCH   1  20
ATOM     19  C   UNL     1      -7.267  12.634  17.664  0.00  0.00    +0.000 C 
ATOM     20  O   UNL     1      -6.612  11.673  18.482  0.00  0.00    +0.000 OA
ENDBRANCH   1  20
BRANCH   6  21
ATOM     21  O   UNL     1      -5.711  13.034  20.848  0.00  0.00    +0.000 OA
ATOM     22  C   UNL     1      -5.958  14.432  20.891  0.00  0.00    +0.000 C 
ENDBRANCH   6  21
BRANCH   7  23
ATOM     23  C   UNL     1      -0.376  13.389  18.566  0.00  0.00    +0.000 C 
BRANCH  23  24
ATOM     24  C   UNL     1       0.053  14.630  19.422  0.00  0.00    +0.000 C 
BRANCH  24  25
ATOM     25  C   UNL     1       1.547  14.935  19.319  0.00  0.00    +0.000 A 
ATOM     26  C   UNL     1       2.325  14.377  18.291  0.00  0.00    +0.000 A 
ATOM     27  C   UNL     1       3.674  14.697  18.161  0.00  0.00    +0.000 A 
ATOM     28  C   UNL     1       4.270  15.577  19.061  0.00  0.00    +0.000 A 
ATOM     29  C   UNL     1       3.508  16.160  20.071  0.00  0.00    +0.000 A 
ATOM     30  C   UNL     1       2.151  15.853  20.190  0.00  0.00    +0.000 A 
ENDBRANCH  24  25
BRANCH  24  31
ATOM     31  C   UNL     1      -0.715  15.940  19.149  0.00  0.00    +0.000 A 
ATOM     32  C   UNL     1      -1.580  16.444  20.143  0.00  0.00    +0.000 A 
ATOM     33  C   UNL     1      -2.109  17.736  20.054  0.00  0.00    +0.000 A 
ATOM     34  C   UNL     1      -1.788  18.546  18.970  0.00  0.00    +0.000 A 
ATOM     35  C   UNL     1      -0.971  18.050  17.957  0.00  0.00    +0.000 A 
ATOM     36  C   UNL     1      -0.445  16.755  18.038  0.00  0.00    +0.000 A 
ENDBRANCH  24  31
ENDBRANCH  23  24
ENDBRANCH   7  23
TORSDOF 7
ENDMDL
MODEL 5
REMARK VINA RESULT:      -7.5      1.341      2.409
REMARK  Name = 
REMARK  9 active torsions:
REMARK  status: ('A' for Active; 'I' for Inactive)
REMARK    1  A    between atoms: C_1  and  O_2
REMARK    2  A    between atoms: O_2  and  C_3
REMARK    3  A    between atoms: C_8  and  O_9
REMARK    4  A    between atoms: O_9  and  C_10
REMARK    5  A    between atoms: C_11  and  C_12
REMARK    6  A    between atoms: C_12  and  C_13
REMARK    7  A    between atoms: C_13  and  C_14
REMARK    8  A    between atoms: C_13  and  C_20
REMARK    9  A    between atoms: C_27  and  C_29
REMARK                            x       y       z     vdW  Elec       q    Type
REMARK                         _______ _______ _______ _____ _____    ______ ____
ROOT
ATOM      1  C   UNL     1      -5.347  12.044  19.337  0.00  0.00    +0.000 A 
ATOM      2  C   UNL     1      -4.539  11.485  18.340  0.00  0.00    +0.000 A 
ATOM      3  C   UNL     1      -3.150  11.579  18.411  0.00  0.00    +0.000 A 
ATOM      4  C   UNL     1      -2.540  12.242  19.484  0.00  0.00    +0.000 A 
ATOM      5  C   UNL     1      -3.351  12.786  20.493  0.00  0.00    +0.000 A 
ATOM      6  C   UNL     1      -4.752  12.697  20.431  0.00  0.00    +0.000 A 
ATOM      7  C   UNL     1      -1.013  12.329  19.535  0.00  0.00    +0.000 C 
ATOM      8  N   UNL     1      -0.404  11.018  19.106  0.00  0.00    +0.000 N 
ATOM      9  C   UNL     1       0.712  10.519  19.817  0.00  0.00    +0.000 C 
ATOM     10  O   UNL     1       1.176  11.158  20.766  0.00  0.00    +0.000 OA
ATOM     11  C   UNL     1      -1.133  10.223  18.118  0.00  0.00    +0.000 C 
ATOM     12  C   UNL     1      -2.269  10.927  17.389  0.00  0.00    +0.000 C 
ENDROOT
BRANCH   9  13
ATOM     13  C   UNL     1       1.457   9.246  19.438  0.00  0.00    +0.000 A 
ATOM     14  C   UNL     1       2.022   9.218  18.147  0.00  0.00    +0.000 A 
ATOM     15  C   UNL     1       2.636   8.065  17.633  0.00  0.00    +0.000 A 
ATOM     16  C   UNL     1       2.701   6.910  18.400  0.00  0.00    +0.000 A 
ATOM     17  C   UNL     1       2.221   6.934  19.702  0.00  0.00    +0.000 A 
ATOM     18  C   UNL     1       1.642   8.102  20.227  0.00  0.00    +0.000 A 
ENDBRANCH   9  13
BRANCH   1  20
ATOM     19  C   UNL     1      -7.177  10.556  19.632  0.00  0.00    +0.000 C 
ATOM     20  O   UNL     1      -6.678  11.792  19.138  0.00  0.00    +0.000 OA
ENDBRANCH   1  20
BRANCH   6  21
ATOM     21  O   UNL     1      -5.583  13.182  21.404  0.00  0.00    +0.000 OA
ATOM     22  C   UNL     1      -5.247  12.947  22.764  0.00  0.00    +0.000 C 
ENDBRANCH   6  21
BRANCH   7  23
ATOM     23  C   UNL     1      -0.462  13.520  18.672  0.00  0.00    +0.000 C 
BRANCH  23  24
ATOM     24  C   UNL     1       0.297  14.642  19.462  0.00  0.00    +0.000 C 
BRANCH  24  25
ATOM     25  C   UNL     1       0.543  15.896  18.622  0.00  0.00    +0.000 A 
ATOM     26  C   UNL     1      -0.532  16.670  18.154  0.00  0.00    +0.000 A 
ATOM     27  C   UNL     1      -0.309  17.843  17.438  0.00  0.00    +0.000 A 
ATOM     28  C   UNL     1       0.992  18.260  17.172  0.00  0.00    +0.000 A 
ATOM     29  C   UNL     1       2.070  17.519  17.651  0.00  0.00    +0.000 A 
ATOM     30  C   UNL     1       1.848  16.353  18.385  0.00  0.00    +0.000 A 
ENDBRANCH  24  25
BRANCH  24  31
ATOM     31  C   UNL     1      -0.342  15.085  20.795  0.00  0.00    +0.000 A 
ATOM     32  C   UNL     1      -1.524  15.853  20.763  0.00  0.00    +0.000 A 
ATOM     33  C   UNL     1      -2.275  16.074  21.923  0.00  0.00    +0.000 A 
ATOM     34  C   UNL     1      -1.856  15.536  23.136  0.00  0.00    +0.000 A 
ATOM     35  C   UNL     1      -0.668  14.810  23.194  0.00  0.00    +0.000 A 
ATOM     36  C   UNL     1       0.090  14.593  22.037  0.00  0.00    +0.000 A 
ENDBRANCH  24  31
ENDBRANCH  23  24
ENDBRANCH   7  23
TORSDOF 7
ENDMDL
MODEL 6
REMARK VINA RESULT:      -7.4      2.523      7.196
REMARK  Name = 
REMARK  9 active torsions:
REMARK  status: ('A' for Active; 'I' for Inactive)
REMARK    1  A    between atoms: C_1  and  O_2
REMARK    2  A    between atoms: O_2  and  C_3
REMARK    3  A    between atoms: C_8  and  O_9
REMARK    4  A    between atoms: O_9  and  C_10
REMARK    5  A    between atoms: C_11  and  C_12
REMARK    6  A    between atoms: C_12  and  C_13
REMARK    7  A    between atoms: C_13  and  C_14
REMARK    8  A    between atoms: C_13  and  C_20
REMARK    9  A    between atoms: C_27  and  C_29
REMARK                            x       y       z     vdW  Elec       q    Type
REMARK                         _______ _______ _______ _____ _____    ______ ____
ROOT
ATOM      1  C   UNL     1       2.636   6.390  18.907  0.00  0.00    +0.000 A 
ATOM      2  C   UNL     1       2.478   7.483  18.046  0.00  0.00    +0.000 A 
ATOM      3  C   UNL     1       1.829   8.640  18.474  0.00  0.00    +0.000 A 
ATOM      4  C   UNL     1       1.320   8.725  19.776  0.00  0.00    +0.000 A 
ATOM      5  C   UNL     1       1.496   7.636  20.645  0.00  0.00    +0.000 A 
ATOM      6  C   UNL     1       2.148   6.464  20.223  0.00  0.00    +0.000 A 
ATOM      7  C   UNL     1       0.613  10.008  20.218  0.00  0.00    +0.000 C 
ATOM      8  N   UNL     1       1.351  11.214  19.692  0.00  0.00    +0.000 N 
ATOM      9  C   UNL     1       1.515  12.336  20.537  0.00  0.00    +0.000 C 
ATOM     10  O   UNL     1       1.051  12.320  21.681  0.00  0.00    +0.000 OA
ATOM     11  C   UNL     1       2.049  11.077  18.413  0.00  0.00    +0.000 C 
ATOM     12  C   UNL     1       1.713   9.844  17.588  0.00  0.00    +0.000 C 
ENDROOT
BRANCH   9  13
ATOM     13  C   UNL     1       2.177  13.636  20.100  0.00  0.00    +0.000 A 
ATOM     14  C   UNL     1       3.287  14.055  20.860  0.00  0.00    +0.000 A 
ATOM     15  C   UNL     1       3.916  15.289  20.634  0.00  0.00    +0.000 A 
ATOM     16  C   UNL     1       3.449  16.136  19.638  0.00  0.00    +0.000 A 
ATOM     17  C   UNL     1       2.407  15.715  18.825  0.00  0.00    +0.000 A 
ATOM     18  C   UNL     1       1.805  14.461  19.029  0.00  0.00    +0.000 A 
ENDBRANCH   9  13
BRANCH   1  20
ATOM     19  C   UNL     1       2.634   4.432  17.560  0.00  0.00    +0.000 C 
ATOM     20  O   UNL     1       3.357   5.374  18.340  0.00  0.00    +0.000 OA
ENDBRANCH   1  20
BRANCH   6  21
ATOM     21  O   UNL     1       2.372   5.390  21.041  0.00  0.00    +0.000 OA
ATOM     22  C   UNL     1       1.500   4.273  20.948  0.00  0.00    +0.000 C 
ENDBRANCH   6  21
BRANCH   7  23
ATOM     23  C   UNL     1      -0.895  10.031  19.779  0.00  0.00    +0.000 C 
BRANCH  23  24
ATOM     24  C   UNL     1      -1.389  11.352  19.096  0.00  0.00    +0.000 C 
BRANCH  24  25
ATOM     25  C   UNL     1      -2.276  11.095  17.878  0.00  0.00    +0.000 A 
ATOM     26  C   UNL     1      -1.913  10.141  16.913  0.00  0.00    +0.000 A 
ATOM     27  C   UNL     1      -2.748   9.864  15.833  0.00  0.00    +0.000 A 
ATOM     28  C   UNL     1      -3.956  10.540  15.695  0.00  0.00    +0.000 A 
ATOM     29  C   UNL     1      -4.345  11.471  16.657  0.00  0.00    +0.000 A 
ATOM     30  C   UNL     1      -3.517  11.736  17.750  0.00  0.00    +0.000 A 
ENDBRANCH  24  25
BRANCH  24  31
ATOM     31  C   UNL     1      -2.121  12.357  20.010  0.00  0.00    +0.000 A 
ATOM     32  C   UNL     1      -1.694  13.701  20.028  0.00  0.00    +0.000 A 
ATOM     33  C   UNL     1      -2.463  14.696  20.642  0.00  0.00    +0.000 A 
ATOM     34  C   UNL     1      -3.668  14.366  21.253  0.00  0.00    +0.000 A 
ATOM     35  C   UNL     1      -4.085  13.037  21.283  0.00  0.00    +0.000 A 
ATOM     36  C   UNL     1      -3.315  12.037  20.676  0.00  0.00    +0.000 A 
ENDBRANCH  24  31
ENDBRANCH  23  24
ENDBRANCH   7  23
TORSDOF 7
ENDMDL
MODEL 7
REMARK VINA RESULT:      -7.4      1.409      2.528
REMARK  Name = 
REMARK  9 active torsions:
REMARK  status: ('A' for Active; 'I' for Inactive)
REMARK    1  A    between atoms: C_1  and  O_2
REMARK    2  A    between atoms: O_2  and  C_3
REMARK    3  A    between atoms: C_8  and  O_9
REMARK    4  A    between atoms: O_9  and  C_10
REMARK    5  A    between atoms: C_11  and  C_12
REMARK    6  A    between atoms: C_12  and  C_13
REMARK    7  A    between atoms: C_13  and  C_14
REMARK    8  A    between atoms: C_13  and  C_20
REMARK    9  A    between atoms: C_27  and  C_29
REMARK                            x       y       z     vdW  Elec       q    Type
REMARK                         _______ _______ _______ _____ _____    ______ ____
ROOT
ATOM      1  C   UNL     1      -5.334  11.894  18.416  0.00  0.00    +0.000 A 
ATOM      2  C   UNL     1      -4.339  11.422  17.553  0.00  0.00    +0.000 A 
ATOM      3  C   UNL     1      -2.993  11.496  17.907  0.00  0.00    +0.000 A 
ATOM      4  C   UNL     1      -2.615  12.051  19.137  0.00  0.00    +0.000 A 
ATOM      5  C   UNL     1      -3.615  12.506  20.010  0.00  0.00    +0.000 A 
ATOM      6  C   UNL     1      -4.975  12.437  19.663  0.00  0.00    +0.000 A 
ATOM      7  C   UNL     1      -1.130  12.118  19.498  0.00  0.00    +0.000 C 
ATOM      8  N   UNL     1      -0.435  10.847  19.079  0.00  0.00    +0.000 N 
ATOM      9  C   UNL     1       0.522  10.273  19.948  0.00  0.00    +0.000 C 
ATOM     10  O   UNL     1       0.782  10.818  21.026  0.00  0.00    +0.000 OA
ATOM     11  C   UNL     1      -0.946  10.154  17.896  0.00  0.00    +0.000 C 
ATOM     12  C   UNL     1      -1.920  10.933  17.024  0.00  0.00    +0.000 C 
ENDROOT
BRANCH   9  13
ATOM     13  C   UNL     1       1.339   9.034  19.608  0.00  0.00    +0.000 A 
ATOM     14  C   UNL     1       1.947   9.019  18.337  0.00  0.00    +0.000 A 
ATOM     15  C   UNL     1       2.632   7.893  17.857  0.00  0.00    +0.000 A 
ATOM     16  C   UNL     1       2.727   6.750  18.639  0.00  0.00    +0.000 A 
ATOM     17  C   UNL     1       2.204   6.765  19.925  0.00  0.00    +0.000 A 
ATOM     18  C   UNL     1       1.553   7.909  20.417  0.00  0.00    +0.000 A 
ENDBRANCH   9  13
BRANCH   1  20
ATOM     19  C   UNL     1      -7.295  12.803  17.427  0.00  0.00    +0.000 C 
ATOM     20  O   UNL     1      -6.597  11.674  17.935  0.00  0.00    +0.000 OA
ENDBRANCH   1  20
BRANCH   6  21
ATOM     21  O   UNL     1      -5.987  12.838  20.492  0.00  0.00    +0.000 OA
ATOM     22  C   UNL     1      -6.702  11.849  21.219  0.00  0.00    +0.000 C 
ENDBRANCH   6  21
BRANCH   7  23
ATOM     23  C   UNL     1      -0.428  13.379  18.877  0.00  0.00    +0.000 C 
BRANCH  23  24
ATOM     24  C   UNL     1       0.160  14.409  19.902  0.00  0.00    +0.000 C 
BRANCH  24  25
ATOM     25  C   UNL     1       0.393  15.789  19.289  0.00  0.00    +0.000 A 
ATOM     26  C   UNL     1       1.560  16.516  19.576  0.00  0.00    +0.000 A 
ATOM     27  C   UNL     1       1.800  17.749  18.974  0.00  0.00    +0.000 A 
ATOM     28  C   UNL     1       0.875  18.279  18.079  0.00  0.00    +0.000 A 
ATOM     29  C   UNL     1      -0.276  17.560  17.762  0.00  0.00    +0.000 A 
ATOM     30  C   UNL     1      -0.509  16.316  18.351  0.00  0.00    +0.000 A 
ENDBRANCH  24  25
BRANCH  24  31
ATOM     31  C   UNL     1      -0.640  14.600  21.206  0.00  0.00    +0.000 A 
ATOM     32  C   UNL     1      -1.792  15.414  21.188  0.00  0.00    +0.000 A 
ATOM     33  C   UNL     1      -2.685  15.429  22.265  0.00  0.00    +0.000 A 
ATOM     34  C   UNL     1      -2.441  14.637  23.382  0.00  0.00    +0.000 A 
ATOM     35  C   UNL     1      -1.286  13.859  23.437  0.00  0.00    +0.000 A 
ATOM     36  C   UNL     1      -0.386  13.847  22.364  0.00  0.00    +0.000 A 
ENDBRANCH  24  31
ENDBRANCH  23  24
ENDBRANCH   7  23
TORSDOF 7
ENDMDL
MODEL 8
REMARK VINA RESULT:      -7.4      2.508      7.208
REMARK  Name = 
REMARK  9 active torsions:
REMARK  status: ('A' for Active; 'I' for Inactive)
REMARK    1  A    between atoms: C_1  and  O_2
REMARK    2  A    between atoms: O_2  and  C_3
REMARK    3  A    between atoms: C_8  and  O_9
REMARK    4  A    between atoms: O_9  and  C_10
REMARK    5  A    between atoms: C_11  and  C_12
REMARK    6  A    between atoms: C_12  and  C_13
REMARK    7  A    between atoms: C_13  and  C_14
REMARK    8  A    between atoms: C_13  and  C_20
REMARK    9  A    between atoms: C_27  and  C_29
REMARK                            x       y       z     vdW  Elec       q    Type
REMARK                         _______ _______ _______ _____ _____    ______ ____
ROOT
ATOM      1  C   UNL     1       2.596   6.587  18.778  0.00  0.00    +0.000 A 
ATOM      2  C   UNL     1       2.396   7.696  17.946  0.00  0.00    +0.000 A 
ATOM      3  C   UNL     1       1.768   8.844  18.425  0.00  0.00    +0.000 A 
ATOM      4  C   UNL     1       1.320   8.904  19.751  0.00  0.00    +0.000 A 
ATOM      5  C   UNL     1       1.537   7.800  20.590  0.00  0.00    +0.000 A 
ATOM      6  C   UNL     1       2.170   6.637  20.118  0.00  0.00    +0.000 A 
ATOM      7  C   UNL     1       0.634  10.178  20.248  0.00  0.00    +0.000 C 
ATOM      8  N   UNL     1       1.345  11.394  19.710  0.00  0.00    +0.000 N 
ATOM      9  C   UNL     1       1.548  12.501  20.567  0.00  0.00    +0.000 C 
ATOM     10  O   UNL     1       1.138  12.464  21.732  0.00  0.00    +0.000 OA
ATOM     11  C   UNL     1       1.983  11.282  18.398  0.00  0.00    +0.000 C 
ATOM     12  C   UNL     1       1.609  10.063  17.568  0.00  0.00    +0.000 C 
ENDROOT
BRANCH   9  13
ATOM     13  C   UNL     1       2.187  13.810  20.123  0.00  0.00    +0.000 A 
ATOM     14  C   UNL     1       1.372  14.675  19.367  0.00  0.00    +0.000 A 
ATOM     15  C   UNL     1       1.872  15.859  18.802  0.00  0.00    +0.000 A 
ATOM     16  C   UNL     1       3.204  16.206  18.980  0.00  0.00    +0.000 A 
ATOM     17  C   UNL     1       4.009  15.411  19.784  0.00  0.00    +0.000 A 
ATOM     18  C   UNL     1       3.494  14.248  20.381  0.00  0.00    +0.000 A 
ENDBRANCH   9  13
BRANCH   1  20
ATOM     19  C   UNL     1       4.603   5.893  17.712  0.00  0.00    +0.000 C 
ATOM     20  O   UNL     1       3.290   5.583  18.160  0.00  0.00    +0.000 OA
ENDBRANCH   1  20
BRANCH   6  21
ATOM     21  O   UNL     1       2.432   5.549  20.904  0.00  0.00    +0.000 OA
ATOM     22  C   UNL     1       1.542   4.443  20.853  0.00  0.00    +0.000 C 
ENDBRANCH   6  21
BRANCH   7  23
ATOM     23  C   UNL     1      -0.894  10.206  19.882  0.00  0.00    +0.000 C 
BRANCH  23  24
ATOM     24  C   UNL     1      -1.457  11.590  19.406  0.00  0.00    +0.000 C 
BRANCH  24  25
ATOM     25  C   UNL     1      -2.555  11.452  18.352  0.00  0.00    +0.000 A 
ATOM     26  C   UNL     1      -3.897  11.720  18.673  0.00  0.00    +0.000 A 
ATOM     27  C   UNL     1      -4.891  11.651  17.700  0.00  0.00    +0.000 A 
ATOM     28  C   UNL     1      -4.563  11.307  16.392  0.00  0.00    +0.000 A 
ATOM     29  C   UNL     1      -3.234  11.064  16.050  0.00  0.00    +0.000 A 
ATOM     30  C   UNL     1      -2.234  11.151  17.020  0.00  0.00    +0.000 A 
ENDBRANCH  24  25
BRANCH  24  31
ATOM     31  C   UNL     1      -1.981  12.526  20.515  0.00  0.00    +0.000 A 
ATOM     32  C   UNL     1      -2.150  13.897  20.227  0.00  0.00    +0.000 A 
ATOM     33  C   UNL     1      -2.842  14.740  21.103  0.00  0.00    +0.000 A 
ATOM     34  C   UNL     1      -3.374  14.231  22.283  0.00  0.00    +0.000 A 
ATOM     35  C   UNL     1      -3.180  12.889  22.605  0.00  0.00    +0.000 A 
ATOM     36  C   UNL     1      -2.481  12.044  21.735  0.00  0.00    +0.000 A 
ENDBRANCH  24  31
ENDBRANCH  23  24
ENDBRANCH   7  23
TORSDOF 7
ENDMDL
MODEL 9
REMARK VINA RESULT:      -7.4      1.235      2.284
REMARK  Name = 
REMARK  9 active torsions:
REMARK  status: ('A' for Active; 'I' for Inactive)
REMARK    1  A    between atoms: C_1  and  O_2
REMARK    2  A    between atoms: O_2  and  C_3
REMARK    3  A    between atoms: C_8  and  O_9
REMARK    4  A    between atoms: O_9  and  C_10
REMARK    5  A    between atoms: C_11  and  C_12
REMARK    6  A    between atoms: C_12  and  C_13
REMARK    7  A    between atoms: C_13  and  C_14
REMARK    8  A    between atoms: C_13  and  C_20
REMARK    9  A    between atoms: C_27  and  C_29
REMARK                            x       y       z     vdW  Elec       q    Type
REMARK                         _______ _______ _______ _____ _____    ______ ____
ROOT
ATOM      1  C   UNL     1      -5.405  11.938  18.778  0.00  0.00    +0.000 A 
ATOM      2  C   UNL     1      -4.500  11.420  17.843  0.00  0.00    +0.000 A 
ATOM      3  C   UNL     1      -3.126  11.519  18.049  0.00  0.00    +0.000 A 
ATOM      4  C   UNL     1      -2.626  12.146  19.198  0.00  0.00    +0.000 A 
ATOM      5  C   UNL     1      -3.534  12.648  20.145  0.00  0.00    +0.000 A 
ATOM      6  C   UNL     1      -4.922  12.554  19.947  0.00  0.00    +0.000 A 
ATOM      7  C   UNL     1      -1.112  12.239  19.397  0.00  0.00    +0.000 C 
ATOM      8  N   UNL     1      -0.453  10.948  18.981  0.00  0.00    +0.000 N 
ATOM      9  C   UNL     1       0.595  10.430  19.776  0.00  0.00    +0.000 C 
ATOM     10  O   UNL     1       0.962  11.037  20.788  0.00  0.00    +0.000 OA
ATOM     11  C   UNL     1      -1.078  10.186  17.900  0.00  0.00    +0.000 C 
ATOM     12  C   UNL     1      -2.146  10.910  17.092  0.00  0.00    +0.000 C 
ENDROOT
BRANCH   9  13
ATOM     13  C   UNL     1       1.384   9.176  19.424  0.00  0.00    +0.000 A 
ATOM     14  C   UNL     1       1.939   9.133  18.130  0.00  0.00    +0.000 A 
ATOM     15  C   UNL     1       2.592   7.991  17.641  0.00  0.00    +0.000 A 
ATOM     16  C   UNL     1       2.706   6.860  18.438  0.00  0.00    +0.000 A 
ATOM     17  C   UNL     1       2.236   6.902  19.743  0.00  0.00    +0.000 A 
ATOM     18  C   UNL     1       1.618   8.061  20.242  0.00  0.00    +0.000 A 
ENDBRANCH   9  13
BRANCH   1  20
ATOM     19  C   UNL     1      -7.403  12.714  17.752  0.00  0.00    +0.000 C 
ATOM     20  O   UNL     1      -6.708  11.686  18.445  0.00  0.00    +0.000 OA
ENDBRANCH   1  20
BRANCH   6  21
ATOM     21  O   UNL     1      -5.845  12.999  20.853  0.00  0.00    +0.000 OA
ATOM     22  C   UNL     1      -5.384  13.644  22.031  0.00  0.00    +0.000 C 
ENDBRANCH   6  21
BRANCH   7  23
ATOM     23  C   UNL     1      -0.492  13.464  18.633  0.00  0.00    +0.000 C 
BRANCH  23  24
ATOM     24  C   UNL     1       0.153  14.575  19.533  0.00  0.00    +0.000 C 
BRANCH  24  25
ATOM     25  C   UNL     1       0.466  15.856  18.760  0.00  0.00    +0.000 A 
ATOM     26  C   UNL     1       1.794  16.235  18.504  0.00  0.00    +0.000 A 
ATOM     27  C   UNL     1       2.081  17.371  17.752  0.00  0.00    +0.000 A 
ATOM     28  C   UNL     1       1.046  18.151  17.246  0.00  0.00    +0.000 A 
ATOM     29  C   UNL     1      -0.278  17.777  17.467  0.00  0.00    +0.000 A 
ATOM     30  C   UNL     1      -0.567  16.628  18.206  0.00  0.00    +0.000 A 
ENDBRANCH  24  25
BRANCH  24  31
ATOM     31  C   UNL     1      -0.639  14.968  20.797  0.00  0.00    +0.000 A 
ATOM     32  C   UNL     1      -0.051  14.763  22.062  0.00  0.00    +0.000 A 
ATOM     33  C   UNL     1      -0.610  15.317  23.219  0.00  0.00    +0.000 A 
ATOM     34  C   UNL     1      -1.769  16.081  23.134  0.00  0.00    +0.000 A 
ATOM     35  C   UNL     1      -2.388  16.259  21.899  0.00  0.00    +0.000 A 
ATOM     36  C   UNL     1      -1.836  15.701  20.740  0.00  0.00    +0.000 A 
ENDBRANCH  24  31
ENDBRANCH  23  24
ENDBRANCH   7  23
TORSDOF 7
ENDMDL
