MODEL 1
REMARK VINA RESULT:      -7.6      0.000      0.000
REMARK  Name = 
REMARK  7 active torsions:
REMARK  status: ('A' for Active; 'I' for Inactive)
REMARK    1  A    between atoms: C_1  and  C_2
REMARK    2  A    between atoms: C_2  and  C_3
REMARK    3  A    between atoms: C_3  and  N_4
REMARK    4  A    between atoms: C_3  and  C_14
REMARK    5  A    between atoms: C_5  and  C_7
REMARK    6  A    between atoms: C_17  and  O_18
REMARK    7  A    between atoms: O_18  and  C_19
REMARK                            x       y       z     vdW  Elec       q    Type
REMARK                         _______ _______ _______ _____ _____    ______ ____
ROOT
ATOM      1  C   UNL     1       3.658   5.000  18.770  0.00  0.00    +0.000 C 
ATOM      2  C   UNL     1       2.570   5.642  19.625  0.00  0.00    +0.000 C 
ATOM      3  C   UNL     1       2.446   7.064  20.064  0.00  0.00    +0.000 C 
ATOM      4  C   UNL     1       2.237   7.928  18.814  0.00  0.00    +0.000 C 
ATOM      5  C   UNL     1       2.313   6.976  17.599  0.00  0.00    +0.000 C 
ATOM      6  C   UNL     1       2.401   5.579  18.144  0.00  0.00    +0.000 C 
ENDROOT
BRANCH   1   7
ATOM      7  C   UNL     1       5.016   5.526  18.363  0.00  0.00    +0.000 C 
BRANCH   7   8
ATOM      8  N   UNL     1       5.253   4.987  17.013  0.00  0.00    +0.000 N 
ATOM      9  C   UNL     1       5.748   5.752  15.978  0.00  0.00    +0.000 C 
ATOM     10  O   UNL     1       5.939   6.959  16.060  0.00  0.00    +0.000 OA
ATOM     11  H   UNL     1       5.367   3.990  16.950  0.00  0.00    +0.000 HD
BRANCH   9  12
ATOM     12  C   UNL     1       6.101   5.011  14.726  0.00  0.00    +0.000 A 
ATOM     13  C   UNL     1       5.257   4.041  14.169  0.00  0.00    +0.000 A 
ATOM     14  C   UNL     1       5.635   3.367  13.000  0.00  0.00    +0.000 A 
ATOM     15  C   UNL     1       6.849   3.670  12.384  0.00  0.00    +0.000 A 
ATOM     16 CL   UNL     1       7.307   2.842  10.948  0.00  0.00    +0.000 Cl
ATOM     17  C   UNL     1       7.688   4.643  12.922  0.00  0.00    +0.000 A 
ATOM     18  C   UNL     1       7.313   5.317  14.091  0.00  0.00    +0.000 A 
ENDBRANCH   9  12
ENDBRANCH   7   8
BRANCH   7  20
ATOM     19  C   UNL     1       7.461   5.856  19.070  0.00  0.00    +0.000 C 
ATOM     20  C   UNL     1       6.176   5.073  19.256  0.00  0.00    +0.000 C 
ENDBRANCH   7  20
ENDBRANCH   1   7
BRANCH   4  21
ATOM     21  O   UNL     1       0.953   8.558  18.935  0.00  0.00    +0.000 OA
BRANCH  21  22
ATOM     22  C   UNL     1       0.961   9.869  19.344  0.00  0.00    +0.000 A 
ATOM     23  C   UNL     1       1.468  10.901  18.561  0.00  0.00    +0.000 A 
ATOM     24  C   UNL     1       1.350  12.189  19.038  0.00  0.00    +0.000 A 
ATOM     25  N   UNL     1       0.772  12.506  20.213  0.00  0.00    +0.000 NA
ATOM     26  C   UNL     1       0.305  11.504  20.979  0.00  0.00    +0.000 A 
ATOM     27  C   UNL     1      -0.316  11.820  22.181  0.00  0.00    +0.000 A 
ATOM     28  C   UNL     1      -0.837  10.834  23.025  0.00  0.00    +0.000 A 
ATOM     29  C   UNL     1      -0.717   9.495  22.678  0.00  0.00    +0.000 A 
ATOM     30  C   UNL     1      -0.102   9.153  21.477  0.00  0.00    +0.000 A 
ATOM     31  C   UNL     1       0.398  10.150  20.605  0.00  0.00    +0.000 A 
ENDBRANCH  21  22
ENDBRANCH   4  21
TORSDOF 6
ENDMDL
MODEL 2
REMARK VINA RESULT:      -7.4      3.726      9.539
REMARK  Name = 
REMARK  7 active torsions:
REMARK  status: ('A' for Active; 'I' for Inactive)
REMARK    1  A    between atoms: C_1  and  C_2
REMARK    2  A    between atoms: C_2  and  C_3
REMARK    3  A    between atoms: C_3  and  N_4
REMARK    4  A    between atoms: C_3  and  C_14
REMARK    5  A    between atoms: C_5  and  C_7
REMARK    6  A    between atoms: C_17  and  O_18
REMARK    7  A    between atoms: O_18  and  C_19
REMARK                            x       y       z     vdW  Elec       q    Type
REMARK                         _______ _______ _______ _____ _____    ______ ____
ROOT
ATOM      1  C   UNL     1       3.236   4.970  20.197  0.00  0.00    +0.000 C 
ATOM      2  C   UNL     1       4.208   3.875  19.774  0.00  0.00    +0.000 C 
ATOM      3  C   UNL     1       4.030   2.819  18.733  0.00  0.00    +0.000 C 
ATOM      4  C   UNL     1       3.923   3.513  17.369  0.00  0.00    +0.000 C 
ATOM      5  C   UNL     1       3.973   5.033  17.640  0.00  0.00    +0.000 C 
ATOM      6  C   UNL     1       4.263   5.206  19.104  0.00  0.00    +0.000 C 
ENDROOT
BRANCH   1   7
ATOM      7  C   UNL     1       1.762   5.135  19.897  0.00  0.00    +0.000 C 
BRANCH   7   8
ATOM      8  N   UNL     1       1.355   6.359  20.609  0.00  0.00    +0.000 N 
ATOM      9  C   UNL     1       1.535   7.622  20.088  0.00  0.00    +0.000 C 
ATOM     10  O   UNL     1       2.134   7.844  19.044  0.00  0.00    +0.000 OA
ATOM     11  H   UNL     1       0.650   6.243  21.317  0.00  0.00    +0.000 HD
BRANCH   9  12
ATOM     12  C   UNL     1       0.905   8.742  20.854  0.00  0.00    +0.000 A 
ATOM     13  C   UNL     1       0.628   8.649  22.224  0.00  0.00    +0.000 A 
ATOM     14  C   UNL     1       0.028   9.722  22.897  0.00  0.00    +0.000 A 
ATOM     15  C   UNL     1      -0.285  10.890  22.202  0.00  0.00    +0.000 A 
ATOM     16 CL   UNL     1      -1.019  12.205  23.033  0.00  0.00    +0.000 Cl
ATOM     17  C   UNL     1      -0.001  10.998  20.844  0.00  0.00    +0.000 A 
ATOM     18  C   UNL     1       0.597   9.927  20.169  0.00  0.00    +0.000 A 
ENDBRANCH   9  12
ENDBRANCH   7   8
BRANCH   7  20
ATOM     19  C   UNL     1       0.613   2.901  19.371  0.00  0.00    +0.000 C 
ATOM     20  C   UNL     1       0.872   3.990  20.394  0.00  0.00    +0.000 C 
ENDBRANCH   7  20
ENDBRANCH   1   7
BRANCH   4  21
ATOM     21  O   UNL     1       5.028   3.064  16.570  0.00  0.00    +0.000 OA
BRANCH  21  22
ATOM     22  C   UNL     1       5.912   4.035  16.165  0.00  0.00    +0.000 A 
ATOM     23  C   UNL     1       6.547   4.896  17.054  0.00  0.00    +0.000 A 
ATOM     24  C   UNL     1       7.476   5.777  16.544  0.00  0.00    +0.000 A 
ATOM     25  N   UNL     1       7.805   5.852  15.240  0.00  0.00    +0.000 NA
ATOM     26  C   UNL     1       7.171   5.036  14.379  0.00  0.00    +0.000 A 
ATOM     27  C   UNL     1       7.520   5.085  13.036  0.00  0.00    +0.000 A 
ATOM     28  C   UNL     1       6.914   4.259  12.084  0.00  0.00    +0.000 A 
ATOM     29  C   UNL     1       5.915   3.376  12.473  0.00  0.00    +0.000 A 
ATOM     30  C   UNL     1       5.550   3.305  13.814  0.00  0.00    +0.000 A 
ATOM     31  C   UNL     1       6.185   4.116  14.785  0.00  0.00    +0.000 A 
ENDBRANCH  21  22
ENDBRANCH   4  21
TORSDOF 6
ENDMDL
MODEL 3
REMARK VINA RESULT:      -7.4      1.930      2.665
REMARK  Name = 
REMARK  7 active torsions:
REMARK  status: ('A' for Active; 'I' for Inactive)
REMARK    1  A    between atoms: C_1  and  C_2
REMARK    2  A    between atoms: C_2  and  C_3
REMARK    3  A    between atoms: C_3  and  N_4
REMARK    4  A    between atoms: C_3  and  C_14
REMARK    5  A    between atoms: C_5  and  C_7
REMARK    6  A    between atoms: C_17  and  O_18
REMARK    7  A    between atoms: O_18  and  C_19
REMARK                            x       y       z     vdW  Elec       q    Type
REMARK                         _______ _______ _______ _____ _____    ______ ____
ROOT
ATOM      1  C   UNL     1       2.261   3.701  19.470  0.00  0.00    +0.000 C 
ATOM      2  C   UNL     1       1.348   4.798  20.004  0.00  0.00    +0.000 C 
ATOM      3  C   UNL     1       1.720   6.136  20.555  0.00  0.00    +0.000 C 
ATOM      4  C   UNL     1       2.354   6.954  19.423  0.00  0.00    +0.000 C 
ATOM      5  C   UNL     1       2.415   6.028  18.187  0.00  0.00    +0.000 C 
ATOM      6  C   UNL     1       1.686   4.765  18.552  0.00  0.00    +0.000 C 
ENDROOT
BRANCH   1   7
ATOM      7  C   UNL     1       3.759   3.535  19.589  0.00  0.00    +0.000 C 
BRANCH   7   8
ATOM      8  N   UNL     1       4.297   3.886  18.264  0.00  0.00    +0.000 N 
ATOM      9  C   UNL     1       5.594   4.312  18.071  0.00  0.00    +0.000 C 
ATOM     10  O   UNL     1       6.378   4.529  18.986  0.00  0.00    +0.000 OA
ATOM     11  H   UNL     1       3.813   3.493  17.474  0.00  0.00    +0.000 HD
BRANCH   9  12
ATOM     12  C   UNL     1       6.032   4.453  16.647  0.00  0.00    +0.000 A 
ATOM     13  C   UNL     1       5.216   4.075  15.573  0.00  0.00    +0.000 A 
ATOM     14  C   UNL     1       5.674   4.218  14.256  0.00  0.00    +0.000 A 
ATOM     15  C   UNL     1       6.941   4.748  14.014  0.00  0.00    +0.000 A 
ATOM     16 CL   UNL     1       7.498   4.925  12.397  0.00  0.00    +0.000 Cl
ATOM     17  C   UNL     1       7.754   5.140  15.075  0.00  0.00    +0.000 A 
ATOM     18  C   UNL     1       7.299   4.997  16.392  0.00  0.00    +0.000 A 
ENDBRANCH   9  12
ENDBRANCH   7   8
BRANCH   7  20
ATOM     19  C   UNL     1       3.883   1.075  18.867  0.00  0.00    +0.000 C 
ATOM     20  C   UNL     1       4.226   2.112  19.918  0.00  0.00    +0.000 C 
ENDBRANCH   7  20
ENDBRANCH   1   7
BRANCH   4  21
ATOM     21  O   UNL     1       1.524   8.103  19.204  0.00  0.00    +0.000 OA
BRANCH  21  22
ATOM     22  C   UNL     1       1.091   8.758  20.331  0.00  0.00    +0.000 A 
ATOM     23  C   UNL     1       1.585   8.480  21.602  0.00  0.00    +0.000 A 
ATOM     24  C   UNL     1       1.137   9.255  22.650  0.00  0.00    +0.000 A 
ATOM     25  N   UNL     1       0.255  10.264  22.516  0.00  0.00    +0.000 NA
ATOM     26  C   UNL     1      -0.240  10.515  21.291  0.00  0.00    +0.000 A 
ATOM     27  C   UNL     1      -1.130  11.569  21.136  0.00  0.00    +0.000 A 
ATOM     28  C   UNL     1      -1.677  11.898  19.892  0.00  0.00    +0.000 A 
ATOM     29  C   UNL     1      -1.349  11.143  18.773  0.00  0.00    +0.000 A 
ATOM     30  C   UNL     1      -0.456  10.083  18.901  0.00  0.00    +0.000 A 
ATOM     31  C   UNL     1       0.125   9.769  20.154  0.00  0.00    +0.000 A 
ENDBRANCH  21  22
ENDBRANCH   4  21
TORSDOF 6
ENDMDL
MODEL 4
REMARK VINA RESULT:      -7.3      4.213      8.830
REMARK  Name = 
REMARK  7 active torsions:
REMARK  status: ('A' for Active; 'I' for Inactive)
REMARK    1  A    between atoms: C_1  and  C_2
REMARK    2  A    between atoms: C_2  and  C_3
REMARK    3  A    between atoms: C_3  and  N_4
REMARK    4  A    between atoms: C_3  and  C_14
REMARK    5  A    between atoms: C_5  and  C_7
REMARK    6  A    between atoms: C_17  and  O_18
REMARK    7  A    between atoms: O_18  and  C_19
REMARK                            x       y       z     vdW  Elec       q    Type
REMARK                         _______ _______ _______ _____ _____    ______ ____
ROOT
ATOM      1  C   UNL     1      -0.603  10.604  22.609  0.00  0.00    +0.000 C 
ATOM      2  C   UNL     1      -0.794   9.102  22.431  0.00  0.00    +0.000 C 
ATOM      3  C   UNL     1      -0.512   8.262  21.229  0.00  0.00    +0.000 C 
ATOM      4  C   UNL     1       1.001   8.291  20.976  0.00  0.00    +0.000 C 
ATOM      5  C   UNL     1       1.608   9.241  22.032  0.00  0.00    +0.000 C 
ATOM      6  C   UNL     1       0.497   9.621  22.968  0.00  0.00    +0.000 C 
ENDROOT
BRANCH   1   7
ATOM      7  C   UNL     1      -0.347  11.683  21.581  0.00  0.00    +0.000 C 
BRANCH   7   8
ATOM      8  N   UNL     1      -1.049  11.238  20.366  0.00  0.00    +0.000 N 
ATOM      9  C   UNL     1      -2.136  11.906  19.842  0.00  0.00    +0.000 C 
ATOM     10  O   UNL     1      -2.670  12.862  20.390  0.00  0.00    +0.000 OA
ATOM     11  H   UNL     1      -0.525  10.644  19.746  0.00  0.00    +0.000 HD
BRANCH   9  12
ATOM     12  C   UNL     1      -2.619  11.428  18.509  0.00  0.00    +0.000 A 
ATOM     13  C   UNL     1      -3.892  11.744  18.018  0.00  0.00    +0.000 A 
ATOM     14  C   UNL     1      -4.303  11.265  16.766  0.00  0.00    +0.000 A 
ATOM     15  C   UNL     1      -3.438  10.481  16.004  0.00  0.00    +0.000 A 
ATOM     16 CL   UNL     1      -3.946   9.899  14.468  0.00  0.00    +0.000 Cl
ATOM     17  C   UNL     1      -2.165  10.173  16.477  0.00  0.00    +0.000 A 
ATOM     18  C   UNL     1      -1.753  10.649  17.728  0.00  0.00    +0.000 A 
ENDBRANCH   9  12
ENDBRANCH   7   8
BRANCH   7  20
ATOM     19  C   UNL     1       1.381  12.205  19.756  0.00  0.00    +0.000 C 
ATOM     20  C   UNL     1       1.128  11.888  21.217  0.00  0.00    +0.000 C 
ENDBRANCH   7  20
ENDBRANCH   1   7
BRANCH   4  21
ATOM     21  O   UNL     1       1.486   6.946  21.108  0.00  0.00    +0.000 OA
BRANCH  21  22
ATOM     22  C   UNL     1       2.168   6.442  20.026  0.00  0.00    +0.000 A 
ATOM     23  C   UNL     1       2.527   7.221  18.931  0.00  0.00    +0.000 A 
ATOM     24  C   UNL     1       3.281   6.630  17.940  0.00  0.00    +0.000 A 
ATOM     25  N   UNL     1       3.690   5.347  17.972  0.00  0.00    +0.000 NA
ATOM     26  C   UNL     1       3.320   4.589  19.019  0.00  0.00    +0.000 A 
ATOM     27  C   UNL     1       3.758   3.273  19.076  0.00  0.00    +0.000 A 
ATOM     28  C   UNL     1       3.425   2.428  20.139  0.00  0.00    +0.000 A 
ATOM     29  C   UNL     1       2.613   2.896  21.164  0.00  0.00    +0.000 A 
ATOM     30  C   UNL     1       2.165   4.214  21.133  0.00  0.00    +0.000 A 
ATOM     31  C   UNL     1       2.528   5.081  20.074  0.00  0.00    +0.000 A 
ENDBRANCH  21  22
ENDBRANCH   4  21
TORSDOF 6
ENDMDL
MODEL 5
REMARK VINA RESULT:      -7.3      3.681      6.469
REMARK  Name = 
REMARK  7 active torsions:
REMARK  status: ('A' for Active; 'I' for Inactive)
REMARK    1  A    between atoms: C_1  and  C_2
REMARK    2  A    between atoms: C_2  and  C_3
REMARK    3  A    between atoms: C_3  and  N_4
REMARK    4  A    between atoms: C_3  and  C_14
REMARK    5  A    between atoms: C_5  and  C_7
REMARK    6  A    between atoms: C_17  and  O_18
REMARK    7  A    between atoms: O_18  and  C_19
REMARK                            x       y       z     vdW  Elec       q    Type
REMARK                         _______ _______ _______ _____ _____    ______ ____
ROOT
ATOM      1  C   UNL     1       0.024   9.616  20.324  0.00  0.00    +0.000 C 
ATOM      2  C   UNL     1      -0.593  11.003  20.183  0.00  0.00    +0.000 C 
ATOM      3  C   UNL     1       0.045  12.335  20.408  0.00  0.00    +0.000 C 
ATOM      4  C   UNL     1       1.150  12.513  19.360  0.00  0.00    +0.000 C 
ATOM      5  C   UNL     1       1.199  11.204  18.541  0.00  0.00    +0.000 C 
ATOM      6  C   UNL     1       0.045  10.358  19.000  0.00  0.00    +0.000 C 
ENDROOT
BRANCH   1   7
ATOM      7  C   UNL     1       1.322   9.187  20.971  0.00  0.00    +0.000 C 
BRANCH   7   8
ATOM      8  N   UNL     1       1.506   7.779  20.577  0.00  0.00    +0.000 N 
ATOM      9  C   UNL     1       2.191   7.403  19.442  0.00  0.00    +0.000 C 
ATOM     10  O   UNL     1       2.617   8.199  18.614  0.00  0.00    +0.000 OA
ATOM     11  H   UNL     1       1.418   7.100  21.314  0.00  0.00    +0.000 HD
BRANCH   9  12
ATOM     12  C   UNL     1       2.442   5.937  19.283  0.00  0.00    +0.000 A 
ATOM     13  C   UNL     1       2.026   5.000  20.238  0.00  0.00    +0.000 A 
ATOM     14  C   UNL     1       2.292   3.636  20.050  0.00  0.00    +0.000 A 
ATOM     15  C   UNL     1       2.965   3.211  18.905  0.00  0.00    +0.000 A 
ATOM     16 CL   UNL     1       3.287   1.537  18.677  0.00  0.00    +0.000 Cl
ATOM     17  C   UNL     1       3.370   4.133  17.943  0.00  0.00    +0.000 A 
ATOM     18  C   UNL     1       3.106   5.496  18.129  0.00  0.00    +0.000 A 
ENDBRANCH   9  12
ENDBRANCH   7   8
BRANCH   7  20
ATOM     19  C   UNL     1      -0.043   9.375  23.137  0.00  0.00    +0.000 C 
ATOM     20  C   UNL     1       1.328   9.246  22.503  0.00  0.00    +0.000 C 
ENDBRANCH   7  20
ENDBRANCH   1   7
BRANCH   4  21
ATOM     21  O   UNL     1       0.801  13.648  18.553  0.00  0.00    +0.000 OA
BRANCH  21  22
ATOM     22  C   UNL     1       1.582  14.767  18.717  0.00  0.00    +0.000 A 
ATOM     23  C   UNL     1       2.967  14.710  18.833  0.00  0.00    +0.000 A 
ATOM     24  C   UNL     1       3.656  15.901  18.911  0.00  0.00    +0.000 A 
ATOM     25  N   UNL     1       3.068  17.113  18.880  0.00  0.00    +0.000 NA
ATOM     26  C   UNL     1       1.727  17.165  18.793  0.00  0.00    +0.000 A 
ATOM     27  C   UNL     1       1.112  18.408  18.735  0.00  0.00    +0.000 A 
ATOM     28  C   UNL     1      -0.276  18.542  18.631  0.00  0.00    +0.000 A 
ATOM     29  C   UNL     1      -1.079  17.408  18.611  0.00  0.00    +0.000 A 
ATOM     30  C   UNL     1      -0.486  16.150  18.665  0.00  0.00    +0.000 A 
ATOM     31  C   UNL     1       0.921  16.012  18.736  0.00  0.00    +0.000 A 
ENDBRANCH  21  22
ENDBRANCH   4  21
TORSDOF 6
ENDMDL
MODEL 6
REMARK VINA RESULT:      -7.1      5.512     11.287
REMARK  Name = 
REMARK  7 active torsions:
REMARK  status: ('A' for Active; 'I' for Inactive)
REMARK    1  A    between atoms: C_1  and  C_2
REMARK    2  A    between atoms: C_2  and  C_3
REMARK    3  A    between atoms: C_3  and  N_4
REMARK    4  A    between atoms: C_3  and  C_14
REMARK    5  A    between atoms: C_5  and  C_7
REMARK    6  A    between atoms: C_17  and  O_18
REMARK    7  A    between atoms: O_18  and  C_19
REMARK                            x       y       z     vdW  Elec       q    Type
REMARK                         _______ _______ _______ _____ _____    ______ ____
ROOT
ATOM      1  C   UNL     1      -0.692  10.380  22.797  0.00  0.00    +0.000 C 
ATOM      2  C   UNL     1      -0.760   8.890  22.482  0.00  0.00    +0.000 C 
ATOM      3  C   UNL     1      -0.345   8.179  21.236  0.00  0.00    +0.000 C 
ATOM      4  C   UNL     1       1.174   8.334  21.086  0.00  0.00    +0.000 C 
ATOM      5  C   UNL     1       1.646   9.228  22.256  0.00  0.00    +0.000 C 
ATOM      6  C   UNL     1       0.455   9.447  23.145  0.00  0.00    +0.000 C 
ENDROOT
BRANCH   1   7
ATOM      7  C   UNL     1      -0.454  11.560  21.882  0.00  0.00    +0.000 C 
BRANCH   7   8
ATOM      8  N   UNL     1      -1.049  12.716  22.575  0.00  0.00    +0.000 N 
ATOM      9  C   UNL     1      -0.409  13.932  22.686  0.00  0.00    +0.000 C 
ATOM     10  O   UNL     1       0.739  14.129  22.310  0.00  0.00    +0.000 OA
ATOM     11  H   UNL     1      -2.050  12.706  22.669  0.00  0.00    +0.000 HD
BRANCH   9  12
ATOM     12  C   UNL     1      -1.222  15.050  23.259  0.00  0.00    +0.000 A 
ATOM     13  C   UNL     1      -0.712  15.925  24.227  0.00  0.00    +0.000 A 
ATOM     14  C   UNL     1      -1.515  16.952  24.741  0.00  0.00    +0.000 A 
ATOM     15  C   UNL     1      -2.822  17.109  24.282  0.00  0.00    +0.000 A 
ATOM     16 CL   UNL     1      -3.802  18.372  24.914  0.00  0.00    +0.000 Cl
ATOM     17  C   UNL     1      -3.334  16.253  23.310  0.00  0.00    +0.000 A 
ATOM     18  C   UNL     1      -2.534  15.225  22.795  0.00  0.00    +0.000 A 
ENDBRANCH   9  12
ENDBRANCH   7   8
BRANCH   7  20
ATOM     19  C   UNL     1      -0.153  11.408  19.337  0.00  0.00    +0.000 C 
ATOM     20  C   UNL     1      -1.119  11.451  20.505  0.00  0.00    +0.000 C 
ENDBRANCH   7  20
ENDBRANCH   1   7
BRANCH   4  21
ATOM     21  O   UNL     1       1.748   7.019  21.138  0.00  0.00    +0.000 OA
BRANCH  21  22
ATOM     22  C   UNL     1       2.151   6.490  19.936  0.00  0.00    +0.000 A 
ATOM     23  C   UNL     1       2.785   7.244  18.954  0.00  0.00    +0.000 A 
ATOM     24  C   UNL     1       3.218   6.591  17.820  0.00  0.00    +0.000 A 
ATOM     25  N   UNL     1       3.066   5.269  17.610  0.00  0.00    +0.000 NA
ATOM     26  C   UNL     1       2.431   4.547  18.549  0.00  0.00    +0.000 A 
ATOM     27  C   UNL     1       2.291   3.179  18.356  0.00  0.00    +0.000 A 
ATOM     28  C   UNL     1       1.654   2.361  19.294  0.00  0.00    +0.000 A 
ATOM     29  C   UNL     1       1.118   2.921  20.446  0.00  0.00    +0.000 A 
ATOM     30  C   UNL     1       1.248   4.289  20.665  0.00  0.00    +0.000 A 
ATOM     31  C   UNL     1       1.922   5.114  19.733  0.00  0.00    +0.000 A 
ENDBRANCH  21  22
ENDBRANCH   4  21
TORSDOF 6
ENDMDL
MODEL 7
REMARK VINA RESULT:      -7.0      4.422      9.082
REMARK  Name = 
REMARK  7 active torsions:
REMARK  status: ('A' for Active; 'I' for Inactive)
REMARK    1  A    between atoms: C_1  and  C_2
REMARK    2  A    between atoms: C_2  and  C_3
REMARK    3  A    between atoms: C_3  and  N_4
REMARK    4  A    between atoms: C_3  and  C_14
REMARK    5  A    between atoms: C_5  and  C_7
REMARK    6  A    between atoms: C_17  and  O_18
REMARK    7  A    between atoms: O_18  and  C_19
REMARK                            x       y       z     vdW  Elec       q    Type
REMARK                         _______ _______ _______ _____ _____    ______ ____
ROOT
ATOM      1  C   UNL     1      -0.643  10.744  22.362  0.00  0.00    +0.000 C 
ATOM      2  C   UNL     1      -0.460   9.257  22.641  0.00  0.00    +0.000 C 
ATOM      3  C   UNL     1      -0.446   8.120  21.672  0.00  0.00    +0.000 C 
ATOM      4  C   UNL     1       0.775   8.292  20.759  0.00  0.00    +0.000 C 
ATOM      5  C   UNL     1       1.454   9.617  21.172  0.00  0.00    +0.000 C 
ATOM      6  C   UNL     1       0.737  10.112  22.396  0.00  0.00    +0.000 C 
ENDROOT
BRANCH   1   7
ATOM      7  C   UNL     1      -1.120  11.450  21.112  0.00  0.00    +0.000 C 
BRANCH   7   8
ATOM      8  N   UNL     1       0.022  12.267  20.667  0.00  0.00    +0.000 N 
ATOM      9  C   UNL     1       0.209  12.638  19.353  0.00  0.00    +0.000 C 
ATOM     10  O   UNL     1      -0.495  12.244  18.432  0.00  0.00    +0.000 OA
ATOM     11  H   UNL     1       0.470  12.822  21.376  0.00  0.00    +0.000 HD
BRANCH   9  12
ATOM     12  C   UNL     1       1.314  13.614  19.099  0.00  0.00    +0.000 A 
ATOM     13  C   UNL     1       2.566  13.216  18.612  0.00  0.00    +0.000 A 
ATOM     14  C   UNL     1       3.574  14.167  18.399  0.00  0.00    +0.000 A 
ATOM     15  C   UNL     1       3.326  15.514  18.662  0.00  0.00    +0.000 A 
ATOM     16 CL   UNL     1       4.565  16.676  18.396  0.00  0.00    +0.000 Cl
ATOM     17  C   UNL     1       2.081  15.921  19.133  0.00  0.00    +0.000 A 
ATOM     18  C   UNL     1       1.073  14.973  19.348  0.00  0.00    +0.000 A 
ENDBRANCH   9  12
ENDBRANCH   7   8
BRANCH   7  20
ATOM     19  C   UNL     1      -2.606  12.731  22.768  0.00  0.00    +0.000 C 
ATOM     20  C   UNL     1      -2.312  12.391  21.319  0.00  0.00    +0.000 C 
ENDBRANCH   7  20
ENDBRANCH   1   7
BRANCH   4  21
ATOM     21  O   UNL     1       1.628   7.155  20.962  0.00  0.00    +0.000 OA
BRANCH  21  22
ATOM     22  C   UNL     1       2.119   6.560  19.825  0.00  0.00    +0.000 A 
ATOM     23  C   UNL     1       2.792   7.267  18.834  0.00  0.00    +0.000 A 
ATOM     24  C   UNL     1       3.313   6.554  17.775  0.00  0.00    +0.000 A 
ATOM     25  N   UNL     1       3.211   5.217  17.647  0.00  0.00    +0.000 NA
ATOM     26  C   UNL     1       2.538   4.539  18.594  0.00  0.00    +0.000 A 
ATOM     27  C   UNL     1       2.449   3.158  18.486  0.00  0.00    +0.000 A 
ATOM     28  C   UNL     1       1.777   2.384  19.438  0.00  0.00    +0.000 A 
ATOM     29  C   UNL     1       1.155   3.002  20.515  0.00  0.00    +0.000 A 
ATOM     30  C   UNL     1       1.234   4.385  20.648  0.00  0.00    +0.000 A 
ATOM     31  C   UNL     1       1.941   5.167  19.704  0.00  0.00    +0.000 A 
ENDBRANCH  21  22
ENDBRANCH   4  21
TORSDOF 6
ENDMDL
MODEL 8
REMARK VINA RESULT:      -7.0      3.776      6.589
REMARK  Name = 
REMARK  7 active torsions:
REMARK  status: ('A' for Active; 'I' for Inactive)
REMARK    1  A    between atoms: C_1  and  C_2
REMARK    2  A    between atoms: C_2  and  C_3
REMARK    3  A    between atoms: C_3  and  N_4
REMARK    4  A    between atoms: C_3  and  C_14
REMARK    5  A    between atoms: C_5  and  C_7
REMARK    6  A    between atoms: C_17  and  O_18
REMARK    7  A    between atoms: O_18  and  C_19
REMARK                            x       y       z     vdW  Elec       q    Type
REMARK                         _______ _______ _______ _____ _____    ______ ____
ROOT
ATOM      1  C   UNL     1       0.220   9.860  19.457  0.00  0.00    +0.000 C 
ATOM      2  C   UNL     1      -0.703  11.064  19.608  0.00  0.00    +0.000 C 
ATOM      3  C   UNL     1      -0.563  12.240  20.519  0.00  0.00    +0.000 C 
ATOM      4  C   UNL     1       0.692  13.016  20.100  0.00  0.00    +0.000 C 
ATOM      5  C   UNL     1       1.341  12.219  18.946  0.00  0.00    +0.000 C 
ATOM      6  C   UNL     1       0.397  11.102  18.602  0.00  0.00    +0.000 C 
ENDROOT
BRANCH   1   7
ATOM      7  C   UNL     1       1.351   9.383  20.340  0.00  0.00    +0.000 C 
BRANCH   7   8
ATOM      8  N   UNL     1       1.580   7.980  19.955  0.00  0.00    +0.000 N 
ATOM      9  C   UNL     1       2.355   7.617  18.874  0.00  0.00    +0.000 C 
ATOM     10  O   UNL     1       2.836   8.422  18.086  0.00  0.00    +0.000 OA
ATOM     11  H   UNL     1       1.442   7.295  20.679  0.00  0.00    +0.000 HD
BRANCH   9  12
ATOM     12  C   UNL     1       2.632   6.154  18.728  0.00  0.00    +0.000 A 
ATOM     13  C   UNL     1       3.631   5.505  19.466  0.00  0.00    +0.000 A 
ATOM     14  C   UNL     1       3.860   4.134  19.288  0.00  0.00    +0.000 A 
ATOM     15  C   UNL     1       3.085   3.412  18.380  0.00  0.00    +0.000 A 
ATOM     16 CL   UNL     1       3.369   1.729  18.168  0.00  0.00    +0.000 Cl
ATOM     17  C   UNL     1       2.081   4.045  17.652  0.00  0.00    +0.000 A 
ATOM     18  C   UNL     1       1.851   5.415  17.827  0.00  0.00    +0.000 A 
ENDBRANCH   9  12
ENDBRANCH   7   8
BRANCH   7  20
ATOM     19  C   UNL     1      -0.254   8.746  22.239  0.00  0.00    +0.000 C 
ATOM     20  C   UNL     1       1.051   9.409  21.843  0.00  0.00    +0.000 C 
ENDBRANCH   7  20
ENDBRANCH   1   7
BRANCH   4  21
ATOM     21  O   UNL     1       0.272  14.326  19.690  0.00  0.00    +0.000 OA
BRANCH  21  22
ATOM     22  C   UNL     1       1.268  15.173  19.268  0.00  0.00    +0.000 A 
ATOM     23  C   UNL     1       2.617  14.930  19.505  0.00  0.00    +0.000 A 
ATOM     24  C   UNL     1       3.534  15.806  18.965  0.00  0.00    +0.000 A 
ATOM     25  N   UNL     1       3.201  16.879  18.222  0.00  0.00    +0.000 NA
ATOM     26  C   UNL     1       1.895  17.126  18.015  0.00  0.00    +0.000 A 
ATOM     27  C   UNL     1       1.540  18.215  17.229  0.00  0.00    +0.000 A 
ATOM     28  C   UNL     1       0.204  18.528  16.960  0.00  0.00    +0.000 A 
ATOM     29  C   UNL     1      -0.810  17.752  17.507  0.00  0.00    +0.000 A 
ATOM     30  C   UNL     1      -0.480  16.654  18.295  0.00  0.00    +0.000 A 
ATOM     31  C   UNL     1       0.872  16.315  18.542  0.00  0.00    +0.000 A 
ENDBRANCH  21  22
ENDBRANCH   4  21
TORSDOF 6
ENDMDL
MODEL 9
REMARK VINA RESULT:      -7.0      4.941     10.718
REMARK  Name = 
REMARK  7 active torsions:
REMARK  status: ('A' for Active; 'I' for Inactive)
REMARK    1  A    between atoms: C_1  and  C_2
REMARK    2  A    between atoms: C_2  and  C_3
REMARK    3  A    between atoms: C_3  and  N_4
REMARK    4  A    between atoms: C_3  and  C_14
REMARK    5  A    between atoms: C_5  and  C_7
REMARK    6  A    between atoms: C_17  and  O_18
REMARK    7  A    between atoms: O_18  and  C_19
REMARK                            x       y       z     vdW  Elec       q    Type
REMARK                         _______ _______ _______ _____ _____    ______ ____
ROOT
ATOM      1  C   UNL     1      -0.365  11.261  18.998  0.00  0.00    +0.000 C 
ATOM      2  C   UNL     1      -0.172   9.981  18.192  0.00  0.00    +0.000 C 
ATOM      3  C   UNL     1       1.099   9.266  17.868  0.00  0.00    +0.000 C 
ATOM      4  C   UNL     1       1.703   8.754  19.182  0.00  0.00    +0.000 C 
ATOM      5  C   UNL     1       0.781   9.254  20.317  0.00  0.00    +0.000 C 
ATOM      6  C   UNL     1      -0.409   9.897  19.662  0.00  0.00    +0.000 C 
ENDROOT
BRANCH   1   7
ATOM      7  C   UNL     1       0.646  12.290  19.451  0.00  0.00    +0.000 C 
BRANCH   7   8
ATOM      8  N   UNL     1      -0.019  13.041  20.529  0.00  0.00    +0.000 N 
ATOM      9  C   UNL     1       0.675  13.699  21.522  0.00  0.00    +0.000 C 
ATOM     10  O   UNL     1       1.891  13.636  21.652  0.00  0.00    +0.000 OA
ATOM     11  H   UNL     1      -0.960  13.344  20.341  0.00  0.00    +0.000 HD
BRANCH   9  12
ATOM     12  C   UNL     1      -0.142  14.560  22.432  0.00  0.00    +0.000 A 
ATOM     13  C   UNL     1      -0.072  15.959  22.401  0.00  0.00    +0.000 A 
ATOM     14  C   UNL     1      -0.850  16.724  23.281  0.00  0.00    +0.000 A 
ATOM     15  C   UNL     1      -1.705  16.090  24.183  0.00  0.00    +0.000 A 
ATOM     16 CL   UNL     1      -2.660  17.033  25.258  0.00  0.00    +0.000 Cl
ATOM     17  C   UNL     1      -1.792  14.701  24.212  0.00  0.00    +0.000 A 
ATOM     18  C   UNL     1      -1.014  13.935  23.335  0.00  0.00    +0.000 A 
ENDBRANCH   9  12
ENDBRANCH   7   8
BRANCH   7  20
ATOM     19  C   UNL     1       2.559  13.357  18.112  0.00  0.00    +0.000 C 
ATOM     20  C   UNL     1       1.067  13.297  18.374  0.00  0.00    +0.000 C 
ENDBRANCH   7  20
ENDBRANCH   1   7
BRANCH   4  21
ATOM     21  O   UNL     1       1.749   7.322  19.107  0.00  0.00    +0.000 OA
BRANCH  21  22
ATOM     22  C   UNL     1       2.739   6.792  18.316  0.00  0.00    +0.000 A 
ATOM     23  C   UNL     1       3.781   7.554  17.798  0.00  0.00    +0.000 A 
ATOM     24  C   UNL     1       4.764   6.902  17.085  0.00  0.00    +0.000 A 
ATOM     25  N   UNL     1       4.775   5.574  16.863  0.00  0.00    +0.000 NA
ATOM     26  C   UNL     1       3.754   4.842  17.343  0.00  0.00    +0.000 A 
ATOM     27  C   UNL     1       3.767   3.468  17.142  0.00  0.00    +0.000 A 
ATOM     28  C   UNL     1       2.747   2.641  17.622  0.00  0.00    +0.000 A 
ATOM     29  C   UNL     1       1.670   3.197  18.299  0.00  0.00    +0.000 A 
ATOM     30  C   UNL     1       1.634   4.571  18.516  0.00  0.00    +0.000 A 
ATOM     31  C   UNL     1       2.682   5.407  18.061  0.00  0.00    +0.000 A 
ENDBRANCH  21  22
ENDBRANCH   4  21
TORSDOF 6
ENDMDL
