MODEL 1
REMARK VINA RESULT:      -6.2      0.000      0.000
REMARK  Name = 
REMARK  8 active torsions:
REMARK  status: ('A' for Active; 'I' for Inactive)
REMARK    1  A    between atoms: N_1  and  C_2
REMARK    2  A    between atoms: N_11  and  C_12
REMARK    3  A    between atoms: C_12  and  O_13
REMARK    4  A    between atoms: O_13  and  C_14
REMARK    5  A    between atoms: C_14  and  C_15
REMARK    6  A    between atoms: C_14  and  C_17
REMARK    7  A    between atoms: C_15  and  O_16
REMARK    8  A    between atoms: C_17  and  O_18
REMARK                            x       y       z     vdW  Elec       q    Type
REMARK                         _______ _______ _______ _____ _____    ______ ____
ROOT
ATOM      1  C   UNL     1       1.533   3.298  19.335  0.00  0.00    +0.000 A 
ATOM      2  N   UNL     1       1.807   2.117  18.745  0.00  0.00    +0.000 NA
ATOM      3  C   UNL     1       2.779   2.075  17.814  0.00  0.00    +0.000 A 
ATOM      4  N   UNL     1       3.555   3.082  17.381  0.00  0.00    +0.000 NA
ATOM      5  C   UNL     1       3.259   4.236  18.000  0.00  0.00    +0.000 A 
ATOM      6  C   UNL     1       2.285   4.426  18.976  0.00  0.00    +0.000 A 
ATOM      7  C   UNL     1       2.362   5.793  19.340  0.00  0.00    +0.000 A 
ATOM      8 BR   UNL     1       1.320   6.632  20.657  0.00  0.00    +0.000 Br
ATOM      9  C   UNL     1       3.338   6.405  18.590  0.00  0.00    +0.000 A 
ATOM     10  N   UNL     1       3.886   5.442  17.779  0.00  0.00    +0.000 N 
ENDROOT
BRANCH   1  11
ATOM     11  N   UNL     1       0.512   3.308  20.269  0.00  0.00    +0.000 N 
ATOM     12  H   UNL     1      -0.349   2.925  19.901  0.00  0.00    +0.000 HD
ATOM     13  H   UNL     1       0.772   3.051  21.213  0.00  0.00    +0.000 HD
ENDBRANCH   1  11
BRANCH  10  14
ATOM     14  C   UNL     1       4.969   5.661  16.839  0.00  0.00    +0.000 C 
BRANCH  14  15
ATOM     15  O   UNL     1       5.906   6.630  17.330  0.00  0.00    +0.000 OA
BRANCH  15  16
ATOM     16  C   UNL     1       7.272   6.165  17.458  0.00  0.00    +0.000 C 
BRANCH  16  17
ATOM     17  C   UNL     1       7.761   6.183  18.912  0.00  0.00    +0.000 C 
BRANCH  17  18
ATOM     18  O   UNL     1       6.859   5.485  19.768  0.00  0.00    +0.000 OA
ATOM     19  H   UNL     1       7.285   4.642  20.010  0.00  0.00    +0.000 HD
ENDBRANCH  17  18
ENDBRANCH  16  17
BRANCH  16  20
ATOM     20  C   UNL     1       7.318   4.731  16.905  0.00  0.00    +0.000 C 
BRANCH  20  21
ATOM     21  O   UNL     1       8.212   3.928  17.676  0.00  0.00    +0.000 OA
ATOM     22  H   UNL     1       9.090   4.043  17.270  0.00  0.00    +0.000 HD
ENDBRANCH  20  21
ENDBRANCH  16  20
ENDBRANCH  15  16
ENDBRANCH  14  15
ENDBRANCH  10  14
TORSDOF 8
ENDMDL
MODEL 2
REMARK VINA RESULT:      -6.1      0.712      1.466
REMARK  Name = 
REMARK  8 active torsions:
REMARK  status: ('A' for Active; 'I' for Inactive)
REMARK    1  A    between atoms: N_1  and  C_2
REMARK    2  A    between atoms: N_11  and  C_12
REMARK    3  A    between atoms: C_12  and  O_13
REMARK    4  A    between atoms: O_13  and  C_14
REMARK    5  A    between atoms: C_14  and  C_15
REMARK    6  A    between atoms: C_14  and  C_17
REMARK    7  A    between atoms: C_15  and  O_16
REMARK    8  A    between atoms: C_17  and  O_18
REMARK                            x       y       z     vdW  Elec       q    Type
REMARK                         _______ _______ _______ _____ _____    ______ ____
ROOT
ATOM      1  C   UNL     1       1.688   4.028  19.448  0.00  0.00    +0.000 A 
ATOM      2  N   UNL     1       1.970   2.841  18.871  0.00  0.00    +0.000 NA
ATOM      3  C   UNL     1       2.878   2.811  17.878  0.00  0.00    +0.000 A 
ATOM      4  N   UNL     1       3.581   3.835  17.366  0.00  0.00    +0.000 NA
ATOM      5  C   UNL     1       3.281   4.993  17.974  0.00  0.00    +0.000 A 
ATOM      6  C   UNL     1       2.367   5.173  19.009  0.00  0.00    +0.000 A 
ATOM      7  C   UNL     1       2.414   6.552  19.331  0.00  0.00    +0.000 A 
ATOM      8 BR   UNL     1       1.429   7.387  20.695  0.00  0.00    +0.000 Br
ATOM      9  C   UNL     1       3.311   7.179  18.501  0.00  0.00    +0.000 A 
ATOM     10  N   UNL     1       3.842   6.216  17.680  0.00  0.00    +0.000 N 
ENDROOT
BRANCH   1  11
ATOM     11  N   UNL     1       0.733   4.025  20.449  0.00  0.00    +0.000 N 
ATOM     12  H   UNL     1       1.038   4.527  21.272  0.00  0.00    +0.000 HD
ATOM     13  H   UNL     1      -0.225   4.158  20.148  0.00  0.00    +0.000 HD
ENDBRANCH   1  11
BRANCH  10  14
ATOM     14  C   UNL     1       4.849   6.450  16.662  0.00  0.00    +0.000 C 
BRANCH  14  15
ATOM     15  O   UNL     1       6.130   6.734  17.243  0.00  0.00    +0.000 OA
BRANCH  15  16
ATOM     16  C   UNL     1       6.729   5.648  17.990  0.00  0.00    +0.000 C 
BRANCH  16  17
ATOM     17  C   UNL     1       7.392   4.608  17.078  0.00  0.00    +0.000 C 
BRANCH  17  18
ATOM     18  O   UNL     1       8.490   3.976  17.731  0.00  0.00    +0.000 OA
ATOM     19  H   UNL     1       8.780   4.569  18.448  0.00  0.00    +0.000 HD
ENDBRANCH  17  18
ENDBRANCH  16  17
BRANCH  16  20
ATOM     20  C   UNL     1       7.775   6.267  18.932  0.00  0.00    +0.000 C 
BRANCH  20  21
ATOM     21  O   UNL     1       7.823   5.548  20.164  0.00  0.00    +0.000 OA
ATOM     22  H   UNL     1       7.936   6.221  20.860  0.00  0.00    +0.000 HD
ENDBRANCH  20  21
ENDBRANCH  16  20
ENDBRANCH  15  16
ENDBRANCH  14  15
ENDBRANCH  10  14
TORSDOF 8
ENDMDL
MODEL 3
REMARK VINA RESULT:      -6.0      3.467      5.832
REMARK  Name = 
REMARK  8 active torsions:
REMARK  status: ('A' for Active; 'I' for Inactive)
REMARK    1  A    between atoms: N_1  and  C_2
REMARK    2  A    between atoms: N_11  and  C_12
REMARK    3  A    between atoms: C_12  and  O_13
REMARK    4  A    between atoms: O_13  and  C_14
REMARK    5  A    between atoms: C_14  and  C_15
REMARK    6  A    between atoms: C_14  and  C_17
REMARK    7  A    between atoms: C_15  and  O_16
REMARK    8  A    between atoms: C_17  and  O_18
REMARK                            x       y       z     vdW  Elec       q    Type
REMARK                         _______ _______ _______ _____ _____    ______ ____
ROOT
ATOM      1  C   UNL     1       7.198   5.922  17.277  0.00  0.00    +0.000 A 
ATOM      2  N   UNL     1       7.679   6.287  18.484  0.00  0.00    +0.000 NA
ATOM      3  C   UNL     1       7.144   5.725  19.583  0.00  0.00    +0.000 A 
ATOM      4  N   UNL     1       6.168   4.806  19.653  0.00  0.00    +0.000 NA
ATOM      5  C   UNL     1       5.726   4.461  18.434  0.00  0.00    +0.000 A 
ATOM      6  C   UNL     1       6.182   4.958  17.216  0.00  0.00    +0.000 A 
ATOM      7  C   UNL     1       5.436   4.283  16.218  0.00  0.00    +0.000 A 
ATOM      8 BR   UNL     1       5.647   4.501  14.365  0.00  0.00    +0.000 Br
ATOM      9  C   UNL     1       4.548   3.425  16.822  0.00  0.00    +0.000 A 
ATOM     10  N   UNL     1       4.739   3.536  18.177  0.00  0.00    +0.000 N 
ENDROOT
BRANCH   1  11
ATOM     11  N   UNL     1       7.754   6.538  16.170  0.00  0.00    +0.000 N 
ATOM     12  H   UNL     1       7.738   7.547  16.243  0.00  0.00    +0.000 HD
ATOM     13  H   UNL     1       8.594   6.110  15.800  0.00  0.00    +0.000 HD
ENDBRANCH   1  11
BRANCH  10  14
ATOM     14  C   UNL     1       4.014   2.785  19.185  0.00  0.00    +0.000 C 
BRANCH  14  15
ATOM     15  O   UNL     1       2.675   3.274  19.346  0.00  0.00    +0.000 OA
BRANCH  15  16
ATOM     16  C   UNL     1       2.362   3.809  20.654  0.00  0.00    +0.000 C 
BRANCH  16  17
ATOM     17  C   UNL     1       2.057   5.312  20.612  0.00  0.00    +0.000 C 
BRANCH  17  18
ATOM     18  O   UNL     1       3.198   6.058  20.193  0.00  0.00    +0.000 OA
ATOM     19  H   UNL     1       3.437   5.744  19.302  0.00  0.00    +0.000 HD
ENDBRANCH  17  18
ENDBRANCH  16  17
BRANCH  16  20
ATOM     20  C   UNL     1       1.139   3.038  21.180  0.00  0.00    +0.000 C 
BRANCH  20  21
ATOM     21  O   UNL     1       1.479   2.314  22.363  0.00  0.00    +0.000 OA
ATOM     22  H   UNL     1       1.364   1.373  22.140  0.00  0.00    +0.000 HD
ENDBRANCH  20  21
ENDBRANCH  16  20
ENDBRANCH  15  16
ENDBRANCH  14  15
ENDBRANCH  10  14
TORSDOF 8
ENDMDL
MODEL 4
REMARK VINA RESULT:      -5.9      3.607      6.036
REMARK  Name = 
REMARK  8 active torsions:
REMARK  status: ('A' for Active; 'I' for Inactive)
REMARK    1  A    between atoms: N_1  and  C_2
REMARK    2  A    between atoms: N_11  and  C_12
REMARK    3  A    between atoms: C_12  and  O_13
REMARK    4  A    between atoms: O_13  and  C_14
REMARK    5  A    between atoms: C_14  and  C_15
REMARK    6  A    between atoms: C_14  and  C_17
REMARK    7  A    between atoms: C_15  and  O_16
REMARK    8  A    between atoms: C_17  and  O_18
REMARK                            x       y       z     vdW  Elec       q    Type
REMARK                         _______ _______ _______ _____ _____    ______ ____
ROOT
ATOM      1  C   UNL     1       7.212   5.805  17.211  0.00  0.00    +0.000 A 
ATOM      2  N   UNL     1       7.773   6.224  18.365  0.00  0.00    +0.000 NA
ATOM      3  C   UNL     1       7.238   5.804  19.527  0.00  0.00    +0.000 A 
ATOM      4  N   UNL     1       6.190   4.984  19.708  0.00  0.00    +0.000 NA
ATOM      5  C   UNL     1       5.670   4.581  18.539  0.00  0.00    +0.000 A 
ATOM      6  C   UNL     1       6.116   4.933  17.268  0.00  0.00    +0.000 A 
ATOM      7  C   UNL     1       5.274   4.248  16.358  0.00  0.00    +0.000 A 
ATOM      8 BR   UNL     1       5.426   4.292  14.487  0.00  0.00    +0.000 Br
ATOM      9  C   UNL     1       4.342   3.525  17.062  0.00  0.00    +0.000 A 
ATOM     10  N   UNL     1       4.597   3.729  18.396  0.00  0.00    +0.000 N 
ENDROOT
BRANCH   1  11
ATOM     11  N   UNL     1       7.773   6.276  16.037  0.00  0.00    +0.000 N 
ATOM     12  H   UNL     1       7.686   7.280  15.945  0.00  0.00    +0.000 HD
ATOM     13  H   UNL     1       8.655   5.857  15.768  0.00  0.00    +0.000 HD
ENDBRANCH   1  11
BRANCH  10  14
ATOM     14  C   UNL     1       3.854   3.131  19.488  0.00  0.00    +0.000 C 
BRANCH  14  15
ATOM     15  O   UNL     1       2.932   4.063  20.072  0.00  0.00    +0.000 OA
BRANCH  15  16
ATOM     16  C   UNL     1       1.547   3.643  20.085  0.00  0.00    +0.000 C 
BRANCH  16  17
ATOM     17  C   UNL     1       1.065   3.176  18.706  0.00  0.00    +0.000 C 
BRANCH  17  18
ATOM     18  O   UNL     1       0.868   1.764  18.680  0.00  0.00    +0.000 OA
ATOM     19  H   UNL     1       1.249   1.404  19.502  0.00  0.00    +0.000 HD
ENDBRANCH  17  18
ENDBRANCH  16  17
BRANCH  16  20
ATOM     20  C   UNL     1       1.429   2.494  21.101  0.00  0.00    +0.000 C 
BRANCH  20  21
ATOM     21  O   UNL     1       1.928   2.903  22.375  0.00  0.00    +0.000 OA
ATOM     22  H   UNL     1       1.377   2.445  23.035  0.00  0.00    +0.000 HD
ENDBRANCH  20  21
ENDBRANCH  16  20
ENDBRANCH  15  16
ENDBRANCH  14  15
ENDBRANCH  10  14
TORSDOF 8
ENDMDL
MODEL 5
REMARK VINA RESULT:      -5.9      3.529      5.830
REMARK  Name = 
REMARK  8 active torsions:
REMARK  status: ('A' for Active; 'I' for Inactive)
REMARK    1  A    between atoms: N_1  and  C_2
REMARK    2  A    between atoms: N_11  and  C_12
REMARK    3  A    between atoms: C_12  and  O_13
REMARK    4  A    between atoms: O_13  and  C_14
REMARK    5  A    between atoms: C_14  and  C_15
REMARK    6  A    between atoms: C_14  and  C_17
REMARK    7  A    between atoms: C_15  and  O_16
REMARK    8  A    between atoms: C_17  and  O_18
REMARK                            x       y       z     vdW  Elec       q    Type
REMARK                         _______ _______ _______ _____ _____    ______ ____
ROOT
ATOM      1  C   UNL     1       7.025   5.721  17.164  0.00  0.00    +0.000 A 
ATOM      2  N   UNL     1       7.412   6.094  18.401  0.00  0.00    +0.000 NA
ATOM      3  C   UNL     1       6.766   5.570  19.459  0.00  0.00    +0.000 A 
ATOM      4  N   UNL     1       5.758   4.683  19.459  0.00  0.00    +0.000 NA
ATOM      5  C   UNL     1       5.411   4.329  18.211  0.00  0.00    +0.000 A 
ATOM      6  C   UNL     1       5.987   4.788  17.030  0.00  0.00    +0.000 A 
ATOM      7  C   UNL     1       5.309   4.118  15.982  0.00  0.00    +0.000 A 
ATOM      8 BR   UNL     1       5.686   4.293  14.151  0.00  0.00    +0.000 Br
ATOM      9  C   UNL     1       4.344   3.300  16.520  0.00  0.00    +0.000 A 
ATOM     10  N   UNL     1       4.420   3.430  17.885  0.00  0.00    +0.000 N 
ENDROOT
BRANCH   1  11
ATOM     11  N   UNL     1       7.695   6.298  16.099  0.00  0.00    +0.000 N 
ATOM     12  H   UNL     1       8.589   6.685  16.372  0.00  0.00    +0.000 HD
ATOM     13  H   UNL     1       7.653   5.793  15.222  0.00  0.00    +0.000 HD
ENDBRANCH   1  11
BRANCH  10  14
ATOM     14  C   UNL     1       3.587   2.721  18.838  0.00  0.00    +0.000 C 
BRANCH  14  15
ATOM     15  O   UNL     1       2.226   3.172  18.786  0.00  0.00    +0.000 OA
BRANCH  15  16
ATOM     16  C   UNL     1       1.600   3.409  20.070  0.00  0.00    +0.000 C 
BRANCH  16  17
ATOM     17  C   UNL     1       2.343   2.715  21.219  0.00  0.00    +0.000 C 
BRANCH  17  18
ATOM     18  O   UNL     1       1.492   2.537  22.349  0.00  0.00    +0.000 OA
ATOM     19  H   UNL     1       0.650   2.985  22.150  0.00  0.00    +0.000 HD
ENDBRANCH  17  18
ENDBRANCH  16  17
BRANCH  16  20
ATOM     20  C   UNL     1       1.585   4.931  20.295  0.00  0.00    +0.000 C 
BRANCH  20  21
ATOM     21  O   UNL     1       2.485   5.287  21.344  0.00  0.00    +0.000 OA
ATOM     22  H   UNL     1       3.093   5.946  20.960  0.00  0.00    +0.000 HD
ENDBRANCH  20  21
ENDBRANCH  16  20
ENDBRANCH  15  16
ENDBRANCH  14  15
ENDBRANCH  10  14
TORSDOF 8
ENDMDL
MODEL 6
REMARK VINA RESULT:      -5.9      0.964      1.068
REMARK  Name = 
REMARK  8 active torsions:
REMARK  status: ('A' for Active; 'I' for Inactive)
REMARK    1  A    between atoms: N_1  and  C_2
REMARK    2  A    between atoms: N_11  and  C_12
REMARK    3  A    between atoms: C_12  and  O_13
REMARK    4  A    between atoms: O_13  and  C_14
REMARK    5  A    between atoms: C_14  and  C_15
REMARK    6  A    between atoms: C_14  and  C_17
REMARK    7  A    between atoms: C_15  and  O_16
REMARK    8  A    between atoms: C_17  and  O_18
REMARK                            x       y       z     vdW  Elec       q    Type
REMARK                         _______ _______ _______ _____ _____    ______ ____
ROOT
ATOM      1  C   UNL     1       1.716   3.184  19.708  0.00  0.00    +0.000 A 
ATOM      2  N   UNL     1       1.965   1.979  19.156  0.00  0.00    +0.000 NA
ATOM      3  C   UNL     1       2.797   1.917  18.100  0.00  0.00    +0.000 A 
ATOM      4  N   UNL     1       3.452   2.925  17.501  0.00  0.00    +0.000 NA
ATOM      5  C   UNL     1       3.187   4.104  18.087  0.00  0.00    +0.000 A 
ATOM      6  C   UNL     1       2.351   4.317  19.179  0.00  0.00    +0.000 A 
ATOM      7  C   UNL     1       2.408   5.707  19.447  0.00  0.00    +0.000 A 
ATOM      8 BR   UNL     1       1.520   6.585  20.848  0.00  0.00    +0.000 Br
ATOM      9  C   UNL     1       3.237   6.308  18.530  0.00  0.00    +0.000 A 
ATOM     10  N   UNL     1       3.715   5.318  17.708  0.00  0.00    +0.000 N 
ENDROOT
BRANCH   1  11
ATOM     11  N   UNL     1       0.836   3.213  20.776  0.00  0.00    +0.000 N 
ATOM     12  H   UNL     1       0.036   2.611  20.631  0.00  0.00    +0.000 HD
ATOM     13  H   UNL     1       1.257   3.215  21.697  0.00  0.00    +0.000 HD
ENDBRANCH   1  11
BRANCH  10  14
ATOM     14  C   UNL     1       4.642   5.520  16.611  0.00  0.00    +0.000 C 
BRANCH  14  15
ATOM     15  O   UNL     1       5.610   6.534  16.919  0.00  0.00    +0.000 OA
BRANCH  15  16
ATOM     16  C   UNL     1       6.995   6.127  16.806  0.00  0.00    +0.000 C 
BRANCH  16  17
ATOM     17  C   UNL     1       7.576   5.653  18.145  0.00  0.00    +0.000 C 
BRANCH  17  18
ATOM     18  O   UNL     1       7.597   4.230  18.223  0.00  0.00    +0.000 OA
ATOM     19  H   UNL     1       7.128   3.978  19.039  0.00  0.00    +0.000 HD
ENDBRANCH  17  18
ENDBRANCH  16  17
BRANCH  16  20
ATOM     20  C   UNL     1       7.052   4.987  15.775  0.00  0.00    +0.000 C 
BRANCH  20  21
ATOM     21  O   UNL     1       7.801   5.389  14.629  0.00  0.00    +0.000 OA
ATOM     22  H   UNL     1       7.452   6.264  14.377  0.00  0.00    +0.000 HD
ENDBRANCH  20  21
ENDBRANCH  16  20
ENDBRANCH  15  16
ENDBRANCH  14  15
ENDBRANCH  10  14
TORSDOF 8
ENDMDL
MODEL 7
REMARK VINA RESULT:      -5.8      3.576      5.901
REMARK  Name = 
REMARK  8 active torsions:
REMARK  status: ('A' for Active; 'I' for Inactive)
REMARK    1  A    between atoms: N_1  and  C_2
REMARK    2  A    between atoms: N_11  and  C_12
REMARK    3  A    between atoms: C_12  and  O_13
REMARK    4  A    between atoms: O_13  and  C_14
REMARK    5  A    between atoms: C_14  and  C_15
REMARK    6  A    between atoms: C_14  and  C_17
REMARK    7  A    between atoms: C_15  and  O_16
REMARK    8  A    between atoms: C_17  and  O_18
REMARK                            x       y       z     vdW  Elec       q    Type
REMARK                         _______ _______ _______ _____ _____    ______ ____
ROOT
ATOM      1  C   UNL     1       7.218   5.864  17.297  0.00  0.00    +0.000 A 
ATOM      2  N   UNL     1       7.751   6.260  18.471  0.00  0.00    +0.000 NA
ATOM      3  C   UNL     1       7.256   5.737  19.608  0.00  0.00    +0.000 A 
ATOM      4  N   UNL     1       6.275   4.830  19.745  0.00  0.00    +0.000 NA
ATOM      5  C   UNL     1       5.780   4.454  18.555  0.00  0.00    +0.000 A 
ATOM      6  C   UNL     1       6.192   4.909  17.306  0.00  0.00    +0.000 A 
ATOM      7  C   UNL     1       5.400   4.213  16.359  0.00  0.00    +0.000 A 
ATOM      8 BR   UNL     1       5.537   4.373  14.494  0.00  0.00    +0.000 Br
ATOM      9  C   UNL     1       4.529   3.383  17.024  0.00  0.00    +0.000 A 
ATOM     10  N   UNL     1       4.775   3.532  18.366  0.00  0.00    +0.000 N 
ENDROOT
BRANCH   1  11
ATOM     11  N   UNL     1       7.735   6.441  16.150  0.00  0.00    +0.000 N 
ATOM     12  H   UNL     1       7.041   6.532  15.419  0.00  0.00    +0.000 HD
ATOM     13  H   UNL     1       8.369   7.218  16.291  0.00  0.00    +0.000 HD
ENDBRANCH   1  11
BRANCH  10  14
ATOM     14  C   UNL     1       4.085   2.819  19.424  0.00  0.00    +0.000 C 
BRANCH  14  15
ATOM     15  O   UNL     1       3.160   3.669  20.117  0.00  0.00    +0.000 OA
BRANCH  15  16
ATOM     16  C   UNL     1       1.794   3.622  19.640  0.00  0.00    +0.000 C 
BRANCH  16  17
ATOM     17  C   UNL     1       1.503   4.708  18.596  0.00  0.00    +0.000 C 
BRANCH  17  18
ATOM     18  O   UNL     1       1.170   4.134  17.334  0.00  0.00    +0.000 OA
ATOM     19  H   UNL     1       1.921   4.298  16.735  0.00  0.00    +0.000 HD
ENDBRANCH  17  18
ENDBRANCH  16  17
BRANCH  16  20
ATOM     20  C   UNL     1       1.574   2.229  19.026  0.00  0.00    +0.000 C 
BRANCH  20  21
ATOM     21  O   UNL     1       0.190   2.023  18.743  0.00  0.00    +0.000 OA
ATOM     22  H   UNL     1       0.075   1.058  18.669  0.00  0.00    +0.000 HD
ENDBRANCH  20  21
ENDBRANCH  16  20
ENDBRANCH  15  16
ENDBRANCH  14  15
ENDBRANCH  10  14
TORSDOF 8
ENDMDL
MODEL 8
REMARK VINA RESULT:      -5.8      3.510      5.879
REMARK  Name = 
REMARK  8 active torsions:
REMARK  status: ('A' for Active; 'I' for Inactive)
REMARK    1  A    between atoms: N_1  and  C_2
REMARK    2  A    between atoms: N_11  and  C_12
REMARK    3  A    between atoms: C_12  and  O_13
REMARK    4  A    between atoms: O_13  and  C_14
REMARK    5  A    between atoms: C_14  and  C_15
REMARK    6  A    between atoms: C_14  and  C_17
REMARK    7  A    between atoms: C_15  and  O_16
REMARK    8  A    between atoms: C_17  and  O_18
REMARK                            x       y       z     vdW  Elec       q    Type
REMARK                         _______ _______ _______ _____ _____    ______ ____
ROOT
ATOM      1  C   UNL     1       7.231   5.875  17.297  0.00  0.00    +0.000 A 
ATOM      2  N   UNL     1       7.802   6.266  18.455  0.00  0.00    +0.000 NA
ATOM      3  C   UNL     1       7.346   5.734  19.605  0.00  0.00    +0.000 A 
ATOM      4  N   UNL     1       6.373   4.823  19.769  0.00  0.00    +0.000 NA
ATOM      5  C   UNL     1       5.841   4.452  18.594  0.00  0.00    +0.000 A 
ATOM      6  C   UNL     1       6.209   4.916  17.334  0.00  0.00    +0.000 A 
ATOM      7  C   UNL     1       5.389   4.222  16.411  0.00  0.00    +0.000 A 
ATOM      8 BR   UNL     1       5.464   4.393  14.543  0.00  0.00    +0.000 Br
ATOM      9  C   UNL     1       4.543   3.385  17.099  0.00  0.00    +0.000 A 
ATOM     10  N   UNL     1       4.833   3.528  18.433  0.00  0.00    +0.000 N 
ENDROOT
BRANCH   1  11
ATOM     11  N   UNL     1       7.708   6.459  16.137  0.00  0.00    +0.000 N 
ATOM     12  H   UNL     1       8.706   6.335  16.026  0.00  0.00    +0.000 HD
ATOM     13  H   UNL     1       7.129   6.348  15.313  0.00  0.00    +0.000 HD
ENDBRANCH   1  11
BRANCH  10  14
ATOM     14  C   UNL     1       4.181   2.806  19.510  0.00  0.00    +0.000 C 
BRANCH  14  15
ATOM     15  O   UNL     1       2.998   2.134  19.053  0.00  0.00    +0.000 OA
BRANCH  15  16
ATOM     16  C   UNL     1       1.781   2.465  19.765  0.00  0.00    +0.000 C 
BRANCH  16  17
ATOM     17  C   UNL     1       2.018   2.662  21.268  0.00  0.00    +0.000 C 
BRANCH  17  18
ATOM     18  O   UNL     1       2.009   4.045  21.614  0.00  0.00    +0.000 OA
ATOM     19  H   UNL     1       2.860   4.421  21.324  0.00  0.00    +0.000 HD
ENDBRANCH  17  18
ENDBRANCH  16  17
BRANCH  16  20
ATOM     20  C   UNL     1       1.229   3.760  19.145  0.00  0.00    +0.000 C 
BRANCH  20  21
ATOM     21  O   UNL     1       1.133   3.631  17.726  0.00  0.00    +0.000 OA
ATOM     22  H   UNL     1       2.026   3.813  17.382  0.00  0.00    +0.000 HD
ENDBRANCH  20  21
ENDBRANCH  16  20
ENDBRANCH  15  16
ENDBRANCH  14  15
ENDBRANCH  10  14
TORSDOF 8
ENDMDL
MODEL 9
REMARK VINA RESULT:      -5.8      0.959      1.370
REMARK  Name = 
REMARK  8 active torsions:
REMARK  status: ('A' for Active; 'I' for Inactive)
REMARK    1  A    between atoms: N_1  and  C_2
REMARK    2  A    between atoms: N_11  and  C_12
REMARK    3  A    between atoms: C_12  and  O_13
REMARK    4  A    between atoms: O_13  and  C_14
REMARK    5  A    between atoms: C_14  and  C_15
REMARK    6  A    between atoms: C_14  and  C_17
REMARK    7  A    between atoms: C_15  and  O_16
REMARK    8  A    between atoms: C_17  and  O_18
REMARK                            x       y       z     vdW  Elec       q    Type
REMARK                         _______ _______ _______ _____ _____    ______ ____
ROOT
ATOM      1  C   UNL     1       1.541   3.360  19.532  0.00  0.00    +0.000 A 
ATOM      2  N   UNL     1       1.716   2.128  19.011  0.00  0.00    +0.000 NA
ATOM      3  C   UNL     1       2.687   1.951  18.096  0.00  0.00    +0.000 A 
ATOM      4  N   UNL     1       3.552   2.861  17.618  0.00  0.00    +0.000 NA
ATOM      5  C   UNL     1       3.353   4.068  18.170  0.00  0.00    +0.000 A 
ATOM      6  C   UNL     1       2.392   4.397  19.121  0.00  0.00    +0.000 A 
ATOM      7  C   UNL     1       2.586   5.770  19.411  0.00  0.00    +0.000 A 
ATOM      8 BR   UNL     1       1.611   6.767  20.668  0.00  0.00    +0.000 Br
ATOM      9  C   UNL     1       3.618   6.251  18.642  0.00  0.00    +0.000 A 
ATOM     10  N   UNL     1       4.086   5.201  17.891  0.00  0.00    +0.000 N 
ENDROOT
BRANCH   1  11
ATOM     11  N   UNL     1       0.518   3.511  20.451  0.00  0.00    +0.000 N 
ATOM     12  H   UNL     1       0.864   3.675  21.387  0.00  0.00    +0.000 HD
ATOM     13  H   UNL     1      -0.277   4.058  20.144  0.00  0.00    +0.000 HD
ENDBRANCH   1  11
BRANCH  10  14
ATOM     14  C   UNL     1       5.190   5.273  16.954  0.00  0.00    +0.000 C 
BRANCH  14  15
ATOM     15  O   UNL     1       6.337   4.556  17.435  0.00  0.00    +0.000 OA
BRANCH  15  16
ATOM     16  C   UNL     1       7.418   5.378  17.937  0.00  0.00    +0.000 C 
BRANCH  16  17
ATOM     17  C   UNL     1       7.441   6.771  17.294  0.00  0.00    +0.000 C 
BRANCH  17  18
ATOM     18  O   UNL     1       8.017   7.735  18.172  0.00  0.00    +0.000 OA
ATOM     19  H   UNL     1       8.584   7.251  18.800  0.00  0.00    +0.000 HD
ENDBRANCH  17  18
ENDBRANCH  16  17
BRANCH  16  20
ATOM     20  C   UNL     1       7.225   5.504  19.458  0.00  0.00    +0.000 C 
BRANCH  20  21
ATOM     21  O   UNL     1       8.478   5.380  20.131  0.00  0.00    +0.000 OA
ATOM     22  H   UNL     1       8.472   6.059  20.830  0.00  0.00    +0.000 HD
ENDBRANCH  20  21
ENDBRANCH  16  20
ENDBRANCH  15  16
ENDBRANCH  14  15
ENDBRANCH  10  14
TORSDOF 8
ENDMDL
