MODEL 1
REMARK VINA RESULT:      -8.3      0.000      0.000
REMARK  Name = 
REMARK  4 active torsions:
REMARK  status: ('A' for Active; 'I' for Inactive)
REMARK    1  A    between atoms: O_1  and  C_2
REMARK    2  A    between atoms: C_5  and  C_6
REMARK    3  A    between atoms: C_6  and  N_7
REMARK    4  A    between atoms: N_7  and  C_8
REMARK                            x       y       z     vdW  Elec       q    Type
REMARK                         _______ _______ _______ _____ _____    ______ ____
ROOT
ATOM      1  C   UNL     1       1.589   3.119  20.034  0.00  0.00    +0.000 A 
ATOM      2  C   UNL     1       2.047   2.079  19.227  0.00  0.00    +0.000 A 
ATOM      3  C   UNL     1       2.857   2.363  18.133  0.00  0.00    +0.000 A 
ATOM      4  C   UNL     1       3.213   3.689  17.830  0.00  0.00    +0.000 A 
ATOM      5  C   UNL     1       2.730   4.746  18.660  0.00  0.00    +0.000 A 
ATOM      6  C   UNL     1       3.020   6.108  18.428  0.00  0.00    +0.000 A 
ATOM      7  C   UNL     1       2.547   7.099  19.279  0.00  0.00    +0.000 A 
ATOM      8  C   UNL     1       1.774   6.711  20.347  0.00  0.00    +0.000 A 
ATOM      9  N   UNL     1       1.449   5.429  20.601  0.00  0.00    +0.000 NA
ATOM     10  C   UNL     1       1.915   4.459  19.783  0.00  0.00    +0.000 A 
ENDROOT
BRANCH   1  11
ATOM     11  O   UNL     1       0.786   2.820  21.109  0.00  0.00    +0.000 OA
ATOM     12  H   UNL     1       0.033   2.283  20.816  0.00  0.00    +0.000 HD
ENDBRANCH   1  11
BRANCH   4  13
ATOM     13  C   UNL     1       4.044   3.948  16.582  0.00  0.00    +0.000 C 
BRANCH  13  14
ATOM     14  N   UNL     1       5.465   3.749  16.837  0.00  0.00    +0.000 N 
ATOM     15  H   UNL     1       5.955   3.319  16.053  0.00  0.00    +0.000 HD
BRANCH  14  16
ATOM     16  C   UNL     1       6.226   4.794  17.385  0.00  0.00    +0.000 A 
ATOM     17  C   UNL     1       6.999   4.661  18.548  0.00  0.00    +0.000 A 
ATOM     18  C   UNL     1       7.789   5.721  19.008  0.00  0.00    +0.000 A 
ATOM     19  C   UNL     1       7.839   6.911  18.293  0.00  0.00    +0.000 A 
ATOM     20  F   UNL     1       8.599   7.918  18.740  0.00  0.00    +0.000 F 
ATOM     21  C   UNL     1       7.120   7.064  17.119  0.00  0.00    +0.000 A 
ATOM     22  C   UNL     1       6.338   6.006  16.672  0.00  0.00    +0.000 A 
ATOM     23  F   UNL     1       5.648   6.158  15.530  0.00  0.00    +0.000 F 
ENDBRANCH  14  16
ENDBRANCH  13  14
ENDBRANCH   4  13
TORSDOF 4
ENDMDL
MODEL 2
REMARK VINA RESULT:      -8.0      3.677      6.558
REMARK  Name = 
REMARK  4 active torsions:
REMARK  status: ('A' for Active; 'I' for Inactive)
REMARK    1  A    between atoms: O_1  and  C_2
REMARK    2  A    between atoms: C_5  and  C_6
REMARK    3  A    between atoms: C_6  and  N_7
REMARK    4  A    between atoms: N_7  and  C_8
REMARK                            x       y       z     vdW  Elec       q    Type
REMARK                         _______ _______ _______ _____ _____    ______ ____
ROOT
ATOM      1  C   UNL     1       6.842   6.266  16.777  0.00  0.00    +0.000 A 
ATOM      2  C   UNL     1       5.977   6.230  17.870  0.00  0.00    +0.000 A 
ATOM      3  C   UNL     1       4.888   5.366  17.855  0.00  0.00    +0.000 A 
ATOM      4  C   UNL     1       4.647   4.533  16.748  0.00  0.00    +0.000 A 
ATOM      5  C   UNL     1       5.537   4.586  15.632  0.00  0.00    +0.000 A 
ATOM      6  C   UNL     1       5.370   3.802  14.471  0.00  0.00    +0.000 A 
ATOM      7  C   UNL     1       6.276   3.871  13.420  0.00  0.00    +0.000 A 
ATOM      8  C   UNL     1       7.334   4.740  13.543  0.00  0.00    +0.000 A 
ATOM      9  N   UNL     1       7.527   5.526  14.618  0.00  0.00    +0.000 NA
ATOM     10  C   UNL     1       6.655   5.456  15.648  0.00  0.00    +0.000 A 
ENDROOT
BRANCH   1  11
ATOM     11  O   UNL     1       7.912   7.129  16.806  0.00  0.00    +0.000 OA
ATOM     12  H   UNL     1       8.179   7.350  15.900  0.00  0.00    +0.000 HD
ENDBRANCH   1  11
BRANCH   4  13
ATOM     13  C   UNL     1       3.403   3.659  16.758  0.00  0.00    +0.000 C 
BRANCH  13  14
ATOM     14  N   UNL     1       3.509   2.591  17.744  0.00  0.00    +0.000 N 
ATOM     15  H   UNL     1       4.473   2.306  17.921  0.00  0.00    +0.000 HD
BRANCH  14  16
ATOM     16  C   UNL     1       2.787   2.679  18.945  0.00  0.00    +0.000 A 
ATOM     17  C   UNL     1       1.392   2.804  19.002  0.00  0.00    +0.000 A 
ATOM     18  C   UNL     1       0.723   2.821  20.231  0.00  0.00    +0.000 A 
ATOM     19  C   UNL     1       1.440   2.679  21.413  0.00  0.00    +0.000 A 
ATOM     20  F   UNL     1       0.792   2.694  22.583  0.00  0.00    +0.000 F 
ATOM     21  C   UNL     1       2.815   2.513  21.393  0.00  0.00    +0.000 A 
ATOM     22  C   UNL     1       3.469   2.500  20.166  0.00  0.00    +0.000 A 
ATOM     23  F   UNL     1       4.801   2.332  20.153  0.00  0.00    +0.000 F 
ENDBRANCH  14  16
ENDBRANCH  13  14
ENDBRANCH   4  13
TORSDOF 4
ENDMDL
MODEL 3
REMARK VINA RESULT:      -8.0      1.288      2.461
REMARK  Name = 
REMARK  4 active torsions:
REMARK  status: ('A' for Active; 'I' for Inactive)
REMARK    1  A    between atoms: O_1  and  C_2
REMARK    2  A    between atoms: C_5  and  C_6
REMARK    3  A    between atoms: C_6  and  N_7
REMARK    4  A    between atoms: N_7  and  C_8
REMARK                            x       y       z     vdW  Elec       q    Type
REMARK                         _______ _______ _______ _____ _____    ______ ____
ROOT
ATOM      1  C   UNL     1       2.332   6.447  19.900  0.00  0.00    +0.000 A 
ATOM      2  C   UNL     1       2.695   7.000  18.673  0.00  0.00    +0.000 A 
ATOM      3  C   UNL     1       3.213   6.181  17.677  0.00  0.00    +0.000 A 
ATOM      4  C   UNL     1       3.381   4.802  17.896  0.00  0.00    +0.000 A 
ATOM      5  C   UNL     1       3.012   4.250  19.161  0.00  0.00    +0.000 A 
ATOM      6  C   UNL     1       3.157   2.883  19.481  0.00  0.00    +0.000 A 
ATOM      7  C   UNL     1       2.761   2.388  20.716  0.00  0.00    +0.000 A 
ATOM      8  C   UNL     1       2.237   3.276  21.624  0.00  0.00    +0.000 A 
ATOM      9  N   UNL     1       2.098   4.592  21.379  0.00  0.00    +0.000 NA
ATOM     10  C   UNL     1       2.472   5.079  20.175  0.00  0.00    +0.000 A 
ENDROOT
BRANCH   1  11
ATOM     11  O   UNL     1       1.824   7.272  20.876  0.00  0.00    +0.000 OA
ATOM     12  H   UNL     1       0.987   7.660  20.573  0.00  0.00    +0.000 HD
ENDBRANCH   1  11
BRANCH   4  13
ATOM     13  C   UNL     1       4.016   3.966  16.796  0.00  0.00    +0.000 C 
BRANCH  13  14
ATOM     14  N   UNL     1       5.438   3.756  17.039  0.00  0.00    +0.000 N 
ATOM     15  H   UNL     1       5.911   3.290  16.264  0.00  0.00    +0.000 HD
BRANCH  14  16
ATOM     16  C   UNL     1       6.221   4.809  17.539  0.00  0.00    +0.000 A 
ATOM     17  C   UNL     1       6.790   4.809  18.821  0.00  0.00    +0.000 A 
ATOM     18  C   UNL     1       7.617   5.859  19.238  0.00  0.00    +0.000 A 
ATOM     19  C   UNL     1       7.909   6.900  18.366  0.00  0.00    +0.000 A 
ATOM     20  F   UNL     1       8.702   7.898  18.773  0.00  0.00    +0.000 F 
ATOM     21  C   UNL     1       7.397   6.913  17.079  0.00  0.00    +0.000 A 
ATOM     22  C   UNL     1       6.576   5.866  16.676  0.00  0.00    +0.000 A 
ATOM     23  F   UNL     1       6.089   5.881  15.425  0.00  0.00    +0.000 F 
ENDBRANCH  14  16
ENDBRANCH  13  14
ENDBRANCH   4  13
TORSDOF 4
ENDMDL
MODEL 4
REMARK VINA RESULT:      -7.8      1.538      2.836
REMARK  Name = 
REMARK  4 active torsions:
REMARK  status: ('A' for Active; 'I' for Inactive)
REMARK    1  A    between atoms: O_1  and  C_2
REMARK    2  A    between atoms: C_5  and  C_6
REMARK    3  A    between atoms: C_6  and  N_7
REMARK    4  A    between atoms: N_7  and  C_8
REMARK                            x       y       z     vdW  Elec       q    Type
REMARK                         _______ _______ _______ _____ _____    ______ ____
ROOT
ATOM      1  C   UNL     1       2.156   6.339  19.946  0.00  0.00    +0.000 A 
ATOM      2  C   UNL     1       2.741   7.000  18.868  0.00  0.00    +0.000 A 
ATOM      3  C   UNL     1       3.218   6.266  17.788  0.00  0.00    +0.000 A 
ATOM      4  C   UNL     1       3.122   4.863  17.776  0.00  0.00    +0.000 A 
ATOM      5  C   UNL     1       2.528   4.198  18.891  0.00  0.00    +0.000 A 
ATOM      6  C   UNL     1       2.401   2.795  18.978  0.00  0.00    +0.000 A 
ATOM      7  C   UNL     1       1.792   2.194  20.073  0.00  0.00    +0.000 A 
ATOM      8  C   UNL     1       1.332   3.011  21.077  0.00  0.00    +0.000 A 
ATOM      9  N   UNL     1       1.448   4.352  21.055  0.00  0.00    +0.000 NA
ATOM     10  C   UNL     1       2.029   4.943  19.988  0.00  0.00    +0.000 A 
ENDROOT
BRANCH   1  11
ATOM     11  O   UNL     1       1.693   7.080  21.008  0.00  0.00    +0.000 OA
ATOM     12  H   UNL     1       0.724   7.124  20.977  0.00  0.00    +0.000 HD
ENDBRANCH   1  11
BRANCH   4  13
ATOM     13  C   UNL     1       3.722   4.107  16.601  0.00  0.00    +0.000 C 
BRANCH  13  14
ATOM     14  N   UNL     1       5.096   3.703  16.872  0.00  0.00    +0.000 N 
ATOM     15  H   UNL     1       5.495   3.124  16.132  0.00  0.00    +0.000 HD
BRANCH  14  16
ATOM     16  C   UNL     1       6.027   4.657  17.314  0.00  0.00    +0.000 A 
ATOM     17  C   UNL     1       6.598   5.627  16.477  0.00  0.00    +0.000 A 
ATOM     18  C   UNL     1       7.470   6.593  16.991  0.00  0.00    +0.000 A 
ATOM     19  C   UNL     1       7.754   6.619  18.351  0.00  0.00    +0.000 A 
ATOM     20  F   UNL     1       8.588   7.548  18.833  0.00  0.00    +0.000 F 
ATOM     21  C   UNL     1       7.178   5.701  19.214  0.00  0.00    +0.000 A 
ATOM     22  C   UNL     1       6.313   4.745  18.692  0.00  0.00    +0.000 A 
ATOM     23  F   UNL     1       5.752   3.862  19.534  0.00  0.00    +0.000 F 
ENDBRANCH  14  16
ENDBRANCH  13  14
ENDBRANCH   4  13
TORSDOF 4
ENDMDL
MODEL 5
REMARK VINA RESULT:      -7.8      3.403      5.687
REMARK  Name = 
REMARK  4 active torsions:
REMARK  status: ('A' for Active; 'I' for Inactive)
REMARK    1  A    between atoms: O_1  and  C_2
REMARK    2  A    between atoms: C_5  and  C_6
REMARK    3  A    between atoms: C_6  and  N_7
REMARK    4  A    between atoms: N_7  and  C_8
REMARK                            x       y       z     vdW  Elec       q    Type
REMARK                         _______ _______ _______ _____ _____    ______ ____
ROOT
ATOM      1  C   UNL     1       6.912   5.051  15.297  0.00  0.00    +0.000 A 
ATOM      2  C   UNL     1       5.953   4.296  14.624  0.00  0.00    +0.000 A 
ATOM      3  C   UNL     1       4.918   3.704  15.340  0.00  0.00    +0.000 A 
ATOM      4  C   UNL     1       4.835   3.853  16.735  0.00  0.00    +0.000 A 
ATOM      5  C   UNL     1       5.829   4.622  17.413  0.00  0.00    +0.000 A 
ATOM      6  C   UNL     1       5.839   4.816  18.811  0.00  0.00    +0.000 A 
ATOM      7  C   UNL     1       6.814   5.593  19.423  0.00  0.00    +0.000 A 
ATOM      8  C   UNL     1       7.780   6.156  18.622  0.00  0.00    +0.000 A 
ATOM      9  N   UNL     1       7.830   5.984  17.288  0.00  0.00    +0.000 NA
ATOM     10  C   UNL     1       6.878   5.238  16.686  0.00  0.00    +0.000 A 
ENDROOT
BRANCH   1  11
ATOM     11  O   UNL     1       7.930   5.627  14.574  0.00  0.00    +0.000 OA
ATOM     12  H   UNL     1       8.744   5.109  14.684  0.00  0.00    +0.000 HD
ENDBRANCH   1  11
BRANCH   4  13
ATOM     13  C   UNL     1       3.722   3.127  17.475  0.00  0.00    +0.000 C 
BRANCH  13  14
ATOM     14  N   UNL     1       2.494   3.911  17.495  0.00  0.00    +0.000 N 
ATOM     15  H   UNL     1       1.652   3.336  17.467  0.00  0.00    +0.000 HD
BRANCH  14  16
ATOM     16  C   UNL     1       2.351   4.956  18.422  0.00  0.00    +0.000 A 
ATOM     17  C   UNL     1       2.545   6.307  18.101  0.00  0.00    +0.000 A 
ATOM     18  C   UNL     1       2.323   7.310  19.053  0.00  0.00    +0.000 A 
ATOM     19  C   UNL     1       1.871   6.972  20.323  0.00  0.00    +0.000 A 
ATOM     20  F   UNL     1       1.659   7.937  21.225  0.00  0.00    +0.000 F 
ATOM     21  C   UNL     1       1.630   5.651  20.663  0.00  0.00    +0.000 A 
ATOM     22  C   UNL     1       1.855   4.665  19.710  0.00  0.00    +0.000 A 
ATOM     23  F   UNL     1       1.613   3.386  20.043  0.00  0.00    +0.000 F 
ENDBRANCH  14  16
ENDBRANCH  13  14
ENDBRANCH   4  13
TORSDOF 4
ENDMDL
MODEL 6
REMARK VINA RESULT:      -7.8      3.218      6.034
REMARK  Name = 
REMARK  4 active torsions:
REMARK  status: ('A' for Active; 'I' for Inactive)
REMARK    1  A    between atoms: O_1  and  C_2
REMARK    2  A    between atoms: C_5  and  C_6
REMARK    3  A    between atoms: C_6  and  N_7
REMARK    4  A    between atoms: N_7  and  C_8
REMARK                            x       y       z     vdW  Elec       q    Type
REMARK                         _______ _______ _______ _____ _____    ______ ____
ROOT
ATOM      1  C   UNL     1       7.423   4.661  17.945  0.00  0.00    +0.000 A 
ATOM      2  C   UNL     1       6.839   5.087  19.137  0.00  0.00    +0.000 A 
ATOM      3  C   UNL     1       5.613   5.744  19.104  0.00  0.00    +0.000 A 
ATOM      4  C   UNL     1       4.962   5.987  17.882  0.00  0.00    +0.000 A 
ATOM      5  C   UNL     1       5.576   5.552  16.668  0.00  0.00    +0.000 A 
ATOM      6  C   UNL     1       5.008   5.763  15.394  0.00  0.00    +0.000 A 
ATOM      7  C   UNL     1       5.632   5.299  14.243  0.00  0.00    +0.000 A 
ATOM      8  C   UNL     1       6.830   4.640  14.384  0.00  0.00    +0.000 A 
ATOM      9  N   UNL     1       7.426   4.432  15.573  0.00  0.00    +0.000 NA
ATOM     10  C   UNL     1       6.819   4.872  16.698  0.00  0.00    +0.000 A 
ENDROOT
BRANCH   1  11
ATOM     11  O   UNL     1       8.637   4.017  17.995  0.00  0.00    +0.000 OA
ATOM     12  H   UNL     1       8.586   3.269  18.612  0.00  0.00    +0.000 HD
ENDBRANCH   1  11
BRANCH   4  13
ATOM     13  C   UNL     1       3.658   6.769  17.900  0.00  0.00    +0.000 C 
BRANCH  13  14
ATOM     14  N   UNL     1       2.503   5.881  17.865  0.00  0.00    +0.000 N 
ATOM     15  H   UNL     1       2.360   5.448  16.952  0.00  0.00    +0.000 HD
BRANCH  14  16
ATOM     16  C   UNL     1       2.313   4.945  18.894  0.00  0.00    +0.000 A 
ATOM     17  C   UNL     1       2.129   5.300  20.238  0.00  0.00    +0.000 A 
ATOM     18  C   UNL     1       1.878   4.324  21.209  0.00  0.00    +0.000 A 
ATOM     19  C   UNL     1       1.775   2.988  20.840  0.00  0.00    +0.000 A 
ATOM     20  F   UNL     1       1.532   2.062  21.775  0.00  0.00    +0.000 F 
ATOM     21  C   UNL     1       1.911   2.605  19.516  0.00  0.00    +0.000 A 
ATOM     22  C   UNL     1       2.161   3.584  18.560  0.00  0.00    +0.000 A 
ATOM     23  F   UNL     1       2.286   3.207  17.277  0.00  0.00    +0.000 F 
ENDBRANCH  14  16
ENDBRANCH  13  14
ENDBRANCH   4  13
TORSDOF 4
ENDMDL
MODEL 7
REMARK VINA RESULT:      -7.8      3.138      5.527
REMARK  Name = 
REMARK  4 active torsions:
REMARK  status: ('A' for Active; 'I' for Inactive)
REMARK    1  A    between atoms: O_1  and  C_2
REMARK    2  A    between atoms: C_5  and  C_6
REMARK    3  A    between atoms: C_6  and  N_7
REMARK    4  A    between atoms: N_7  and  C_8
REMARK                            x       y       z     vdW  Elec       q    Type
REMARK                         _______ _______ _______ _____ _____    ______ ____
ROOT
ATOM      1  C   UNL     1       6.930   5.049  15.279  0.00  0.00    +0.000 A 
ATOM      2  C   UNL     1       5.980   4.278  14.612  0.00  0.00    +0.000 A 
ATOM      3  C   UNL     1       4.954   3.678  15.333  0.00  0.00    +0.000 A 
ATOM      4  C   UNL     1       4.869   3.835  16.727  0.00  0.00    +0.000 A 
ATOM      5  C   UNL     1       5.855   4.622  17.399  0.00  0.00    +0.000 A 
ATOM      6  C   UNL     1       5.863   4.825  18.795  0.00  0.00    +0.000 A 
ATOM      7  C   UNL     1       6.829   5.619  19.401  0.00  0.00    +0.000 A 
ATOM      8  C   UNL     1       7.786   6.188  18.596  0.00  0.00    +0.000 A 
ATOM      9  N   UNL     1       7.837   6.008  17.263  0.00  0.00    +0.000 NA
ATOM     10  C   UNL     1       6.895   5.246  16.667  0.00  0.00    +0.000 A 
ENDROOT
BRANCH   1  11
ATOM     11  O   UNL     1       7.941   5.634  14.551  0.00  0.00    +0.000 OA
ATOM     12  H   UNL     1       8.658   5.903  15.146  0.00  0.00    +0.000 HD
ENDBRANCH   1  11
BRANCH   4  13
ATOM     13  C   UNL     1       3.766   3.100  17.473  0.00  0.00    +0.000 C 
BRANCH  13  14
ATOM     14  N   UNL     1       2.510   3.838  17.430  0.00  0.00    +0.000 N 
ATOM     15  H   UNL     1       1.709   3.248  17.202  0.00  0.00    +0.000 HD
BRANCH  14  16
ATOM     16  C   UNL     1       2.192   4.730  18.467  0.00  0.00    +0.000 A 
ATOM     17  C   UNL     1       1.645   4.327  19.693  0.00  0.00    +0.000 A 
ATOM     18  C   UNL     1       1.411   5.257  20.714  0.00  0.00    +0.000 A 
ATOM     19  C   UNL     1       1.754   6.591  20.529  0.00  0.00    +0.000 A 
ATOM     20  F   UNL     1       1.529   7.472  21.511  0.00  0.00    +0.000 F 
ATOM     21  C   UNL     1       2.334   7.017  19.346  0.00  0.00    +0.000 A 
ATOM     22  C   UNL     1       2.560   6.085  18.339  0.00  0.00    +0.000 A 
ATOM     23  F   UNL     1       3.129   6.503  17.197  0.00  0.00    +0.000 F 
ENDBRANCH  14  16
ENDBRANCH  13  14
ENDBRANCH   4  13
TORSDOF 4
ENDMDL
MODEL 8
REMARK VINA RESULT:      -7.7      3.760      6.459
REMARK  Name = 
REMARK  4 active torsions:
REMARK  status: ('A' for Active; 'I' for Inactive)
REMARK    1  A    between atoms: O_1  and  C_2
REMARK    2  A    between atoms: C_5  and  C_6
REMARK    3  A    between atoms: C_6  and  N_7
REMARK    4  A    between atoms: N_7  and  C_8
REMARK                            x       y       z     vdW  Elec       q    Type
REMARK                         _______ _______ _______ _____ _____    ______ ____
ROOT
ATOM      1  C   UNL     1       6.845   6.367  16.905  0.00  0.00    +0.000 A 
ATOM      2  C   UNL     1       5.969   6.382  17.989  0.00  0.00    +0.000 A 
ATOM      3  C   UNL     1       4.855   5.550  17.985  0.00  0.00    +0.000 A 
ATOM      4  C   UNL     1       4.600   4.699  16.896  0.00  0.00    +0.000 A 
ATOM      5  C   UNL     1       5.501   4.699  15.788  0.00  0.00    +0.000 A 
ATOM      6  C   UNL     1       5.322   3.892  14.644  0.00  0.00    +0.000 A 
ATOM      7  C   UNL     1       6.239   3.908  13.601  0.00  0.00    +0.000 A 
ATOM      8  C   UNL     1       7.321   4.749  13.713  0.00  0.00    +0.000 A 
ATOM      9  N   UNL     1       7.527   5.555  14.771  0.00  0.00    +0.000 NA
ATOM     10  C   UNL     1       6.644   5.536  15.793  0.00  0.00    +0.000 A 
ENDROOT
BRANCH   1  11
ATOM     11  O   UNL     1       7.940   7.199  16.923  0.00  0.00    +0.000 OA
ATOM     12  H   UNL     1       8.029   7.601  17.802  0.00  0.00    +0.000 HD
ENDBRANCH   1  11
BRANCH   4  13
ATOM     13  C   UNL     1       3.331   3.861  16.914  0.00  0.00    +0.000 C 
BRANCH  13  14
ATOM     14  N   UNL     1       3.489   2.671  17.740  0.00  0.00    +0.000 N 
ATOM     15  H   UNL     1       4.456   2.349  17.795  0.00  0.00    +0.000 HD
BRANCH  14  16
ATOM     16  C   UNL     1       2.873   2.611  19.000  0.00  0.00    +0.000 A 
ATOM     17  C   UNL     1       3.583   2.493  20.203  0.00  0.00    +0.000 A 
ATOM     18  C   UNL     1       2.915   2.505  21.434  0.00  0.00    +0.000 A 
ATOM     19  C   UNL     1       1.536   2.670  21.473  0.00  0.00    +0.000 A 
ATOM     20  F   UNL     1       0.907   2.683  22.654  0.00  0.00    +0.000 F 
ATOM     21  C   UNL     1       0.807   2.830  20.307  0.00  0.00    +0.000 A 
ATOM     22  C   UNL     1       1.481   2.815  19.090  0.00  0.00    +0.000 A 
ATOM     23  F   UNL     1       0.769   2.977  17.963  0.00  0.00    +0.000 F 
ENDBRANCH  14  16
ENDBRANCH  13  14
ENDBRANCH   4  13
TORSDOF 4
ENDMDL
MODEL 9
REMARK VINA RESULT:      -7.7      3.614      6.532
REMARK  Name = 
REMARK  4 active torsions:
REMARK  status: ('A' for Active; 'I' for Inactive)
REMARK    1  A    between atoms: O_1  and  C_2
REMARK    2  A    between atoms: C_5  and  C_6
REMARK    3  A    between atoms: C_6  and  N_7
REMARK    4  A    between atoms: N_7  and  C_8
REMARK                            x       y       z     vdW  Elec       q    Type
REMARK                         _______ _______ _______ _____ _____    ______ ____
ROOT
ATOM      1  C   UNL     1       6.931   6.182  16.731  0.00  0.00    +0.000 A 
ATOM      2  C   UNL     1       6.081   6.100  17.833  0.00  0.00    +0.000 A 
ATOM      3  C   UNL     1       5.004   5.222  17.806  0.00  0.00    +0.000 A 
ATOM      4  C   UNL     1       4.760   4.420  16.677  0.00  0.00    +0.000 A 
ATOM      5  C   UNL     1       5.634   4.520  15.552  0.00  0.00    +0.000 A 
ATOM      6  C   UNL     1       5.462   3.769  14.369  0.00  0.00    +0.000 A 
ATOM      7  C   UNL     1       6.353   3.882  13.310  0.00  0.00    +0.000 A 
ATOM      8  C   UNL     1       7.400   4.762  13.445  0.00  0.00    +0.000 A 
ATOM      9  N   UNL     1       7.597   5.517  14.541  0.00  0.00    +0.000 NA
ATOM     10  C   UNL     1       6.740   5.404  15.580  0.00  0.00    +0.000 A 
ENDROOT
BRANCH   1  11
ATOM     11  O   UNL     1       7.990   7.058  16.772  0.00  0.00    +0.000 OA
ATOM     12  H   UNL     1       7.938   7.670  16.021  0.00  0.00    +0.000 HD
ENDBRANCH   1  11
BRANCH   4  13
ATOM     13  C   UNL     1       3.528   3.528  16.676  0.00  0.00    +0.000 C 
BRANCH  13  14
ATOM     14  N   UNL     1       2.399   4.178  17.328  0.00  0.00    +0.000 N 
ATOM     15  H   UNL     1       1.604   4.319  16.704  0.00  0.00    +0.000 HD
BRANCH  14  16
ATOM     16  C   UNL     1       1.968   3.725  18.586  0.00  0.00    +0.000 A 
ATOM     17  C   UNL     1       1.732   2.376  18.884  0.00  0.00    +0.000 A 
ATOM     18  C   UNL     1       1.368   1.980  20.177  0.00  0.00    +0.000 A 
ATOM     19  C   UNL     1       1.270   2.926  21.190  0.00  0.00    +0.000 A 
ATOM     20  F   UNL     1       0.924   2.537  22.423  0.00  0.00    +0.000 F 
ATOM     21  C   UNL     1       1.535   4.262  20.942  0.00  0.00    +0.000 A 
ATOM     22  C   UNL     1       1.894   4.644  19.654  0.00  0.00    +0.000 A 
ATOM     23  F   UNL     1       2.156   5.940  19.421  0.00  0.00    +0.000 F 
ENDBRANCH  14  16
ENDBRANCH  13  14
ENDBRANCH   4  13
TORSDOF 4
ENDMDL
