MODEL 1
REMARK VINA RESULT:      -7.4      0.000      0.000
REMARK  Name = 
REMARK  6 active torsions:
REMARK  status: ('A' for Active; 'I' for Inactive)
REMARK    1  A    between atoms: C_2  and  C_20
REMARK    2  A    between atoms: N_3  and  P_4
REMARK    3  A    between atoms: P_4  and  N_6
REMARK    4  A    between atoms: P_4  and  N_13
REMARK    5  A    between atoms: N_6  and  N_7
REMARK    6  A    between atoms: N_13  and  N_14
REMARK                            x       y       z     vdW  Elec       q    Type
REMARK                         _______ _______ _______ _____ _____    ______ ____
ROOT
ATOM      1  P   UNL     1       4.793   5.022  18.923  0.00  0.00    +0.000 P 
ATOM      2  O   UNL     1       5.899   5.543  19.862  0.00  0.00    +0.000 OA
ENDROOT
BRANCH   1   5
ATOM      3  O   UNL     1       2.799   6.819  17.729  0.00  0.00    +0.000 OA
ATOM      4  C   UNL     1       2.823   6.854  18.955  0.00  0.00    +0.000 C 
ATOM      5  N   UNL     1       3.595   6.034  19.764  0.00  0.00    +0.000 N 
ATOM      6  H   UNL     1       4.102   6.532  20.474  0.00  0.00    +0.000 HD
BRANCH   4   7
ATOM      7  C   UNL     1       1.867   7.771  19.619  0.00  0.00    +0.000 A 
ATOM      8  C   UNL     1       1.500   8.951  18.966  0.00  0.00    +0.000 A 
ATOM      9  C   UNL     1       0.901   9.984  19.687  0.00  0.00    +0.000 A 
ATOM     10  C   UNL     1       0.653   9.835  21.053  0.00  0.00    +0.000 A 
ATOM     11  C   UNL     1       0.957   8.622  21.702  0.00  0.00    +0.000 A 
ATOM     12  C   UNL     1       1.571   7.602  20.980  0.00  0.00    +0.000 A 
ENDBRANCH   4   7
ENDBRANCH   1   5
BRANCH   1  13
ATOM     13  N   UNL     1       4.188   3.743  19.870  0.00  0.00    +0.000 NA
ATOM     14  H   UNL     1       4.759   3.657  20.709  0.00  0.00    +0.000 HD
BRANCH  13  15
ATOM     15  N   UNL     1       3.377   2.588  19.520  0.00  0.00    +0.000 NA
ATOM     16  C   UNL     1       2.611   2.725  18.253  0.00  0.00    +0.000 C 
ATOM     17  C   UNL     1       1.321   3.588  18.285  0.00  0.00    +0.000 C 
ATOM     18  O   UNL     1       0.478   3.286  19.398  0.00  0.00    +0.000 OA
ATOM     19  C   UNL     1       1.218   3.382  20.618  0.00  0.00    +0.000 C 
ATOM     20  C   UNL     1       2.376   2.366  20.611  0.00  0.00    +0.000 C 
ENDBRANCH  13  15
ENDBRANCH   1  13
BRANCH   1  21
ATOM     21  N   UNL     1       5.993   4.010  18.082  0.00  0.00    +0.000 NA
ATOM     22  H   UNL     1       5.478   3.282  17.592  0.00  0.00    +0.000 HD
BRANCH  21  23
ATOM     23  N   UNL     1       6.804   4.847  17.145  0.00  0.00    +0.000 NA
ATOM     24  C   UNL     1       6.214   6.149  16.788  0.00  0.00    +0.000 C 
ATOM     25  C   UNL     1       5.334   6.147  15.532  0.00  0.00    +0.000 C 
ATOM     26  O   UNL     1       6.020   5.561  14.419  0.00  0.00    +0.000 OA
ATOM     27  C   UNL     1       6.367   4.205  14.720  0.00  0.00    +0.000 C 
ATOM     28  C   UNL     1       7.264   4.100  15.967  0.00  0.00    +0.000 C 
ENDBRANCH  21  23
ENDBRANCH   1  21
TORSDOF 6
ENDMDL
MODEL 2
REMARK VINA RESULT:      -7.3      0.748      1.573
REMARK  Name = 
REMARK  6 active torsions:
REMARK  status: ('A' for Active; 'I' for Inactive)
REMARK    1  A    between atoms: C_2  and  C_20
REMARK    2  A    between atoms: N_3  and  P_4
REMARK    3  A    between atoms: P_4  and  N_6
REMARK    4  A    between atoms: P_4  and  N_13
REMARK    5  A    between atoms: N_6  and  N_7
REMARK    6  A    between atoms: N_13  and  N_14
REMARK                            x       y       z     vdW  Elec       q    Type
REMARK                         _______ _______ _______ _____ _____    ______ ____
ROOT
ATOM      1  P   UNL     1       4.326   4.919  18.962  0.00  0.00    +0.000 P 
ATOM      2  O   UNL     1       5.542   5.633  19.584  0.00  0.00    +0.000 OA
ENDROOT
BRANCH   1   5
ATOM      3  O   UNL     1       2.846   7.219  17.889  0.00  0.00    +0.000 OA
ATOM      4  C   UNL     1       2.722   7.075  19.100  0.00  0.00    +0.000 C 
ATOM      5  N   UNL     1       3.229   6.014  19.837  0.00  0.00    +0.000 N 
ATOM      6  H   UNL     1       3.723   6.299  20.664  0.00  0.00    +0.000 HD
BRANCH   4   7
ATOM      7  C   UNL     1       1.867   8.056  19.810  0.00  0.00    +0.000 A 
ATOM      8  C   UNL     1       1.322   7.704  21.048  0.00  0.00    +0.000 A 
ATOM      9  C   UNL     1       0.254   8.436  21.567  0.00  0.00    +0.000 A 
ATOM     10  C   UNL     1      -0.259   9.526  20.862  0.00  0.00    +0.000 A 
ATOM     11  C   UNL     1       0.331   9.928  19.648  0.00  0.00    +0.000 A 
ATOM     12  C   UNL     1       1.385   9.182  19.126  0.00  0.00    +0.000 A 
ENDBRANCH   4   7
ENDBRANCH   1   5
BRANCH   1  13
ATOM     13  N   UNL     1       3.985   3.798  20.198  0.00  0.00    +0.000 NA
ATOM     14  H   UNL     1       4.642   3.941  20.962  0.00  0.00    +0.000 HD
BRANCH  13  15
ATOM     15  N   UNL     1       3.294   2.519  20.172  0.00  0.00    +0.000 NA
ATOM     16  C   UNL     1       2.731   2.141  18.848  0.00  0.00    +0.000 C 
ATOM     17  C   UNL     1       1.412   2.832  18.408  0.00  0.00    +0.000 C 
ATOM     18  O   UNL     1       0.421   2.842  19.436  0.00  0.00    +0.000 OA
ATOM     19  C   UNL     1       0.955   3.419  20.631  0.00  0.00    +0.000 C 
ATOM     20  C   UNL     1       2.147   2.582  21.130  0.00  0.00    +0.000 C 
ENDBRANCH  13  15
ENDBRANCH   1  13
BRANCH   1  21
ATOM     21  N   UNL     1       5.424   3.824  18.087  0.00  0.00    +0.000 NA
ATOM     22  H   UNL     1       5.288   2.893  18.474  0.00  0.00    +0.000 HD
BRANCH  21  23
ATOM     23  N   UNL     1       5.131   3.866  16.622  0.00  0.00    +0.000 NA
ATOM     24  C   UNL     1       6.268   3.546  15.740  0.00  0.00    +0.000 C 
ATOM     25  C   UNL     1       7.110   4.748  15.293  0.00  0.00    +0.000 C 
ATOM     26  O   UNL     1       6.285   5.777  14.731  0.00  0.00    +0.000 OA
ATOM     27  C   UNL     1       5.342   6.233  15.707  0.00  0.00    +0.000 C 
ATOM     28  C   UNL     1       4.438   5.096  16.214  0.00  0.00    +0.000 C 
ENDBRANCH  21  23
ENDBRANCH   1  21
TORSDOF 6
ENDMDL
MODEL 3
REMARK VINA RESULT:      -7.2      0.655      1.178
REMARK  Name = 
REMARK  6 active torsions:
REMARK  status: ('A' for Active; 'I' for Inactive)
REMARK    1  A    between atoms: C_2  and  C_20
REMARK    2  A    between atoms: N_3  and  P_4
REMARK    3  A    between atoms: P_4  and  N_6
REMARK    4  A    between atoms: P_4  and  N_13
REMARK    5  A    between atoms: N_6  and  N_7
REMARK    6  A    between atoms: N_13  and  N_14
REMARK                            x       y       z     vdW  Elec       q    Type
REMARK                         _______ _______ _______ _____ _____    ______ ____
ROOT
ATOM      1  P   UNL     1       4.441   4.927  18.949  0.00  0.00    +0.000 P 
ATOM      2  O   UNL     1       5.657   5.607  19.608  0.00  0.00    +0.000 OA
ENDROOT
BRANCH   1   5
ATOM      3  O   UNL     1       2.577   6.919  17.856  0.00  0.00    +0.000 OA
ATOM      4  C   UNL     1       2.627   6.910  19.082  0.00  0.00    +0.000 C 
ATOM      5  N   UNL     1       3.346   6.004  19.848  0.00  0.00    +0.000 N 
ATOM      6  H   UNL     1       3.906   6.436  20.561  0.00  0.00    +0.000 HD
BRANCH   4   7
ATOM      7  C   UNL     1       1.762   7.879  19.796  0.00  0.00    +0.000 A 
ATOM      8  C   UNL     1       1.380   9.052  19.140  0.00  0.00    +0.000 A 
ATOM      9  C   UNL     1       0.879  10.125  19.877  0.00  0.00    +0.000 A 
ATOM     10  C   UNL     1       0.744  10.024  21.262  0.00  0.00    +0.000 A 
ATOM     11  C   UNL     1       1.062   8.820  21.920  0.00  0.00    +0.000 A 
ATOM     12  C   UNL     1       1.578   7.759  21.182  0.00  0.00    +0.000 A 
ENDBRANCH   4   7
ENDBRANCH   1   5
BRANCH   1  13
ATOM     13  N   UNL     1       4.074   3.769  20.141  0.00  0.00    +0.000 NA
ATOM     14  H   UNL     1       4.740   3.862  20.906  0.00  0.00    +0.000 HD
BRANCH  13  15
ATOM     15  N   UNL     1       3.346   2.513  20.070  0.00  0.00    +0.000 NA
ATOM     16  C   UNL     1       2.697   2.242  18.759  0.00  0.00    +0.000 C 
ATOM     17  C   UNL     1       1.377   2.994  18.444  0.00  0.00    +0.000 C 
ATOM     18  O   UNL     1       0.446   2.959  19.527  0.00  0.00    +0.000 OA
ATOM     19  C   UNL     1       1.063   3.439  20.724  0.00  0.00    +0.000 C 
ATOM     20  C   UNL     1       2.257   2.539  21.096  0.00  0.00    +0.000 C 
ENDBRANCH  13  15
ENDBRANCH   1  13
BRANCH   1  21
ATOM     21  N   UNL     1       5.538   3.851  18.050  0.00  0.00    +0.000 NA
ATOM     22  H   UNL     1       5.430   2.919  18.443  0.00  0.00    +0.000 HD
BRANCH  21  23
ATOM     23  N   UNL     1       5.207   3.882  16.592  0.00  0.00    +0.000 NA
ATOM     24  C   UNL     1       6.326   3.577  15.683  0.00  0.00    +0.000 C 
ATOM     25  C   UNL     1       7.136   4.790  15.210  0.00  0.00    +0.000 C 
ATOM     26  O   UNL     1       6.281   5.803  14.665  0.00  0.00    +0.000 OA
ATOM     27  C   UNL     1       5.356   6.248  15.662  0.00  0.00    +0.000 C 
ATOM     28  C   UNL     1       4.484   5.098  16.197  0.00  0.00    +0.000 C 
ENDBRANCH  21  23
ENDBRANCH   1  21
TORSDOF 6
ENDMDL
MODEL 4
REMARK VINA RESULT:      -7.2      0.582      1.131
REMARK  Name = 
REMARK  6 active torsions:
REMARK  status: ('A' for Active; 'I' for Inactive)
REMARK    1  A    between atoms: C_2  and  C_20
REMARK    2  A    between atoms: N_3  and  P_4
REMARK    3  A    between atoms: P_4  and  N_6
REMARK    4  A    between atoms: P_4  and  N_13
REMARK    5  A    between atoms: N_6  and  N_7
REMARK    6  A    between atoms: N_13  and  N_14
REMARK                            x       y       z     vdW  Elec       q    Type
REMARK                         _______ _______ _______ _____ _____    ______ ____
ROOT
ATOM      1  P   UNL     1       5.037   5.055  18.888  0.00  0.00    +0.000 P 
ATOM      2  O   UNL     1       6.139   5.281  19.942  0.00  0.00    +0.000 OA
ENDROOT
BRANCH   1   5
ATOM      3  O   UNL     1       2.592   6.309  17.847  0.00  0.00    +0.000 OA
ATOM      4  C   UNL     1       2.965   6.771  18.920  0.00  0.00    +0.000 C 
ATOM      5  N   UNL     1       4.026   6.291  19.674  0.00  0.00    +0.000 N 
ATOM      6  H   UNL     1       4.656   7.009  19.983  0.00  0.00    +0.000 HD
BRANCH   4   7
ATOM      7  C   UNL     1       2.143   7.858  19.504  0.00  0.00    +0.000 A 
ATOM      8  C   UNL     1       1.611   7.685  20.785  0.00  0.00    +0.000 A 
ATOM      9  C   UNL     1       0.567   8.504  21.216  0.00  0.00    +0.000 A 
ATOM     10  C   UNL     1       0.067   9.504  20.380  0.00  0.00    +0.000 A 
ATOM     11  C   UNL     1       0.646   9.728  19.116  0.00  0.00    +0.000 A 
ATOM     12  C   UNL     1       1.675   8.895  18.684  0.00  0.00    +0.000 A 
ENDBRANCH   4   7
ENDBRANCH   1   5
BRANCH   1  13
ATOM     13  N   UNL     1       4.072   3.923  19.715  0.00  0.00    +0.000 NA
ATOM     14  H   UNL     1       4.206   4.047  20.717  0.00  0.00    +0.000 HD
BRANCH  13  15
ATOM     15  N   UNL     1       3.503   2.654  19.293  0.00  0.00    +0.000 NA
ATOM     16  C   UNL     1       2.668   2.723  18.064  0.00  0.00    +0.000 C 
ATOM     17  C   UNL     1       1.230   3.291  18.205  0.00  0.00    +0.000 C 
ATOM     18  O   UNL     1       0.520   2.734  19.311  0.00  0.00    +0.000 OA
ATOM     19  C   UNL     1       1.278   2.889  20.514  0.00  0.00    +0.000 C 
ATOM     20  C   UNL     1       2.620   2.144  20.389  0.00  0.00    +0.000 C 
ENDBRANCH  13  15
ENDBRANCH   1  13
BRANCH   1  21
ATOM     21  N   UNL     1       6.050   3.820  18.103  0.00  0.00    +0.000 NA
ATOM     22  H   UNL     1       5.430   3.070  17.806  0.00  0.00    +0.000 HD
BRANCH  21  23
ATOM     23  N   UNL     1       6.791   4.419  16.951  0.00  0.00    +0.000 NA
ATOM     24  C   UNL     1       6.869   5.891  16.945  0.00  0.00    +0.000 C 
ATOM     25  C   UNL     1       5.741   6.604  16.191  0.00  0.00    +0.000 C 
ATOM     26  O   UNL     1       5.595   6.083  14.863  0.00  0.00    +0.000 OA
ATOM     27  C   UNL     1       5.280   4.687  14.920  0.00  0.00    +0.000 C 
ATOM     28  C   UNL     1       6.363   3.878  15.654  0.00  0.00    +0.000 C 
ENDBRANCH  21  23
ENDBRANCH   1  21
TORSDOF 6
ENDMDL
MODEL 5
REMARK VINA RESULT:      -7.1      1.635      4.982
REMARK  Name = 
REMARK  6 active torsions:
REMARK  status: ('A' for Active; 'I' for Inactive)
REMARK    1  A    between atoms: C_2  and  C_20
REMARK    2  A    between atoms: N_3  and  P_4
REMARK    3  A    between atoms: P_4  and  N_6
REMARK    4  A    between atoms: P_4  and  N_13
REMARK    5  A    between atoms: N_6  and  N_7
REMARK    6  A    between atoms: N_13  and  N_14
REMARK                            x       y       z     vdW  Elec       q    Type
REMARK                         _______ _______ _______ _____ _____    ______ ____
ROOT
ATOM      1  P   UNL     1       3.579   4.466  18.517  0.00  0.00    +0.000 P 
ATOM      2  O   UNL     1       3.699   4.208  17.003  0.00  0.00    +0.000 OA
ENDROOT
BRANCH   1   5
ATOM      3  O   UNL     1       2.589   6.430  20.466  0.00  0.00    +0.000 OA
ATOM      4  C   UNL     1       2.454   6.782  19.299  0.00  0.00    +0.000 C 
ATOM      5  N   UNL     1       2.928   6.090  18.194  0.00  0.00    +0.000 N 
ATOM      6  H   UNL     1       2.244   5.975  17.468  0.00  0.00    +0.000 HD
BRANCH   4   7
ATOM      7  C   UNL     1       1.831   8.106  19.065  0.00  0.00    +0.000 A 
ATOM      8  C   UNL     1       2.178   8.820  17.915  0.00  0.00    +0.000 A 
ATOM      9  C   UNL     1       1.899  10.185  17.836  0.00  0.00    +0.000 A 
ATOM     10  C   UNL     1       1.260  10.833  18.895  0.00  0.00    +0.000 A 
ATOM     11  C   UNL     1       0.846  10.105  20.027  0.00  0.00    +0.000 A 
ATOM     12  C   UNL     1       1.144   8.747  20.107  0.00  0.00    +0.000 A 
ENDBRANCH   4   7
ENDBRANCH   1   5
BRANCH   1  13
ATOM     13  N   UNL     1       5.061   5.255  18.796  0.00  0.00    +0.000 NA
ATOM     14  H   UNL     1       4.898   6.260  18.828  0.00  0.00    +0.000 HD
BRANCH  13  15
ATOM     15  N   UNL     1       6.434   4.832  18.568  0.00  0.00    +0.000 NA
ATOM     16  C   UNL     1       7.467   5.820  18.980  0.00  0.00    +0.000 C 
ATOM     17  C   UNL     1       7.713   7.033  18.043  0.00  0.00    +0.000 C 
ATOM     18  O   UNL     1       7.838   6.657  16.671  0.00  0.00    +0.000 OA
ATOM     19  C   UNL     1       6.705   5.887  16.263  0.00  0.00    +0.000 C 
ATOM     20  C   UNL     1       6.618   4.597  17.101  0.00  0.00    +0.000 C 
ENDBRANCH  13  15
ENDBRANCH   1  13
BRANCH   1  21
ATOM     21  N   UNL     1       4.229   2.841  18.840  0.00  0.00    +0.000 NA
ATOM     22  H   UNL     1       5.091   2.963  19.367  0.00  0.00    +0.000 HD
BRANCH  21  23
ATOM     23  N   UNL     1       3.226   2.025  19.592  0.00  0.00    +0.000 NA
ATOM     24  C   UNL     1       1.850   2.076  19.068  0.00  0.00    +0.000 C 
ATOM     25  C   UNL     1       0.958   3.166  19.673  0.00  0.00    +0.000 C 
ATOM     26  O   UNL     1       0.971   3.111  21.105  0.00  0.00    +0.000 OA
ATOM     27  C   UNL     1       2.304   3.309  21.588  0.00  0.00    +0.000 C 
ATOM     28  C   UNL     1       3.280   2.251  21.042  0.00  0.00    +0.000 C 
ENDBRANCH  21  23
ENDBRANCH   1  21
TORSDOF 6
ENDMDL
MODEL 6
REMARK VINA RESULT:      -7.0      1.666      2.487
REMARK  Name = 
REMARK  6 active torsions:
REMARK  status: ('A' for Active; 'I' for Inactive)
REMARK    1  A    between atoms: C_2  and  C_20
REMARK    2  A    between atoms: N_3  and  P_4
REMARK    3  A    between atoms: P_4  and  N_6
REMARK    4  A    between atoms: P_4  and  N_13
REMARK    5  A    between atoms: N_6  and  N_7
REMARK    6  A    between atoms: N_13  and  N_14
REMARK                            x       y       z     vdW  Elec       q    Type
REMARK                         _______ _______ _______ _____ _____    ______ ____
ROOT
ATOM      1  P   UNL     1       3.279   6.172  18.712  0.00  0.00    +0.000 P 
ATOM      2  O   UNL     1       4.254   5.640  19.779  0.00  0.00    +0.000 OA
ENDROOT
BRANCH   1   5
ATOM      3  O   UNL     1       1.655   8.592  18.328  0.00  0.00    +0.000 OA
ATOM      4  C   UNL     1       1.801   8.277  19.504  0.00  0.00    +0.000 C 
ATOM      5  N   UNL     1       2.433   7.126  19.954  0.00  0.00    +0.000 N 
ATOM      6  H   UNL     1       3.106   7.295  20.680  0.00  0.00    +0.000 HD
BRANCH   4   7
ATOM      7  C   UNL     1       1.151   9.143  20.517  0.00  0.00    +0.000 A 
ATOM      8  C   UNL     1       1.101   8.707  21.844  0.00  0.00    +0.000 A 
ATOM      9  C   UNL     1       0.211   9.306  22.735  0.00  0.00    +0.000 A 
ATOM     10  C   UNL     1      -0.616  10.347  22.310  0.00  0.00    +0.000 A 
ATOM     11  C   UNL     1      -0.521  10.836  20.993  0.00  0.00    +0.000 A 
ATOM     12  C   UNL     1       0.357  10.223  20.103  0.00  0.00    +0.000 A 
ENDBRANCH   4   7
ENDBRANCH   1   5
BRANCH   1  13
ATOM     13  N   UNL     1       2.010   5.051  18.892  0.00  0.00    +0.000 NA
ATOM     14  H   UNL     1       1.165   5.442  18.479  0.00  0.00    +0.000 HD
BRANCH  13  15
ATOM     15  N   UNL     1       1.823   3.953  19.827  0.00  0.00    +0.000 NA
ATOM     16  C   UNL     1       3.082   3.342  20.331  0.00  0.00    +0.000 C 
ATOM     17  C   UNL     1       3.838   2.373  19.383  0.00  0.00    +0.000 C 
ATOM     18  O   UNL     1       2.977   1.412  18.771  0.00  0.00    +0.000 OA
ATOM     19  C   UNL     1       1.893   2.070  18.110  0.00  0.00    +0.000 C 
ATOM     20  C   UNL     1       1.062   2.867  19.133  0.00  0.00    +0.000 C 
ENDBRANCH  13  15
ENDBRANCH   1  13
BRANCH   1  21
ATOM     21  N   UNL     1       4.125   5.219  17.470  0.00  0.00    +0.000 NA
ATOM     22  H   UNL     1       3.425   4.647  17.004  0.00  0.00    +0.000 HD
BRANCH  21  23
ATOM     23  N   UNL     1       4.829   6.128  16.515  0.00  0.00    +0.000 NA
ATOM     24  C   UNL     1       5.357   5.483  15.299  0.00  0.00    +0.000 C 
ATOM     25  C   UNL     1       6.801   4.977  15.400  0.00  0.00    +0.000 C 
ATOM     26  O   UNL     1       7.679   6.008  15.868  0.00  0.00    +0.000 OA
ATOM     27  C   UNL     1       7.270   6.444  17.169  0.00  0.00    +0.000 C 
ATOM     28  C   UNL     1       5.828   6.982  17.171  0.00  0.00    +0.000 C 
ENDBRANCH  21  23
ENDBRANCH   1  21
TORSDOF 6
ENDMDL
MODEL 7
REMARK VINA RESULT:      -7.0      1.610      5.042
REMARK  Name = 
REMARK  6 active torsions:
REMARK  status: ('A' for Active; 'I' for Inactive)
REMARK    1  A    between atoms: C_2  and  C_20
REMARK    2  A    between atoms: N_3  and  P_4
REMARK    3  A    between atoms: P_4  and  N_6
REMARK    4  A    between atoms: P_4  and  N_13
REMARK    5  A    between atoms: N_6  and  N_7
REMARK    6  A    between atoms: N_13  and  N_14
REMARK                            x       y       z     vdW  Elec       q    Type
REMARK                         _______ _______ _______ _____ _____    ______ ____
ROOT
ATOM      1  P   UNL     1       3.522   4.466  18.537  0.00  0.00    +0.000 P 
ATOM      2  O   UNL     1       3.544   4.280  17.007  0.00  0.00    +0.000 OA
ENDROOT
BRANCH   1   5
ATOM      3  O   UNL     1       2.656   6.335  20.633  0.00  0.00    +0.000 OA
ATOM      4  C   UNL     1       2.476   6.753  19.494  0.00  0.00    +0.000 C 
ATOM      5  N   UNL     1       2.888   6.116  18.333  0.00  0.00    +0.000 N 
ATOM      6  H   UNL     1       2.170   6.053  17.633  0.00  0.00    +0.000 HD
BRANCH   4   7
ATOM      7  C   UNL     1       1.869   8.098  19.362  0.00  0.00    +0.000 A 
ATOM      8  C   UNL     1       1.165   8.630  20.446  0.00  0.00    +0.000 A 
ATOM      9  C   UNL     1       0.299   9.705  20.249  0.00  0.00    +0.000 A 
ATOM     10  C   UNL     1       0.147  10.260  18.977  0.00  0.00    +0.000 A 
ATOM     11  C   UNL     1       0.905   9.774  17.894  0.00  0.00    +0.000 A 
ATOM     12  C   UNL     1       1.754   8.689  18.094  0.00  0.00    +0.000 A 
ENDBRANCH   4   7
ENDBRANCH   1   5
BRANCH   1  13
ATOM     13  N   UNL     1       5.035   5.212  18.761  0.00  0.00    +0.000 NA
ATOM     14  H   UNL     1       4.900   6.221  18.810  0.00  0.00    +0.000 HD
BRANCH  13  15
ATOM     15  N   UNL     1       6.385   4.756  18.471  0.00  0.00    +0.000 NA
ATOM     16  C   UNL     1       7.464   5.678  18.917  0.00  0.00    +0.000 C 
ATOM     17  C   UNL     1       7.733   6.938  18.052  0.00  0.00    +0.000 C 
ATOM     18  O   UNL     1       7.811   6.646  16.656  0.00  0.00    +0.000 OA
ATOM     19  C   UNL     1       6.641   5.944  16.231  0.00  0.00    +0.000 C 
ATOM     20  C   UNL     1       6.525   4.608  16.989  0.00  0.00    +0.000 C 
ENDBRANCH  13  15
ENDBRANCH   1  13
BRANCH   1  21
ATOM     21  N   UNL     1       4.155   2.815  18.741  0.00  0.00    +0.000 NA
ATOM     22  H   UNL     1       5.042   2.894  19.233  0.00  0.00    +0.000 HD
BRANCH  21  23
ATOM     23  N   UNL     1       3.172   1.977  19.494  0.00  0.00    +0.000 NA
ATOM     24  C   UNL     1       1.771   2.095  19.054  0.00  0.00    +0.000 C 
ATOM     25  C   UNL     1       0.945   3.165  19.778  0.00  0.00    +0.000 C 
ATOM     26  O   UNL     1       1.036   3.014  21.201  0.00  0.00    +0.000 OA
ATOM     27  C   UNL     1       2.399   3.146  21.619  0.00  0.00    +0.000 C 
ATOM     28  C   UNL     1       3.313   2.104  20.951  0.00  0.00    +0.000 C 
ENDBRANCH  21  23
ENDBRANCH   1  21
TORSDOF 6
ENDMDL
MODEL 8
REMARK VINA RESULT:      -7.0      1.656      2.380
REMARK  Name = 
REMARK  6 active torsions:
REMARK  status: ('A' for Active; 'I' for Inactive)
REMARK    1  A    between atoms: C_2  and  C_20
REMARK    2  A    between atoms: N_3  and  P_4
REMARK    3  A    between atoms: P_4  and  N_6
REMARK    4  A    between atoms: P_4  and  N_13
REMARK    5  A    between atoms: N_6  and  N_7
REMARK    6  A    between atoms: N_13  and  N_14
REMARK                            x       y       z     vdW  Elec       q    Type
REMARK                         _______ _______ _______ _____ _____    ______ ____
ROOT
ATOM      1  P   UNL     1       3.214   6.340  18.247  0.00  0.00    +0.000 P 
ATOM      2  O   UNL     1       4.225   6.245  19.406  0.00  0.00    +0.000 OA
ENDROOT
BRANCH   1   5
ATOM      3  O   UNL     1       2.063   8.890  17.346  0.00  0.00    +0.000 OA
ATOM      4  C   UNL     1       1.884   8.662  18.538  0.00  0.00    +0.000 C 
ATOM      5  N   UNL     1       2.234   7.489  19.190  0.00  0.00    +0.000 N 
ATOM      6  H   UNL     1       2.734   7.640  20.048  0.00  0.00    +0.000 HD
BRANCH   4   7
ATOM      7  C   UNL     1       1.136   9.681  19.311  0.00  0.00    +0.000 A 
ATOM      8  C   UNL     1       0.789   9.401  20.636  0.00  0.00    +0.000 A 
ATOM      9  C   UNL     1      -0.196  10.159  21.269  0.00  0.00    +0.000 A 
ATOM     10  C   UNL     1      -0.823  11.204  20.589  0.00  0.00    +0.000 A 
ATOM     11  C   UNL     1      -0.428  11.536  19.278  0.00  0.00    +0.000 A 
ATOM     12  C   UNL     1       0.543  10.764  18.646  0.00  0.00    +0.000 A 
ENDBRANCH   4   7
ENDBRANCH   1   5
BRANCH   1  13
ATOM     13  N   UNL     1       2.087   5.167  18.747  0.00  0.00    +0.000 NA
ATOM     14  H   UNL     1       1.190   5.364  18.308  0.00  0.00    +0.000 HD
BRANCH  13  15
ATOM     15  N   UNL     1       2.056   4.297  19.913  0.00  0.00    +0.000 NA
ATOM     16  C   UNL     1       3.162   3.305  19.979  0.00  0.00    +0.000 C 
ATOM     17  C   UNL     1       3.053   2.049  19.072  0.00  0.00    +0.000 C 
ATOM     18  O   UNL     1       1.766   1.433  19.131  0.00  0.00    +0.000 OA
ATOM     19  C   UNL     1       0.745   2.391  18.844  0.00  0.00    +0.000 C 
ATOM     20  C   UNL     1       0.777   3.522  19.890  0.00  0.00    +0.000 C 
ENDBRANCH  13  15
ENDBRANCH   1  13
BRANCH   1  21
ATOM     21  N   UNL     1       4.194   5.192  17.304  0.00  0.00    +0.000 NA
ATOM     22  H   UNL     1       3.584   4.788  16.598  0.00  0.00    +0.000 HD
BRANCH  21  23
ATOM     23  N   UNL     1       5.364   5.895  16.694  0.00  0.00    +0.000 NA
ATOM     24  C   UNL     1       5.612   5.595  15.273  0.00  0.00    +0.000 C 
ATOM     25  C   UNL     1       6.569   4.427  15.008  0.00  0.00    +0.000 C 
ATOM     26  O   UNL     1       7.797   4.588  15.730  0.00  0.00    +0.000 OA
ATOM     27  C   UNL     1       7.532   4.635  17.137  0.00  0.00    +0.000 C 
ATOM     28  C   UNL     1       6.582   5.787  17.509  0.00  0.00    +0.000 C 
ENDBRANCH  21  23
ENDBRANCH   1  21
TORSDOF 6
ENDMDL
MODEL 9
REMARK VINA RESULT:      -6.9      1.630      5.092
REMARK  Name = 
REMARK  6 active torsions:
REMARK  status: ('A' for Active; 'I' for Inactive)
REMARK    1  A    between atoms: C_2  and  C_20
REMARK    2  A    between atoms: N_3  and  P_4
REMARK    3  A    between atoms: P_4  and  N_6
REMARK    4  A    between atoms: P_4  and  N_13
REMARK    5  A    between atoms: N_6  and  N_7
REMARK    6  A    between atoms: N_13  and  N_14
REMARK                            x       y       z     vdW  Elec       q    Type
REMARK                         _______ _______ _______ _____ _____    ______ ____
ROOT
ATOM      1  P   UNL     1       2.993   4.173  18.010  0.00  0.00    +0.000 P 
ATOM      2  O   UNL     1       2.311   3.882  16.659  0.00  0.00    +0.000 OA
ENDROOT
BRANCH   1   5
ATOM      3  O   UNL     1       3.267   6.248  20.072  0.00  0.00    +0.000 OA
ATOM      4  C   UNL     1       2.592   6.596  19.109  0.00  0.00    +0.000 C 
ATOM      5  N   UNL     1       2.394   5.848  17.958  0.00  0.00    +0.000 N 
ATOM      6  H   UNL     1       1.431   5.789  17.677  0.00  0.00    +0.000 HD
BRANCH   4   7
ATOM      7  C   UNL     1       2.038   7.971  19.138  0.00  0.00    +0.000 A 
ATOM      8  C   UNL     1       1.432   8.428  20.311  0.00  0.00    +0.000 A 
ATOM      9  C   UNL     1       0.604   9.550  20.270  0.00  0.00    +0.000 A 
ATOM     10  C   UNL     1       0.394  10.225  19.067  0.00  0.00    +0.000 A 
ATOM     11  C   UNL     1       1.058   9.810  17.895  0.00  0.00    +0.000 A 
ATOM     12  C   UNL     1       1.868   8.679  17.939  0.00  0.00    +0.000 A 
ENDBRANCH   4   7
ENDBRANCH   1   5
BRANCH   1  13
ATOM     13  N   UNL     1       4.468   4.819  17.457  0.00  0.00    +0.000 NA
ATOM     14  H   UNL     1       5.163   4.731  18.196  0.00  0.00    +0.000 HD
BRANCH  13  15
ATOM     15  N   UNL     1       4.763   5.779  16.405  0.00  0.00    +0.000 NA
ATOM     16  C   UNL     1       5.403   5.200  15.194  0.00  0.00    +0.000 C 
ATOM     17  C   UNL     1       6.916   4.863  15.275  0.00  0.00    +0.000 C 
ATOM     18  O   UNL     1       7.690   5.920  15.844  0.00  0.00    +0.000 OA
ATOM     19  C   UNL     1       7.155   6.293  17.117  0.00  0.00    +0.000 C 
ATOM     20  C   UNL     1       5.711   6.801  16.950  0.00  0.00    +0.000 C 
ENDBRANCH  13  15
ENDBRANCH   1  13
BRANCH   1  21
ATOM     21  N   UNL     1       3.592   2.497  18.061  0.00  0.00    +0.000 NA
ATOM     22  H   UNL     1       4.597   2.544  18.209  0.00  0.00    +0.000 HD
BRANCH  21  23
ATOM     23  N   UNL     1       2.903   1.739  19.150  0.00  0.00    +0.000 NA
ATOM     24  C   UNL     1       1.431   1.807  19.135  0.00  0.00    +0.000 C 
ATOM     25  C   UNL     1       0.819   2.943  19.963  0.00  0.00    +0.000 C 
ATOM     26  O   UNL     1       1.329   2.941  21.302  0.00  0.00    +0.000 OA
ATOM     27  C   UNL     1       2.749   3.121  21.283  0.00  0.00    +0.000 C 
ATOM     28  C   UNL     1       3.462   2.018  20.480  0.00  0.00    +0.000 C 
ENDBRANCH  21  23
ENDBRANCH   1  21
TORSDOF 6
ENDMDL
