MODEL 1
REMARK VINA RESULT:      -7.7      0.000      0.000
REMARK  Name = 
REMARK  3 active torsions:
REMARK  status: ('A' for Active; 'I' for Inactive)
REMARK    1  A    between atoms: C_1  and  C_2
REMARK    2  A    between atoms: C_6  and  C_7
REMARK    3  A    between atoms: C_16  and  C_17
REMARK                            x       y       z     vdW  Elec       q    Type
REMARK                         _______ _______ _______ _____ _____    ______ ____
ROOT
ATOM      1  C   UNL     1       4.462   3.420  19.279  0.00  0.00    +0.000 C 
ATOM      2  C   UNL     1       3.894   4.788  19.008  0.00  0.00    +0.000 A 
ATOM      3  N   UNL     1       3.065   5.234  20.001  0.00  0.00    +0.000 NA
ATOM      4  C   UNL     1       2.524   6.466  19.835  0.00  0.00    +0.000 A 
ATOM      5  N   UNL     1       1.678   7.056  20.765  0.00  0.00    +0.000 NA
ATOM      6  C   UNL     1       1.329   8.261  20.352  0.00  0.00    +0.000 A 
ATOM      7  S   UNL     1       1.940   8.704  18.797  0.00  0.00    +0.000 S 
ATOM      8  C   UNL     1       2.771   7.225  18.699  0.00  0.00    +0.000 A 
ATOM      9  C   UNL     1       3.594   6.754  17.680  0.00  0.00    +0.000 A 
ATOM     10  C   UNL     1       4.205   5.505  17.833  0.00  0.00    +0.000 A 
ENDROOT
BRANCH   6  11
ATOM     11  C   UNL     1       0.407   9.197  21.018  0.00  0.00    +0.000 A 
ATOM     12  C   UNL     1       0.088   9.057  22.382  0.00  0.00    +0.000 A 
ATOM     13  C   UNL     1      -0.632  10.038  23.062  0.00  0.00    +0.000 A 
ATOM     14  C   UNL     1      -1.075  11.165  22.377  0.00  0.00    +0.000 A 
ATOM     15  C   UNL     1      -0.827  11.289  21.009  0.00  0.00    +0.000 A 
ATOM     16  C   UNL     1      -0.097  10.308  20.330  0.00  0.00    +0.000 A 
ENDBRANCH   6  11
BRANCH  10  17
ATOM     17  C   UNL     1       5.107   5.037  16.750  0.00  0.00    +0.000 A 
ATOM     18  C   UNL     1       4.880   4.201  15.670  0.00  0.00    +0.000 A 
ATOM     19  C   UNL     1       6.011   4.071  14.808  0.00  0.00    +0.000 A 
ATOM     20  C   UNL     1       7.079   4.817  15.239  0.00  0.00    +0.000 A 
ATOM     21  S   UNL     1       6.751   5.593  16.717  0.00  0.00    +0.000 S 
ENDBRANCH  10  17
TORSDOF 2
ENDMDL
MODEL 2
REMARK VINA RESULT:      -7.2      1.059      1.527
REMARK  Name = 
REMARK  3 active torsions:
REMARK  status: ('A' for Active; 'I' for Inactive)
REMARK    1  A    between atoms: C_1  and  C_2
REMARK    2  A    between atoms: C_6  and  C_7
REMARK    3  A    between atoms: C_16  and  C_17
REMARK                            x       y       z     vdW  Elec       q    Type
REMARK                         _______ _______ _______ _____ _____    ______ ____
ROOT
ATOM      1  C   UNL     1       4.122   4.206  19.596  0.00  0.00    +0.000 C 
ATOM      2  C   UNL     1       3.644   5.522  19.043  0.00  0.00    +0.000 A 
ATOM      3  N   UNL     1       2.773   6.172  19.873  0.00  0.00    +0.000 NA
ATOM      4  C   UNL     1       2.308   7.373  19.450  0.00  0.00    +0.000 A 
ATOM      5  N   UNL     1       1.432   8.154  20.192  0.00  0.00    +0.000 NA
ATOM      6  C   UNL     1       1.174   9.276  19.545  0.00  0.00    +0.000 A 
ATOM      7  S   UNL     1       1.914   9.406  17.988  0.00  0.00    +0.000 S 
ATOM      8  C   UNL     1       2.672   7.904  18.220  0.00  0.00    +0.000 A 
ATOM      9  C   UNL     1       3.538   7.225  17.367  0.00  0.00    +0.000 A 
ATOM     10  C   UNL     1       4.072   6.002  17.786  0.00  0.00    +0.000 A 
ENDROOT
BRANCH   6  11
ATOM     11  C   UNL     1       0.259  10.352  19.961  0.00  0.00    +0.000 A 
ATOM     12  C   UNL     1      -0.750  10.824  19.099  0.00  0.00    +0.000 A 
ATOM     13  C   UNL     1      -1.731  11.706  19.548  0.00  0.00    +0.000 A 
ATOM     14  C   UNL     1      -1.700  12.160  20.862  0.00  0.00    +0.000 A 
ATOM     15  C   UNL     1      -0.669  11.757  21.712  0.00  0.00    +0.000 A 
ATOM     16  C   UNL     1       0.310  10.864  21.264  0.00  0.00    +0.000 A 
ENDBRANCH   6  11
BRANCH  10  17
ATOM     17  C   UNL     1       5.021   5.311  16.877  0.00  0.00    +0.000 A 
ATOM     18  C   UNL     1       4.847   4.240  16.017  0.00  0.00    +0.000 A 
ATOM     19  C   UNL     1       6.013   3.935  15.250  0.00  0.00    +0.000 A 
ATOM     20  C   UNL     1       7.053   4.783  15.531  0.00  0.00    +0.000 A 
ATOM     21  S   UNL     1       6.659   5.878  16.772  0.00  0.00    +0.000 S 
ENDBRANCH  10  17
TORSDOF 2
ENDMDL
MODEL 3
REMARK VINA RESULT:      -7.2      0.323      1.097
REMARK  Name = 
REMARK  3 active torsions:
REMARK  status: ('A' for Active; 'I' for Inactive)
REMARK    1  A    between atoms: C_1  and  C_2
REMARK    2  A    between atoms: C_6  and  C_7
REMARK    3  A    between atoms: C_16  and  C_17
REMARK                            x       y       z     vdW  Elec       q    Type
REMARK                         _______ _______ _______ _____ _____    ______ ____
ROOT
ATOM      1  C   UNL     1       4.324   3.253  18.885  0.00  0.00    +0.000 C 
ATOM      2  C   UNL     1       3.870   4.674  18.686  0.00  0.00    +0.000 A 
ATOM      3  N   UNL     1       3.075   5.134  19.700  0.00  0.00    +0.000 NA
ATOM      4  C   UNL     1       2.637   6.413  19.599  0.00  0.00    +0.000 A 
ATOM      5  N   UNL     1       1.837   7.020  20.558  0.00  0.00    +0.000 NA
ATOM      6  C   UNL     1       1.589   8.269  20.209  0.00  0.00    +0.000 A 
ATOM      7  S   UNL     1       2.243   8.742  18.680  0.00  0.00    +0.000 S 
ATOM      8  C   UNL     1       2.951   7.208  18.505  0.00  0.00    +0.000 A 
ATOM      9  C   UNL     1       3.738   6.726  17.464  0.00  0.00    +0.000 A 
ATOM     10  C   UNL     1       4.244   5.424  17.550  0.00  0.00    +0.000 A 
ENDROOT
BRANCH   6  11
ATOM     11  C   UNL     1       0.744   9.241  20.923  0.00  0.00    +0.000 A 
ATOM     12  C   UNL     1       0.068  10.265  20.232  0.00  0.00    +0.000 A 
ATOM     13  C   UNL     1      -0.874  11.070  20.870  0.00  0.00    +0.000 A 
ATOM     14  C   UNL     1      -1.131  10.886  22.224  0.00  0.00    +0.000 A 
ATOM     15  C   UNL     1      -0.423   9.922  22.942  0.00  0.00    +0.000 A 
ATOM     16  C   UNL     1       0.515   9.108  22.299  0.00  0.00    +0.000 A 
ENDBRANCH   6  11
BRANCH  10  17
ATOM     17  C   UNL     1       5.111   4.942  16.445  0.00  0.00    +0.000 A 
ATOM     18  C   UNL     1       4.825   4.172  15.330  0.00  0.00    +0.000 A 
ATOM     19  C   UNL     1       5.944   4.000  14.459  0.00  0.00    +0.000 A 
ATOM     20  C   UNL     1       7.061   4.650  14.919  0.00  0.00    +0.000 A 
ATOM     21  S   UNL     1       6.790   5.383  16.430  0.00  0.00    +0.000 S 
ENDBRANCH  10  17
TORSDOF 2
ENDMDL
MODEL 4
REMARK VINA RESULT:      -7.1      1.826      8.208
REMARK  Name = 
REMARK  3 active torsions:
REMARK  status: ('A' for Active; 'I' for Inactive)
REMARK    1  A    between atoms: C_1  and  C_2
REMARK    2  A    between atoms: C_6  and  C_7
REMARK    3  A    between atoms: C_16  and  C_17
REMARK                            x       y       z     vdW  Elec       q    Type
REMARK                         _______ _______ _______ _____ _____    ______ ____
ROOT
ATOM      1  C   UNL     1      -0.414   9.841  23.038  0.00  0.00    +0.000 C 
ATOM      2  C   UNL     1       0.167   9.699  21.657  0.00  0.00    +0.000 A 
ATOM      3  N   UNL     1       0.887   8.547  21.490  0.00  0.00    +0.000 NA
ATOM      4  C   UNL     1       1.431   8.340  20.266  0.00  0.00    +0.000 A 
ATOM      5  N   UNL     1       2.172   7.210  19.944  0.00  0.00    +0.000 NA
ATOM      6  C   UNL     1       2.551   7.268  18.681  0.00  0.00    +0.000 A 
ATOM      7  S   UNL     1       2.098   8.713  17.849  0.00  0.00    +0.000 S 
ATOM      8  C   UNL     1       1.294   9.265  19.240  0.00  0.00    +0.000 A 
ATOM      9  C   UNL     1       0.585  10.448  19.424  0.00  0.00    +0.000 A 
ATOM     10  C   UNL     1      -0.028  10.680  20.661  0.00  0.00    +0.000 A 
ENDROOT
BRANCH   6  11
ATOM     11  C   UNL     1       3.390   6.296  17.959  0.00  0.00    +0.000 A 
ATOM     12  C   UNL     1       3.075   4.924  17.953  0.00  0.00    +0.000 A 
ATOM     13  C   UNL     1       3.753   4.029  17.128  0.00  0.00    +0.000 A 
ATOM     14  C   UNL     1       4.785   4.488  16.316  0.00  0.00    +0.000 A 
ATOM     15  C   UNL     1       5.157   5.832  16.359  0.00  0.00    +0.000 A 
ATOM     16  C   UNL     1       4.470   6.732  17.180  0.00  0.00    +0.000 A 
ENDBRANCH   6  11
BRANCH  10  17
ATOM     17  C   UNL     1      -0.810  11.932  20.824  0.00  0.00    +0.000 A 
ATOM     18  C   UNL     1      -2.143  12.214  20.578  0.00  0.00    +0.000 A 
ATOM     19  C   UNL     1      -2.518  13.540  20.952  0.00  0.00    +0.000 A 
ATOM     20  C   UNL     1      -1.469  14.244  21.487  0.00  0.00    +0.000 A 
ATOM     21  S   UNL     1      -0.024  13.346  21.452  0.00  0.00    +0.000 S 
ENDBRANCH  10  17
TORSDOF 2
ENDMDL
MODEL 5
REMARK VINA RESULT:      -7.0      1.856      8.298
REMARK  Name = 
REMARK  3 active torsions:
REMARK  status: ('A' for Active; 'I' for Inactive)
REMARK    1  A    between atoms: C_1  and  C_2
REMARK    2  A    between atoms: C_6  and  C_7
REMARK    3  A    between atoms: C_16  and  C_17
REMARK                            x       y       z     vdW  Elec       q    Type
REMARK                         _______ _______ _______ _____ _____    ______ ____
ROOT
ATOM      1  C   UNL     1      -0.300   9.765  23.222  0.00  0.00    +0.000 C 
ATOM      2  C   UNL     1       0.255   9.684  21.825  0.00  0.00    +0.000 A 
ATOM      3  N   UNL     1       0.907   8.508  21.571  0.00  0.00    +0.000 NA
ATOM      4  C   UNL     1       1.424   8.355  20.327  0.00  0.00    +0.000 A 
ATOM      5  N   UNL     1       2.096   7.210  19.919  0.00  0.00    +0.000 NA
ATOM      6  C   UNL     1       2.462   7.332  18.657  0.00  0.00    +0.000 A 
ATOM      7  S   UNL     1       2.080   8.853  17.930  0.00  0.00    +0.000 S 
ATOM      8  C   UNL     1       1.326   9.353  19.367  0.00  0.00    +0.000 A 
ATOM      9  C   UNL     1       0.686  10.558  19.641  0.00  0.00    +0.000 A 
ATOM     10  C   UNL     1       0.103  10.739  20.900  0.00  0.00    +0.000 A 
ENDROOT
BRANCH   6  11
ATOM     11  C   UNL     1       3.238   6.367  17.859  0.00  0.00    +0.000 A 
ATOM     12  C   UNL     1       4.398   6.761  17.165  0.00  0.00    +0.000 A 
ATOM     13  C   UNL     1       5.235   5.824  16.563  0.00  0.00    +0.000 A 
ATOM     14  C   UNL     1       4.906   4.473  16.615  0.00  0.00    +0.000 A 
ATOM     15  C   UNL     1       3.726   4.069  17.239  0.00  0.00    +0.000 A 
ATOM     16  C   UNL     1       2.891   5.009  17.852  0.00  0.00    +0.000 A 
ENDBRANCH   6  11
BRANCH  10  17
ATOM     17  C   UNL     1      -0.607  12.018  21.159  0.00  0.00    +0.000 A 
ATOM     18  C   UNL     1      -0.245  13.128  21.903  0.00  0.00    +0.000 A 
ATOM     19  C   UNL     1      -1.193  14.194  21.825  0.00  0.00    +0.000 A 
ATOM     20  C   UNL     1      -2.256  13.883  21.016  0.00  0.00    +0.000 A 
ATOM     21  S   UNL     1      -2.159  12.289  20.430  0.00  0.00    +0.000 S 
ENDBRANCH  10  17
TORSDOF 2
ENDMDL
MODEL 6
REMARK VINA RESULT:      -6.8      1.634      1.891
REMARK  Name = 
REMARK  3 active torsions:
REMARK  status: ('A' for Active; 'I' for Inactive)
REMARK    1  A    between atoms: C_1  and  C_2
REMARK    2  A    between atoms: C_6  and  C_7
REMARK    3  A    between atoms: C_16  and  C_17
REMARK                            x       y       z     vdW  Elec       q    Type
REMARK                         _______ _______ _______ _____ _____    ______ ____
ROOT
ATOM      1  C   UNL     1       3.548   4.429  19.878  0.00  0.00    +0.000 C 
ATOM      2  C   UNL     1       3.232   5.754  19.237  0.00  0.00    +0.000 A 
ATOM      3  N   UNL     1       2.328   6.496  19.947  0.00  0.00    +0.000 NA
ATOM      4  C   UNL     1       2.002   7.709  19.439  0.00  0.00    +0.000 A 
ATOM      5  N   UNL     1       1.112   8.578  20.057  0.00  0.00    +0.000 NA
ATOM      6  C   UNL     1       1.009   9.690  19.353  0.00  0.00    +0.000 A 
ATOM      7  S   UNL     1       1.917   9.708  17.882  0.00  0.00    +0.000 S 
ATOM      8  C   UNL     1       2.533   8.166  18.241  0.00  0.00    +0.000 A 
ATOM      9  C   UNL     1       3.431   7.395  17.508  0.00  0.00    +0.000 A 
ATOM     10  C   UNL     1       3.825   6.154  18.020  0.00  0.00    +0.000 A 
ENDROOT
BRANCH   6  11
ATOM     11  C   UNL     1       0.137  10.843  19.634  0.00  0.00    +0.000 A 
ATOM     12  C   UNL     1       0.646  12.012  20.231  0.00  0.00    +0.000 A 
ATOM     13  C   UNL     1      -0.125  13.169  20.331  0.00  0.00    +0.000 A 
ATOM     14  C   UNL     1      -1.435  13.165  19.865  0.00  0.00    +0.000 A 
ATOM     15  C   UNL     1      -1.980  11.996  19.332  0.00  0.00    +0.000 A 
ATOM     16  C   UNL     1      -1.202  10.838  19.223  0.00  0.00    +0.000 A 
ENDBRANCH   6  11
BRANCH  10  17
ATOM     17  C   UNL     1       4.812   5.363  17.240  0.00  0.00    +0.000 A 
ATOM     18  C   UNL     1       4.646   4.295  16.375  0.00  0.00    +0.000 A 
ATOM     19  C   UNL     1       5.864   3.871  15.761  0.00  0.00    +0.000 A 
ATOM     20  C   UNL     1       6.936   4.629  16.160  0.00  0.00    +0.000 A 
ATOM     21  S   UNL     1       6.494   5.780  17.333  0.00  0.00    +0.000 S 
ENDBRANCH  10  17
TORSDOF 2
ENDMDL
MODEL 7
REMARK VINA RESULT:      -6.8      1.067      1.316
REMARK  Name = 
REMARK  3 active torsions:
REMARK  status: ('A' for Active; 'I' for Inactive)
REMARK    1  A    between atoms: C_1  and  C_2
REMARK    2  A    between atoms: C_6  and  C_7
REMARK    3  A    between atoms: C_16  and  C_17
REMARK                            x       y       z     vdW  Elec       q    Type
REMARK                         _______ _______ _______ _____ _____    ______ ____
ROOT
ATOM      1  C   UNL     1       4.420   4.236  19.546  0.00  0.00    +0.000 C 
ATOM      2  C   UNL     1       3.826   5.536  19.073  0.00  0.00    +0.000 A 
ATOM      3  N   UNL     1       2.924   6.069  19.953  0.00  0.00    +0.000 NA
ATOM      4  C   UNL     1       2.354   7.248  19.603  0.00  0.00    +0.000 A 
ATOM      5  N   UNL     1       1.435   7.916  20.402  0.00  0.00    +0.000 NA
ATOM      6  C   UNL     1       1.073   9.045  19.821  0.00  0.00    +0.000 A 
ATOM      7  S   UNL     1       1.763   9.315  18.259  0.00  0.00    +0.000 S 
ATOM      8  C   UNL     1       2.646   7.870  18.396  0.00  0.00    +0.000 A 
ATOM      9  C   UNL     1       3.543   7.309  17.493  0.00  0.00    +0.000 A 
ATOM     10  C   UNL     1       4.184   6.113  17.836  0.00  0.00    +0.000 A 
ENDROOT
BRANCH   6  11
ATOM     11  C   UNL     1       0.084  10.020  20.311  0.00  0.00    +0.000 A 
ATOM     12  C   UNL     1       0.036  10.389  21.669  0.00  0.00    +0.000 A 
ATOM     13  C   UNL     1      -0.769  11.439  22.105  0.00  0.00    +0.000 A 
ATOM     14  C   UNL     1      -1.568  12.119  21.193  0.00  0.00    +0.000 A 
ATOM     15  C   UNL     1      -1.586  11.724  19.855  0.00  0.00    +0.000 A 
ATOM     16  C   UNL     1      -0.771  10.676  19.415  0.00  0.00    +0.000 A 
ENDBRANCH   6  11
BRANCH  10  17
ATOM     17  C   UNL     1       5.165   5.550  16.873  0.00  0.00    +0.000 A 
ATOM     18  C   UNL     1       6.436   5.967  16.516  0.00  0.00    +0.000 A 
ATOM     19  C   UNL     1       7.083   5.085  15.599  0.00  0.00    +0.000 A 
ATOM     20  C   UNL     1       6.301   4.005  15.280  0.00  0.00    +0.000 A 
ATOM     21  S   UNL     1       4.765   4.101  16.006  0.00  0.00    +0.000 S 
ENDBRANCH  10  17
TORSDOF 2
ENDMDL
MODEL 8
REMARK VINA RESULT:      -6.7      1.217      2.054
REMARK  Name = 
REMARK  3 active torsions:
REMARK  status: ('A' for Active; 'I' for Inactive)
REMARK    1  A    between atoms: C_1  and  C_2
REMARK    2  A    between atoms: C_6  and  C_7
REMARK    3  A    between atoms: C_16  and  C_17
REMARK                            x       y       z     vdW  Elec       q    Type
REMARK                         _______ _______ _______ _____ _____    ______ ____
ROOT
ATOM      1  C   UNL     1       3.109   4.542  20.220  0.00  0.00    +0.000 C 
ATOM      2  C   UNL     1       2.676   5.910  19.769  0.00  0.00    +0.000 A 
ATOM      3  N   UNL     1       1.858   6.541  20.667  0.00  0.00    +0.000 NA
ATOM      4  C   UNL     1       1.436   7.786  20.337  0.00  0.00    +0.000 A 
ATOM      5  N   UNL     1       0.618   8.554  21.155  0.00  0.00    +0.000 NA
ATOM      6  C   UNL     1       0.392   9.725  20.591  0.00  0.00    +0.000 A 
ATOM      7  S   UNL     1       1.090   9.926  19.023  0.00  0.00    +0.000 S 
ATOM      8  C   UNL     1       1.787   8.381  19.133  0.00  0.00    +0.000 A 
ATOM      9  C   UNL     1       2.596   7.723  18.211  0.00  0.00    +0.000 A 
ATOM     10  C   UNL     1       3.087   6.453  18.532  0.00  0.00    +0.000 A 
ENDROOT
BRANCH   6  11
ATOM     11  C   UNL     1      -0.462  10.810  21.105  0.00  0.00    +0.000 A 
ATOM     12  C   UNL     1      -1.182  11.647  20.230  0.00  0.00    +0.000 A 
ATOM     13  C   UNL     1      -2.129  12.550  20.708  0.00  0.00    +0.000 A 
ATOM     14  C   UNL     1      -2.350  12.656  22.077  0.00  0.00    +0.000 A 
ATOM     15  C   UNL     1      -1.598  11.884  22.964  0.00  0.00    +0.000 A 
ATOM     16  C   UNL     1      -0.654  10.970  22.483  0.00  0.00    +0.000 A 
ENDBRANCH   6  11
BRANCH  10  17
ATOM     17  C   UNL     1       3.978   5.784  17.550  0.00  0.00    +0.000 A 
ATOM     18  C   UNL     1       3.967   4.499  17.036  0.00  0.00    +0.000 A 
ATOM     19  C   UNL     1       4.966   4.281  16.038  0.00  0.00    +0.000 A 
ATOM     20  C   UNL     1       5.714   5.405  15.801  0.00  0.00    +0.000 A 
ATOM     21  S   UNL     1       5.279   6.684  16.836  0.00  0.00    +0.000 S 
ENDBRANCH  10  17
TORSDOF 2
ENDMDL
MODEL 9
REMARK VINA RESULT:      -6.7      2.973      4.681
REMARK  Name = 
REMARK  3 active torsions:
REMARK  status: ('A' for Active; 'I' for Inactive)
REMARK    1  A    between atoms: C_1  and  C_2
REMARK    2  A    between atoms: C_6  and  C_7
REMARK    3  A    between atoms: C_16  and  C_17
REMARK                            x       y       z     vdW  Elec       q    Type
REMARK                         _______ _______ _______ _____ _____    ______ ____
ROOT
ATOM      1  C   UNL     1       2.291   8.541  17.733  0.00  0.00    +0.000 C 
ATOM      2  C   UNL     1       1.697   8.687  19.108  0.00  0.00    +0.000 A 
ATOM      3  N   UNL     1       1.079   9.892  19.304  0.00  0.00    +0.000 NA
ATOM      4  C   UNL     1       0.507  10.094  20.516  0.00  0.00    +0.000 A 
ATOM      5  N   UNL     1      -0.169  11.259  20.853  0.00  0.00    +0.000 NA
ATOM      6  C   UNL     1      -0.641  11.164  22.082  0.00  0.00    +0.000 A 
ATOM      7  S   UNL     1      -0.229   9.703  22.910  0.00  0.00    +0.000 S 
ATOM      8  C   UNL     1       0.572   9.140  21.522  0.00  0.00    +0.000 A 
ATOM      9  C   UNL     1       1.226   7.927  21.326  0.00  0.00    +0.000 A 
ATOM     10  C   UNL     1       1.794   7.663  20.075  0.00  0.00    +0.000 A 
ENDROOT
BRANCH   6  11
ATOM     11  C   UNL     1      -1.373  12.196  22.836  0.00  0.00    +0.000 A 
ATOM     12  C   UNL     1      -0.847  13.493  22.995  0.00  0.00    +0.000 A 
ATOM     13  C   UNL     1      -1.610  14.521  23.544  0.00  0.00    +0.000 A 
ATOM     14  C   UNL     1      -2.905  14.261  23.977  0.00  0.00    +0.000 A 
ATOM     15  C   UNL     1      -3.420  12.967  23.891  0.00  0.00    +0.000 A 
ATOM     16  C   UNL     1      -2.658  11.937  23.331  0.00  0.00    +0.000 A 
ENDBRANCH   6  11
BRANCH  10  17
ATOM     17  C   UNL     1       2.456   6.348  19.876  0.00  0.00    +0.000 A 
ATOM     18  C   UNL     1       3.670   6.016  19.300  0.00  0.00    +0.000 A 
ATOM     19  C   UNL     1       3.972   4.622  19.385  0.00  0.00    +0.000 A 
ATOM     20  C   UNL     1       2.990   3.918  20.031  0.00  0.00    +0.000 A 
ATOM     21  S   UNL     1       1.673   4.910  20.451  0.00  0.00    +0.000 S 
ENDBRANCH  10  17
TORSDOF 2
ENDMDL
