MODEL 1
REMARK VINA RESULT:      -8.7      0.000      0.000
REMARK  Name = 
REMARK  9 active torsions:
REMARK  status: ('A' for Active; 'I' for Inactive)
REMARK    1  A    between atoms: N_3  and  C_4
REMARK    2  A    between atoms: C_4  and  C_5
REMARK    3  A    between atoms: C_5  and  C_6
REMARK    4  A    between atoms: C_6  and  C_7
REMARK    5  A    between atoms: C_7  and  C_8
REMARK    6  A    between atoms: C_8  and  C_9
REMARK    7  A    between atoms: C_8  and  C_16
REMARK    8  A    between atoms: N_23  and  C_24
REMARK    9  A    between atoms: C_27  and  N_28
REMARK                            x       y       z     vdW  Elec       q    Type
REMARK                         _______ _______ _______ _____ _____    ______ ____
ROOT
ATOM      1  C   UNL     1       5.864   5.859  18.341  0.00  0.00    +0.000 C 
ENDROOT
BRANCH   1   2
ATOM      2  C   UNL     1       7.337   5.837  17.940  0.00  0.00    +0.000 C 
BRANCH   2   5
ATOM      3  O   UNL     1       7.761   8.489  17.298  0.00  0.00    +0.000 OA
ATOM      4  C   UNL     1       8.249   8.073  18.343  0.00  0.00    +0.000 C 
ATOM      5  N   UNL     1       8.129   6.759  18.737  0.00  0.00    +0.000 N 
ATOM      6  N   UNL     1       8.987   8.812  19.245  0.00  0.00    +0.000 N 
ATOM      7  H   UNL     1       8.171   6.584  19.730  0.00  0.00    +0.000 HD
ATOM      8  H   UNL     1       9.585   8.280  19.862  0.00  0.00    +0.000 HD
BRANCH   6   9
ATOM      9  C   UNL     1       9.166  10.211  19.208  0.00  0.00    +0.000 A 
ATOM     10  C   UNL     1       9.356  10.972  20.368  0.00  0.00    +0.000 A 
ATOM     11  C   UNL     1       9.587  12.348  20.298  0.00  0.00    +0.000 A 
ATOM     12  C   UNL     1       9.628  12.973  19.050  0.00  0.00    +0.000 A 
ATOM     13  C   UNL     1       9.420  12.233  17.879  0.00  0.00    +0.000 A 
ATOM     14  C   UNL     1       9.198  10.851  17.962  0.00  0.00    +0.000 A 
BRANCH  12  15
ATOM     15  N   UNL     1       9.918  14.409  18.974  0.00  0.00    +0.000 N 
ATOM     16  O   UNL     1       9.247  15.173  19.680  0.00  0.00    +0.000 OA
ATOM     17  O   UNL     1      10.827  14.771  18.213  0.00  0.00    +0.000 OA
ENDBRANCH  12  15
ENDBRANCH   6   9
ENDBRANCH   2   5
ENDBRANCH   1   2
BRANCH   1  18
ATOM     18  C   UNL     1       4.962   6.004  17.112  0.00  0.00    +0.000 C 
BRANCH  18  19
ATOM     19  C   UNL     1       3.489   5.817  17.491  0.00  0.00    +0.000 C 
BRANCH  19  20
ATOM     20  C   UNL     1       3.148   6.250  18.940  0.00  0.00    +0.000 C 
BRANCH  20  21
ATOM     21  C   UNL     1       2.324   7.535  19.010  0.00  0.00    +0.000 A 
ATOM     22  C   UNL     1       1.723   7.958  20.211  0.00  0.00    +0.000 A 
ATOM     23  C   UNL     1       0.988   9.144  20.258  0.00  0.00    +0.000 A 
ATOM     24  C   UNL     1       0.855   9.916  19.112  0.00  0.00    +0.000 A 
ATOM     25  F   UNL     1       0.149  11.054  19.160  0.00  0.00    +0.000 F 
ATOM     26  C   UNL     1       1.446   9.526  17.917  0.00  0.00    +0.000 A 
ATOM     27  C   UNL     1       2.179   8.340  17.864  0.00  0.00    +0.000 A 
ENDBRANCH  20  21
BRANCH  20  28
ATOM     28  C   UNL     1       2.481   5.133  19.749  0.00  0.00    +0.000 A 
ATOM     29  C   UNL     1       1.481   4.344  19.148  0.00  0.00    +0.000 A 
ATOM     30  C   UNL     1       0.906   3.276  19.841  0.00  0.00    +0.000 A 
ATOM     31  C   UNL     1       1.330   2.988  21.132  0.00  0.00    +0.000 A 
ATOM     32  F   UNL     1       0.791   1.953  21.790  0.00  0.00    +0.000 F 
ATOM     33  C   UNL     1       2.309   3.753  21.750  0.00  0.00    +0.000 A 
ATOM     34  C   UNL     1       2.881   4.819  21.061  0.00  0.00    +0.000 A 
ENDBRANCH  20  28
ENDBRANCH  19  20
ENDBRANCH  18  19
ENDBRANCH   1  18
TORSDOF 9
ENDMDL
MODEL 2
REMARK VINA RESULT:      -8.6      1.245      1.456
REMARK  Name = 
REMARK  9 active torsions:
REMARK  status: ('A' for Active; 'I' for Inactive)
REMARK    1  A    between atoms: N_3  and  C_4
REMARK    2  A    between atoms: C_4  and  C_5
REMARK    3  A    between atoms: C_5  and  C_6
REMARK    4  A    between atoms: C_6  and  C_7
REMARK    5  A    between atoms: C_7  and  C_8
REMARK    6  A    between atoms: C_8  and  C_9
REMARK    7  A    between atoms: C_8  and  C_16
REMARK    8  A    between atoms: N_23  and  C_24
REMARK    9  A    between atoms: C_27  and  N_28
REMARK                            x       y       z     vdW  Elec       q    Type
REMARK                         _______ _______ _______ _____ _____    ______ ____
ROOT
ATOM      1  C   UNL     1       6.051   4.885  17.653  0.00  0.00    +0.000 C 
ENDROOT
BRANCH   1   2
ATOM      2  C   UNL     1       7.340   5.480  17.091  0.00  0.00    +0.000 C 
BRANCH   2   5
ATOM      3  O   UNL     1       8.523   7.291  18.808  0.00  0.00    +0.000 OA
ATOM      4  C   UNL     1       7.910   7.739  17.845  0.00  0.00    +0.000 C 
ATOM      5  N   UNL     1       7.252   6.924  16.950  0.00  0.00    +0.000 N 
ATOM      6  N   UNL     1       7.762   9.073  17.526  0.00  0.00    +0.000 N 
ATOM      7  H   UNL     1       7.141   7.286  16.015  0.00  0.00    +0.000 HD
ATOM      8  H   UNL     1       6.981   9.296  16.924  0.00  0.00    +0.000 HD
BRANCH   6   9
ATOM      9  C   UNL     1       8.430  10.146  18.153  0.00  0.00    +0.000 A 
ATOM     10  C   UNL     1       9.178   9.980  19.324  0.00  0.00    +0.000 A 
ATOM     11  C   UNL     1       9.876  11.050  19.891  0.00  0.00    +0.000 A 
ATOM     12  C   UNL     1       9.823  12.304  19.279  0.00  0.00    +0.000 A 
ATOM     13  C   UNL     1       9.063  12.495  18.119  0.00  0.00    +0.000 A 
ATOM     14  C   UNL     1       8.375  11.412  17.554  0.00  0.00    +0.000 A 
BRANCH  12  15
ATOM     15  N   UNL     1      10.594  13.415  19.849  0.00  0.00    +0.000 N 
ATOM     16  O   UNL     1      10.662  13.500  21.082  0.00  0.00    +0.000 OA
ATOM     17  O   UNL     1      11.140  14.198  19.059  0.00  0.00    +0.000 OA
ENDBRANCH  12  15
ENDBRANCH   6   9
ENDBRANCH   2   5
ENDBRANCH   1   2
BRANCH   1  18
ATOM     18  C   UNL     1       5.485   5.760  18.776  0.00  0.00    +0.000 C 
BRANCH  18  19
ATOM     19  C   UNL     1       4.231   6.505  18.307  0.00  0.00    +0.000 C 
BRANCH  19  20
ATOM     20  C   UNL     1       3.050   6.450  19.311  0.00  0.00    +0.000 C 
BRANCH  20  21
ATOM     21  C   UNL     1       2.152   7.686  19.257  0.00  0.00    +0.000 A 
ATOM     22  C   UNL     1       1.525   8.189  20.412  0.00  0.00    +0.000 A 
ATOM     23  C   UNL     1       0.723   9.330  20.346  0.00  0.00    +0.000 A 
ATOM     24  C   UNL     1       0.547   9.976  19.129  0.00  0.00    +0.000 A 
ATOM     25  F   UNL     1      -0.224  11.070  19.068  0.00  0.00    +0.000 F 
ATOM     26  C   UNL     1       1.163   9.506  17.977  0.00  0.00    +0.000 A 
ATOM     27  C   UNL     1       1.964   8.364  18.038  0.00  0.00    +0.000 A 
ENDBRANCH  20  21
BRANCH  20  28
ATOM     28  C   UNL     1       2.219   5.170  19.177  0.00  0.00    +0.000 A 
ATOM     29  C   UNL     1       2.154   4.513  17.933  0.00  0.00    +0.000 A 
ATOM     30  C   UNL     1       1.460   3.307  17.802  0.00  0.00    +0.000 A 
ATOM     31  C   UNL     1       0.835   2.751  18.911  0.00  0.00    +0.000 A 
ATOM     32  F   UNL     1       0.184   1.586  18.788  0.00  0.00    +0.000 F 
ATOM     33  C   UNL     1       0.878   3.381  20.146  0.00  0.00    +0.000 A 
ATOM     34  C   UNL     1       1.568   4.583  20.277  0.00  0.00    +0.000 A 
ENDBRANCH  20  28
ENDBRANCH  19  20
ENDBRANCH  18  19
ENDBRANCH   1  18
TORSDOF 9
ENDMDL
MODEL 3
REMARK VINA RESULT:      -8.5      1.238      2.035
REMARK  Name = 
REMARK  9 active torsions:
REMARK  status: ('A' for Active; 'I' for Inactive)
REMARK    1  A    between atoms: N_3  and  C_4
REMARK    2  A    between atoms: C_4  and  C_5
REMARK    3  A    between atoms: C_5  and  C_6
REMARK    4  A    between atoms: C_6  and  C_7
REMARK    5  A    between atoms: C_7  and  C_8
REMARK    6  A    between atoms: C_8  and  C_9
REMARK    7  A    between atoms: C_8  and  C_16
REMARK    8  A    between atoms: N_23  and  C_24
REMARK    9  A    between atoms: C_27  and  N_28
REMARK                            x       y       z     vdW  Elec       q    Type
REMARK                         _______ _______ _______ _____ _____    ______ ____
ROOT
ATOM      1  C   UNL     1       7.395   5.492  18.530  0.00  0.00    +0.000 C 
ENDROOT
BRANCH   1   2
ATOM      2  C   UNL     1       7.548   6.900  17.959  0.00  0.00    +0.000 C 
BRANCH   2   5
ATOM      3  O   UNL     1       7.881   9.627  17.675  0.00  0.00    +0.000 OA
ATOM      4  C   UNL     1       8.549   9.060  18.533  0.00  0.00    +0.000 C 
ATOM      5  N   UNL     1       8.486   7.698  18.731  0.00  0.00    +0.000 N 
ATOM      6  N   UNL     1       9.452   9.659  19.387  0.00  0.00    +0.000 N 
ATOM      7  H   UNL     1       8.709   7.371  19.658  0.00  0.00    +0.000 HD
ATOM      8  H   UNL     1      10.146   9.046  19.791  0.00  0.00    +0.000 HD
BRANCH   6   9
ATOM      9  C   UNL     1       9.640  11.049  19.539  0.00  0.00    +0.000 A 
ATOM     10  C   UNL     1       9.936  11.887  18.457  0.00  0.00    +0.000 A 
ATOM     11  C   UNL     1      10.061  13.269  18.628  0.00  0.00    +0.000 A 
ATOM     12  C   UNL     1       9.889  13.819  19.899  0.00  0.00    +0.000 A 
ATOM     13  C   UNL     1       9.612  12.997  20.998  0.00  0.00    +0.000 A 
ATOM     14  C   UNL     1       9.481  11.613  20.812  0.00  0.00    +0.000 A 
BRANCH  12  15
ATOM     15  N   UNL     1       9.973  15.274  20.069  0.00  0.00    +0.000 N 
ATOM     16  O   UNL     1       9.305  15.986  19.308  0.00  0.00    +0.000 OA
ATOM     17  O   UNL     1      10.703  15.705  20.975  0.00  0.00    +0.000 OA
ENDBRANCH  12  15
ENDBRANCH   6   9
ENDBRANCH   2   5
ENDBRANCH   1   2
BRANCH   1  18
ATOM     18  C   UNL     1       6.117   5.373  19.366  0.00  0.00    +0.000 C 
BRANCH  18  19
ATOM     19  C   UNL     1       4.890   5.796  18.552  0.00  0.00    +0.000 C 
BRANCH  19  20
ATOM     20  C   UNL     1       3.575   5.853  19.371  0.00  0.00    +0.000 C 
BRANCH  20  21
ATOM     21  C   UNL     1       2.776   7.135  19.144  0.00  0.00    +0.000 A 
ATOM     22  C   UNL     1       2.789   7.799  17.903  0.00  0.00    +0.000 A 
ATOM     23  C   UNL     1       2.039   8.960  17.710  0.00  0.00    +0.000 A 
ATOM     24  C   UNL     1       1.267   9.460  18.751  0.00  0.00    +0.000 A 
ATOM     25  F   UNL     1       0.546  10.574  18.563  0.00  0.00    +0.000 F 
ATOM     26  C   UNL     1       1.227   8.818  19.981  0.00  0.00    +0.000 A 
ATOM     27  C   UNL     1       1.978   7.659  20.180  0.00  0.00    +0.000 A 
ENDBRANCH  20  21
BRANCH  20  28
ATOM     28  C   UNL     1       2.692   4.619  19.160  0.00  0.00    +0.000 A 
ATOM     29  C   UNL     1       1.675   4.327  20.089  0.00  0.00    +0.000 A 
ATOM     30  C   UNL     1       0.813   3.247  19.882  0.00  0.00    +0.000 A 
ATOM     31  C   UNL     1       0.958   2.460  18.747  0.00  0.00    +0.000 A 
ATOM     32  F   UNL     1       0.120   1.435  18.541  0.00  0.00    +0.000 F 
ATOM     33  C   UNL     1       1.955   2.722  17.820  0.00  0.00    +0.000 A 
ATOM     34  C   UNL     1       2.817   3.796  18.026  0.00  0.00    +0.000 A 
ENDBRANCH  20  28
ENDBRANCH  19  20
ENDBRANCH  18  19
ENDBRANCH   1  18
TORSDOF 9
ENDMDL
MODEL 4
REMARK VINA RESULT:      -8.5      5.974      8.665
REMARK  Name = 
REMARK  9 active torsions:
REMARK  status: ('A' for Active; 'I' for Inactive)
REMARK    1  A    between atoms: N_3  and  C_4
REMARK    2  A    between atoms: C_4  and  C_5
REMARK    3  A    between atoms: C_5  and  C_6
REMARK    4  A    between atoms: C_6  and  C_7
REMARK    5  A    between atoms: C_7  and  C_8
REMARK    6  A    between atoms: C_8  and  C_9
REMARK    7  A    between atoms: C_8  and  C_16
REMARK    8  A    between atoms: N_23  and  C_24
REMARK    9  A    between atoms: C_27  and  N_28
REMARK                            x       y       z     vdW  Elec       q    Type
REMARK                         _______ _______ _______ _____ _____    ______ ____
ROOT
ATOM      1  C   UNL     1       2.450   9.491  17.401  0.00  0.00    +0.000 C 
ENDROOT
BRANCH   1   2
ATOM      2  C   UNL     1       2.150  10.800  18.127  0.00  0.00    +0.000 C 
BRANCH   2   5
ATOM      3  O   UNL     1       1.128  11.303  20.643  0.00  0.00    +0.000 OA
ATOM      4  C   UNL     1       0.334  11.225  19.713  0.00  0.00    +0.000 C 
ATOM      5  N   UNL     1       0.735  10.940  18.426  0.00  0.00    +0.000 N 
ATOM      6  N   UNL     1      -1.035  11.378  19.800  0.00  0.00    +0.000 N 
ATOM      7  H   UNL     1       0.144  11.290  17.687  0.00  0.00    +0.000 HD
ATOM      8  H   UNL     1      -1.570  10.969  19.047  0.00  0.00    +0.000 HD
BRANCH   6   9
ATOM      9  C   UNL     1      -1.741  11.817  20.940  0.00  0.00    +0.000 A 
ATOM     10  C   UNL     1      -2.812  12.715  20.856  0.00  0.00    +0.000 A 
ATOM     11  C   UNL     1      -3.530  13.088  21.996  0.00  0.00    +0.000 A 
ATOM     12  C   UNL     1      -3.171  12.557  23.236  0.00  0.00    +0.000 A 
ATOM     13  C   UNL     1      -2.091  11.674  23.344  0.00  0.00    +0.000 A 
ATOM     14  C   UNL     1      -1.383  11.300  22.191  0.00  0.00    +0.000 A 
BRANCH  12  15
ATOM     15  N   UNL     1      -3.955  12.913  24.424  0.00  0.00    +0.000 N 
ATOM     16  O   UNL     1      -4.791  12.095  24.832  0.00  0.00    +0.000 OA
ATOM     17  O   UNL     1      -3.725  14.009  24.956  0.00  0.00    +0.000 OA
ENDBRANCH  12  15
ENDBRANCH   6   9
ENDBRANCH   2   5
ENDBRANCH   1   2
BRANCH   1  18
ATOM     18  C   UNL     1       1.649   8.332  18.003  0.00  0.00    +0.000 C 
BRANCH  18  19
ATOM     19  C   UNL     1       2.571   7.357  18.743  0.00  0.00    +0.000 C 
BRANCH  19  20
ATOM     20  C   UNL     1       2.574   5.921  18.160  0.00  0.00    +0.000 C 
BRANCH  20  21
ATOM     21  C   UNL     1       3.886   5.550  17.470  0.00  0.00    +0.000 A 
ATOM     22  C   UNL     1       4.930   6.484  17.328  0.00  0.00    +0.000 A 
ATOM     23  C   UNL     1       6.128   6.122  16.709  0.00  0.00    +0.000 A 
ATOM     24  C   UNL     1       6.293   4.826  16.236  0.00  0.00    +0.000 A 
ATOM     25  F   UNL     1       7.444   4.481  15.643  0.00  0.00    +0.000 F 
ATOM     26  C   UNL     1       5.282   3.884  16.374  0.00  0.00    +0.000 A 
ATOM     27  C   UNL     1       4.082   4.242  16.988  0.00  0.00    +0.000 A 
ENDBRANCH  20  21
BRANCH  20  28
ATOM     28  C   UNL     1       2.189   4.861  19.197  0.00  0.00    +0.000 A 
ATOM     29  C   UNL     1       2.770   4.903  20.479  0.00  0.00    +0.000 A 
ATOM     30  C   UNL     1       2.384   3.990  21.464  0.00  0.00    +0.000 A 
ATOM     31  C   UNL     1       1.415   3.037  21.175  0.00  0.00    +0.000 A 
ATOM     32  F   UNL     1       1.033   2.173  22.125  0.00  0.00    +0.000 F 
ATOM     33  C   UNL     1       0.832   2.970  19.919  0.00  0.00    +0.000 A 
ATOM     34  C   UNL     1       1.217   3.878  18.936  0.00  0.00    +0.000 A 
ENDBRANCH  20  28
ENDBRANCH  19  20
ENDBRANCH  18  19
ENDBRANCH   1  18
TORSDOF 9
ENDMDL
MODEL 5
REMARK VINA RESULT:      -8.4      6.276      8.818
REMARK  Name = 
REMARK  9 active torsions:
REMARK  status: ('A' for Active; 'I' for Inactive)
REMARK    1  A    between atoms: N_3  and  C_4
REMARK    2  A    between atoms: C_4  and  C_5
REMARK    3  A    between atoms: C_5  and  C_6
REMARK    4  A    between atoms: C_6  and  C_7
REMARK    5  A    between atoms: C_7  and  C_8
REMARK    6  A    between atoms: C_8  and  C_9
REMARK    7  A    between atoms: C_8  and  C_16
REMARK    8  A    between atoms: N_23  and  C_24
REMARK    9  A    between atoms: C_27  and  N_28
REMARK                            x       y       z     vdW  Elec       q    Type
REMARK                         _______ _______ _______ _____ _____    ______ ____
ROOT
ATOM      1  C   UNL     1       1.730   9.749  18.281  0.00  0.00    +0.000 C 
ENDROOT
BRANCH   1   2
ATOM      2  C   UNL     1       0.284  10.233  18.360  0.00  0.00    +0.000 C 
BRANCH   2   5
ATOM      3  O   UNL     1      -0.597  12.584  19.511  0.00  0.00    +0.000 OA
ATOM      4  C   UNL     1      -0.623  11.570  20.200  0.00  0.00    +0.000 C 
ATOM      5  N   UNL     1      -0.171  10.355  19.735  0.00  0.00    +0.000 N 
ATOM      6  N   UNL     1      -1.065  11.486  21.505  0.00  0.00    +0.000 N 
ATOM      7  H   UNL     1      -0.583   9.535  20.154  0.00  0.00    +0.000 HD
ATOM      8  H   UNL     1      -0.725  10.694  22.033  0.00  0.00    +0.000 HD
BRANCH   6   9
ATOM      9  C   UNL     1      -1.721  12.512  22.217  0.00  0.00    +0.000 A 
ATOM     10  C   UNL     1      -1.034  13.399  23.055  0.00  0.00    +0.000 A 
ATOM     11  C   UNL     1      -1.702  14.441  23.703  0.00  0.00    +0.000 A 
ATOM     12  C   UNL     1      -3.076  14.598  23.513  0.00  0.00    +0.000 A 
ATOM     13  C   UNL     1      -3.785  13.709  22.695  0.00  0.00    +0.000 A 
ATOM     14  C   UNL     1      -3.102  12.672  22.042  0.00  0.00    +0.000 A 
BRANCH  12  15
ATOM     15  N   UNL     1      -3.768  15.720  24.156  0.00  0.00    +0.000 N 
ATOM     16  O   UNL     1      -3.611  15.875  25.375  0.00  0.00    +0.000 OA
ATOM     17  O   UNL     1      -4.462  16.454  23.438  0.00  0.00    +0.000 OA
ENDBRANCH  12  15
ENDBRANCH   6   9
ENDBRANCH   2   5
ENDBRANCH   1   2
BRANCH   1  18
ATOM     18  C   UNL     1       1.811   8.364  17.631  0.00  0.00    +0.000 C 
BRANCH  18  19
ATOM     19  C   UNL     1       2.643   7.405  18.489  0.00  0.00    +0.000 C 
BRANCH  19  20
ATOM     20  C   UNL     1       2.657   5.943  17.973  0.00  0.00    +0.000 C 
BRANCH  20  21
ATOM     21  C   UNL     1       3.987   5.538  17.340  0.00  0.00    +0.000 A 
ATOM     22  C   UNL     1       4.201   4.237  16.849  0.00  0.00    +0.000 A 
ATOM     23  C   UNL     1       5.418   3.891  16.258  0.00  0.00    +0.000 A 
ATOM     24  C   UNL     1       6.423   4.842  16.148  0.00  0.00    +0.000 A 
ATOM     25  F   UNL     1       7.590   4.508  15.580  0.00  0.00    +0.000 F 
ATOM     26  C   UNL     1       6.234   6.136  16.615  0.00  0.00    +0.000 A 
ATOM     27  C   UNL     1       5.020   6.486  17.209  0.00  0.00    +0.000 A 
ENDBRANCH  20  21
BRANCH  20  28
ATOM     28  C   UNL     1       2.237   4.933  19.045  0.00  0.00    +0.000 A 
ATOM     29  C   UNL     1       2.729   5.071  20.358  0.00  0.00    +0.000 A 
ATOM     30  C   UNL     1       2.307   4.204  21.369  0.00  0.00    +0.000 A 
ATOM     31  C   UNL     1       1.391   3.202  21.076  0.00  0.00    +0.000 A 
ATOM     32  F   UNL     1       0.973   2.382  22.051  0.00  0.00    +0.000 F 
ATOM     33  C   UNL     1       0.895   3.041  19.791  0.00  0.00    +0.000 A 
ATOM     34  C   UNL     1       1.317   3.903  18.782  0.00  0.00    +0.000 A 
ENDBRANCH  20  28
ENDBRANCH  19  20
ENDBRANCH  18  19
ENDBRANCH   1  18
TORSDOF 9
ENDMDL
MODEL 6
REMARK VINA RESULT:      -8.3      1.082      4.173
REMARK  Name = 
REMARK  9 active torsions:
REMARK  status: ('A' for Active; 'I' for Inactive)
REMARK    1  A    between atoms: N_3  and  C_4
REMARK    2  A    between atoms: C_4  and  C_5
REMARK    3  A    between atoms: C_5  and  C_6
REMARK    4  A    between atoms: C_6  and  C_7
REMARK    5  A    between atoms: C_7  and  C_8
REMARK    6  A    between atoms: C_8  and  C_9
REMARK    7  A    between atoms: C_8  and  C_16
REMARK    8  A    between atoms: N_23  and  C_24
REMARK    9  A    between atoms: C_27  and  N_28
REMARK                            x       y       z     vdW  Elec       q    Type
REMARK                         _______ _______ _______ _____ _____    ______ ____
ROOT
ATOM      1  C   UNL     1       7.044   5.409  19.211  0.00  0.00    +0.000 C 
ENDROOT
BRANCH   1   2
ATOM      2  C   UNL     1       7.496   6.493  18.236  0.00  0.00    +0.000 C 
BRANCH   2   5
ATOM      3  O   UNL     1       7.710   9.171  17.592  0.00  0.00    +0.000 OA
ATOM      4  C   UNL     1       8.440   8.739  18.478  0.00  0.00    +0.000 C 
ATOM      5  N   UNL     1       8.440   7.413  18.849  0.00  0.00    +0.000 N 
ATOM      6  N   UNL     1       9.361   9.472  19.199  0.00  0.00    +0.000 N 
ATOM      7  H   UNL     1       8.720   7.214  19.797  0.00  0.00    +0.000 HD
ATOM      8  H   UNL     1      10.097   8.938  19.640  0.00  0.00    +0.000 HD
BRANCH   6   9
ATOM      9  C   UNL     1       9.503  10.875  19.164  0.00  0.00    +0.000 A 
ATOM     10  C   UNL     1       9.798  11.568  17.984  0.00  0.00    +0.000 A 
ATOM     11  C   UNL     1       9.877  12.963  17.968  0.00  0.00    +0.000 A 
ATOM     12  C   UNL     1       9.659  13.675  19.149  0.00  0.00    +0.000 A 
ATOM     13  C   UNL     1       9.382  13.000  20.344  0.00  0.00    +0.000 A 
ATOM     14  C   UNL     1       9.297  11.600  20.345  0.00  0.00    +0.000 A 
BRANCH  12  15
ATOM     15  N   UNL     1       9.695  15.142  19.121  0.00  0.00    +0.000 N 
ATOM     16  O   UNL     1       9.061  15.753  19.992  0.00  0.00    +0.000 OA
ATOM     17  O   UNL     1      10.368  15.682  18.232  0.00  0.00    +0.000 OA
ENDBRANCH  12  15
ENDBRANCH   6   9
ENDBRANCH   2   5
ENDBRANCH   1   2
BRANCH   1  18
ATOM     18  C   UNL     1       5.583   5.019  18.961  0.00  0.00    +0.000 C 
BRANCH  18  19
ATOM     19  C   UNL     1       4.639   6.166  19.340  0.00  0.00    +0.000 C 
BRANCH  19  20
ATOM     20  C   UNL     1       3.346   6.229  18.486  0.00  0.00    +0.000 C 
BRANCH  20  21
ATOM     21  C   UNL     1       2.513   4.951  18.554  0.00  0.00    +0.000 A 
ATOM     22  C   UNL     1       2.498   4.026  17.493  0.00  0.00    +0.000 A 
ATOM     23  C   UNL     1       1.744   2.855  17.581  0.00  0.00    +0.000 A 
ATOM     24  C   UNL     1       1.006   2.598  18.729  0.00  0.00    +0.000 A 
ATOM     25  F   UNL     1       0.283   1.472  18.811  0.00  0.00    +0.000 F 
ATOM     26  C   UNL     1       1.012   3.488  19.794  0.00  0.00    +0.000 A 
ATOM     27  C   UNL     1       1.762   4.662  19.709  0.00  0.00    +0.000 A 
ENDBRANCH  20  21
BRANCH  20  28
ATOM     28  C   UNL     1       2.486   7.455  18.807  0.00  0.00    +0.000 A 
ATOM     29  C   UNL     1       2.104   8.326  17.767  0.00  0.00    +0.000 A 
ATOM     30  C   UNL     1       1.263   9.412  18.023  0.00  0.00    +0.000 A 
ATOM     31  C   UNL     1       0.796   9.630  19.312  0.00  0.00    +0.000 A 
ATOM     32  F   UNL     1      -0.024  10.662  19.553  0.00  0.00    +0.000 F 
ATOM     33  C   UNL     1       1.161   8.792  20.355  0.00  0.00    +0.000 A 
ATOM     34  C   UNL     1       2.001   7.711  20.103  0.00  0.00    +0.000 A 
ENDBRANCH  20  28
ENDBRANCH  19  20
ENDBRANCH  18  19
ENDBRANCH   1  18
TORSDOF 9
ENDMDL
MODEL 7
REMARK VINA RESULT:      -8.3      5.028      8.231
REMARK  Name = 
REMARK  9 active torsions:
REMARK  status: ('A' for Active; 'I' for Inactive)
REMARK    1  A    between atoms: N_3  and  C_4
REMARK    2  A    between atoms: C_4  and  C_5
REMARK    3  A    between atoms: C_5  and  C_6
REMARK    4  A    between atoms: C_6  and  C_7
REMARK    5  A    between atoms: C_7  and  C_8
REMARK    6  A    between atoms: C_8  and  C_9
REMARK    7  A    between atoms: C_8  and  C_16
REMARK    8  A    between atoms: N_23  and  C_24
REMARK    9  A    between atoms: C_27  and  N_28
REMARK                            x       y       z     vdW  Elec       q    Type
REMARK                         _______ _______ _______ _____ _____    ______ ____
ROOT
ATOM      1  C   UNL     1       4.309   3.306  19.037  0.00  0.00    +0.000 C 
ENDROOT
BRANCH   1   2
ATOM      2  C   UNL     1       3.074   3.600  19.885  0.00  0.00    +0.000 C 
BRANCH   2   5
ATOM      3  O   UNL     1       1.741   5.679  18.648  0.00  0.00    +0.000 OA
ATOM      4  C   UNL     1       2.336   5.926  19.691  0.00  0.00    +0.000 C 
ATOM      5  N   UNL     1       3.063   4.971  20.367  0.00  0.00    +0.000 N 
ATOM      6  N   UNL     1       2.395   7.153  20.320  0.00  0.00    +0.000 N 
ATOM      7  H   UNL     1       3.163   5.106  21.361  0.00  0.00    +0.000 HD
ATOM      8  H   UNL     1       3.168   7.281  20.959  0.00  0.00    +0.000 HD
BRANCH   6   9
ATOM      9  C   UNL     1       1.645   8.294  19.966  0.00  0.00    +0.000 A 
ATOM     10  C   UNL     1       1.751   8.900  18.709  0.00  0.00    +0.000 A 
ATOM     11  C   UNL     1       0.954   9.996  18.366  0.00  0.00    +0.000 A 
ATOM     12  C   UNL     1       0.038  10.492  19.295  0.00  0.00    +0.000 A 
ATOM     13  C   UNL     1      -0.070   9.914  20.565  0.00  0.00    +0.000 A 
ATOM     14  C   UNL     1       0.730   8.809  20.894  0.00  0.00    +0.000 A 
BRANCH  12  15
ATOM     15  N   UNL     1      -0.833  11.612  18.918  0.00  0.00    +0.000 N 
ATOM     16  O   UNL     1      -0.295  12.660  18.536  0.00  0.00    +0.000 OA
ATOM     17  O   UNL     1      -2.058  11.438  18.994  0.00  0.00    +0.000 OA
ENDBRANCH  12  15
ENDBRANCH   6   9
ENDBRANCH   2   5
ENDBRANCH   1   2
BRANCH   1  18
ATOM     18  C   UNL     1       3.970   3.331  17.543  0.00  0.00    +0.000 C 
BRANCH  18  19
ATOM     19  C   UNL     1       4.548   4.581  16.872  0.00  0.00    +0.000 C 
BRANCH  19  20
ATOM     20  C   UNL     1       6.067   4.493  16.571  0.00  0.00    +0.000 C 
BRANCH  20  21
ATOM     21  C   UNL     1       6.384   4.413  15.079  0.00  0.00    +0.000 A 
ATOM     22  C   UNL     1       5.563   3.692  14.191  0.00  0.00    +0.000 A 
ATOM     23  C   UNL     1       5.860   3.644  12.828  0.00  0.00    +0.000 A 
ATOM     24  C   UNL     1       6.972   4.321  12.343  0.00  0.00    +0.000 A 
ATOM     25  F   UNL     1       7.254   4.274  11.034  0.00  0.00    +0.000 F 
ATOM     26  C   UNL     1       7.791   5.048  13.196  0.00  0.00    +0.000 A 
ATOM     27  C   UNL     1       7.500   5.096  14.560  0.00  0.00    +0.000 A 
ENDBRANCH  20  21
BRANCH  20  28
ATOM     28  C   UNL     1       6.868   5.617  17.236  0.00  0.00    +0.000 A 
ATOM     29  C   UNL     1       6.762   6.931  16.739  0.00  0.00    +0.000 A 
ATOM     30  C   UNL     1       7.428   7.984  17.370  0.00  0.00    +0.000 A 
ATOM     31  C   UNL     1       8.196   7.733  18.500  0.00  0.00    +0.000 A 
ATOM     32  F   UNL     1       8.820   8.747  19.115  0.00  0.00    +0.000 F 
ATOM     33  C   UNL     1       8.321   6.448  19.007  0.00  0.00    +0.000 A 
ATOM     34  C   UNL     1       7.659   5.397  18.377  0.00  0.00    +0.000 A 
ENDBRANCH  20  28
ENDBRANCH  19  20
ENDBRANCH  18  19
ENDBRANCH   1  18
TORSDOF 9
ENDMDL
MODEL 8
REMARK VINA RESULT:      -8.3      5.060      8.001
REMARK  Name = 
REMARK  9 active torsions:
REMARK  status: ('A' for Active; 'I' for Inactive)
REMARK    1  A    between atoms: N_3  and  C_4
REMARK    2  A    between atoms: C_4  and  C_5
REMARK    3  A    between atoms: C_5  and  C_6
REMARK    4  A    between atoms: C_6  and  C_7
REMARK    5  A    between atoms: C_7  and  C_8
REMARK    6  A    between atoms: C_8  and  C_9
REMARK    7  A    between atoms: C_8  and  C_16
REMARK    8  A    between atoms: N_23  and  C_24
REMARK    9  A    between atoms: C_27  and  N_28
REMARK                            x       y       z     vdW  Elec       q    Type
REMARK                         _______ _______ _______ _____ _____    ______ ____
ROOT
ATOM      1  C   UNL     1       4.138   3.176  19.157  0.00  0.00    +0.000 C 
ENDROOT
BRANCH   1   2
ATOM      2  C   UNL     1       2.922   3.531  20.009  0.00  0.00    +0.000 C 
BRANCH   2   5
ATOM      3  O   UNL     1       1.778   5.623  18.615  0.00  0.00    +0.000 OA
ATOM      4  C   UNL     1       2.318   5.882  19.685  0.00  0.00    +0.000 C 
ATOM      5  N   UNL     1       2.950   4.919  20.440  0.00  0.00    +0.000 N 
ATOM      6  N   UNL     1       2.400   7.128  20.272  0.00  0.00    +0.000 N 
ATOM      7  H   UNL     1       2.994   5.088  21.433  0.00  0.00    +0.000 HD
ATOM      8  H   UNL     1       3.136   7.243  20.955  0.00  0.00    +0.000 HD
BRANCH   6   9
ATOM      9  C   UNL     1       1.733   8.290  19.829  0.00  0.00    +0.000 A 
ATOM     10  C   UNL     1       1.862   8.776  18.523  0.00  0.00    +0.000 A 
ATOM     11  C   UNL     1       1.144   9.896  18.096  0.00  0.00    +0.000 A 
ATOM     12  C   UNL     1       0.287  10.541  18.989  0.00  0.00    +0.000 A 
ATOM     13  C   UNL     1       0.159  10.084  20.306  0.00  0.00    +0.000 A 
ATOM     14  C   UNL     1       0.878   8.952  20.720  0.00  0.00    +0.000 A 
BRANCH  12  15
ATOM     15  N   UNL     1      -0.501  11.689  18.527  0.00  0.00    +0.000 N 
ATOM     16  O   UNL     1       0.006  12.815  18.619  0.00  0.00    +0.000 OA
ATOM     17  O   UNL     1      -1.628  11.462  18.063  0.00  0.00    +0.000 OA
ENDBRANCH  12  15
ENDBRANCH   6   9
ENDBRANCH   2   5
ENDBRANCH   1   2
BRANCH   1  18
ATOM     18  C   UNL     1       3.792   3.207  17.665  0.00  0.00    +0.000 C 
BRANCH  18  19
ATOM     19  C   UNL     1       5.063   3.217  16.809  0.00  0.00    +0.000 C 
BRANCH  19  20
ATOM     20  C   UNL     1       5.360   4.580  16.131  0.00  0.00    +0.000 C 
BRANCH  20  21
ATOM     21  C   UNL     1       6.278   5.479  16.957  0.00  0.00    +0.000 A 
ATOM     22  C   UNL     1       7.145   4.948  17.931  0.00  0.00    +0.000 A 
ATOM     23  C   UNL     1       7.989   5.785  18.664  0.00  0.00    +0.000 A 
ATOM     24  C   UNL     1       7.977   7.152  18.425  0.00  0.00    +0.000 A 
ATOM     25  F   UNL     1       8.789   7.953  19.129  0.00  0.00    +0.000 F 
ATOM     26  C   UNL     1       7.140   7.701  17.462  0.00  0.00    +0.000 A 
ATOM     27  C   UNL     1       6.292   6.868  16.729  0.00  0.00    +0.000 A 
ENDBRANCH  20  21
BRANCH  20  28
ATOM     28  C   UNL     1       5.892   4.427  14.703  0.00  0.00    +0.000 A 
ATOM     29  C   UNL     1       7.115   5.031  14.351  0.00  0.00    +0.000 A 
ATOM     30  C   UNL     1       7.656   4.849  13.076  0.00  0.00    +0.000 A 
ATOM     31  C   UNL     1       6.983   4.061  12.151  0.00  0.00    +0.000 A 
ATOM     32  F   UNL     1       7.511   3.872  10.934  0.00  0.00    +0.000 F 
ATOM     33  C   UNL     1       5.774   3.460  12.470  0.00  0.00    +0.000 A 
ATOM     34  C   UNL     1       5.233   3.642  13.740  0.00  0.00    +0.000 A 
ENDBRANCH  20  28
ENDBRANCH  19  20
ENDBRANCH  18  19
ENDBRANCH   1  18
TORSDOF 9
ENDMDL
MODEL 9
REMARK VINA RESULT:      -8.2      5.136      8.156
REMARK  Name = 
REMARK  9 active torsions:
REMARK  status: ('A' for Active; 'I' for Inactive)
REMARK    1  A    between atoms: N_3  and  C_4
REMARK    2  A    between atoms: C_4  and  C_5
REMARK    3  A    between atoms: C_5  and  C_6
REMARK    4  A    between atoms: C_6  and  C_7
REMARK    5  A    between atoms: C_7  and  C_8
REMARK    6  A    between atoms: C_8  and  C_9
REMARK    7  A    between atoms: C_8  and  C_16
REMARK    8  A    between atoms: N_23  and  C_24
REMARK    9  A    between atoms: C_27  and  N_28
REMARK                            x       y       z     vdW  Elec       q    Type
REMARK                         _______ _______ _______ _____ _____    ______ ____
ROOT
ATOM      1  C   UNL     1       4.106   3.080  18.946  0.00  0.00    +0.000 C 
ENDROOT
BRANCH   1   2
ATOM      2  C   UNL     1       2.773   3.310  19.654  0.00  0.00    +0.000 C 
BRANCH   2   5
ATOM      3  O   UNL     1       1.887   5.700  18.590  0.00  0.00    +0.000 OA
ATOM      4  C   UNL     1       2.258   5.702  19.758  0.00  0.00    +0.000 C 
ATOM      5  N   UNL     1       2.754   4.573  20.373  0.00  0.00    +0.000 N 
ATOM      6  N   UNL     1       2.267   6.791  20.605  0.00  0.00    +0.000 N 
ATOM      7  H   UNL     1       2.646   4.527  21.375  0.00  0.00    +0.000 HD
ATOM      8  H   UNL     1       2.890   6.725  21.398  0.00  0.00    +0.000 HD
BRANCH   6   9
ATOM      9  C   UNL     1       1.691   8.049  20.330  0.00  0.00    +0.000 A 
ATOM     10  C   UNL     1       1.689   8.607  19.045  0.00  0.00    +0.000 A 
ATOM     11  C   UNL     1       1.061   9.829  18.791  0.00  0.00    +0.000 A 
ATOM     12  C   UNL     1       0.429  10.505  19.836  0.00  0.00    +0.000 A 
ATOM     13  C   UNL     1       0.438   9.975  21.132  0.00  0.00    +0.000 A 
ATOM     14  C   UNL     1       1.063   8.742  21.373  0.00  0.00    +0.000 A 
BRANCH  12  15
ATOM     15  N   UNL     1      -0.270  11.765  19.559  0.00  0.00    +0.000 N 
ATOM     16  O   UNL     1      -0.615  11.991  18.392  0.00  0.00    +0.000 OA
ATOM     17  O   UNL     1      -0.483  12.525  20.515  0.00  0.00    +0.000 OA
ENDBRANCH  12  15
ENDBRANCH   6   9
ENDBRANCH   2   5
ENDBRANCH   1   2
BRANCH   1  18
ATOM     18  C   UNL     1       3.910   2.948  17.432  0.00  0.00    +0.000 C 
BRANCH  18  19
ATOM     19  C   UNL     1       4.403   4.204  16.706  0.00  0.00    +0.000 C 
BRANCH  19  20
ATOM     20  C   UNL     1       5.931   4.225  16.444  0.00  0.00    +0.000 C 
BRANCH  20  21
ATOM     21  C   UNL     1       6.291   4.232  14.959  0.00  0.00    +0.000 A 
ATOM     22  C   UNL     1       5.514   3.539  14.012  0.00  0.00    +0.000 A 
ATOM     23  C   UNL     1       5.849   3.571  12.657  0.00  0.00    +0.000 A 
ATOM     24  C   UNL     1       6.955   4.300  12.241  0.00  0.00    +0.000 A 
ATOM     25  F   UNL     1       7.275   4.330  10.939  0.00  0.00    +0.000 F 
ATOM     26  C   UNL     1       7.732   5.002  13.153  0.00  0.00    +0.000 A 
ATOM     27  C   UNL     1       7.402   4.969  14.509  0.00  0.00    +0.000 A 
ENDBRANCH  20  21
BRANCH  20  28
ATOM     28  C   UNL     1       6.641   5.367  17.180  0.00  0.00    +0.000 A 
ATOM     29  C   UNL     1       7.516   5.068  18.242  0.00  0.00    +0.000 A 
ATOM     30  C   UNL     1       8.227   6.085  18.883  0.00  0.00    +0.000 A 
ATOM     31  C   UNL     1       8.073   7.400  18.465  0.00  0.00    +0.000 A 
ATOM     32  F   UNL     1       8.769   8.373  19.069  0.00  0.00    +0.000 F 
ATOM     33  C   UNL     1       7.214   7.722  17.425  0.00  0.00    +0.000 A 
ATOM     34  C   UNL     1       6.502   6.710  16.786  0.00  0.00    +0.000 A 
ENDBRANCH  20  28
ENDBRANCH  19  20
ENDBRANCH  18  19
ENDBRANCH   1  18
TORSDOF 9
ENDMDL
