MODEL 1
REMARK VINA RESULT:      -7.0      0.000      0.000
REMARK  Name = 
REMARK  13 active torsions:
REMARK  status: ('A' for Active; 'I' for Inactive)
REMARK    1  A    between atoms: C_1  and  O_2
REMARK    2  A    between atoms: O_2  and  C_3
REMARK    3  A    between atoms: C_3  and  C_5
REMARK    4  A    between atoms: C_6  and  C_7
REMARK    5  A    between atoms: C_9  and  C_10
REMARK    6  A    between atoms: C_12  and  O_13
REMARK    7  A    between atoms: C_12  and  O_14
REMARK    8  A    between atoms: O_14  and  C_15
REMARK    9  A    between atoms: C_16  and  C_17
REMARK   10  A    between atoms: C_17  and  O_19
REMARK   11  A    between atoms: O_19  and  C_20
REMARK   12  A    between atoms: C_20  and  C_21
REMARK   13  A    between atoms: C_28  and  C_29
REMARK                            x       y       z     vdW  Elec       q    Type
REMARK                         _______ _______ _______ _____ _____    ______ ____
ROOT
ATOM      1  C   UNL     1       3.498   4.501  18.408  0.00  0.00    +0.000 C 
ATOM      2  C   UNL     1       3.365   3.525  17.486  0.00  0.00    +0.000 C 
ATOM      3  C   UNL     1       2.425   2.341  17.548  0.00  0.00    +0.000 C 
ATOM      4  N   UNL     1       4.121   3.481  16.338  0.00  0.00    +0.000 NA
ATOM      5  C   UNL     1       5.118   4.287  16.159  0.00  0.00    +0.000 C 
ATOM      6  C   UNL     1       5.908   4.035  14.891  0.00  0.00    +0.000 C 
ATOM      7  C   UNL     1       5.503   5.385  17.104  0.00  0.00    +0.000 C 
ATOM      8  C   UNL     1       6.629   6.131  17.049  0.00  0.00    +0.000 C 
ATOM      9  C   UNL     1       4.456   5.648  18.179  0.00  0.00    +0.000 C 
ENDROOT
BRANCH   1  10
ATOM     10  C   UNL     1       2.725   4.495  19.687  0.00  0.00    +0.000 C 
ATOM     11  O   UNL     1       1.630   5.000  19.865  0.00  0.00    +0.000 OA
BRANCH  10  13
ATOM     12  C   UNL     1       2.587   2.827  21.311  0.00  0.00    +0.000 C 
ATOM     13  O   UNL     1       3.397   3.790  20.635  0.00  0.00    +0.000 OA
ENDBRANCH  10  13
ENDBRANCH   1  10
BRANCH   8  14
ATOM     14  O   UNL     1       7.565   6.028  16.048  0.00  0.00    +0.000 OA
ATOM     15  H   UNL     1       7.509   5.122  15.701  0.00  0.00    +0.000 HD
ENDBRANCH   8  14
BRANCH   8  16
ATOM     16  O   UNL     1       6.830   7.094  18.027  0.00  0.00    +0.000 OA
ATOM     17  C   UNL     1       7.801   8.083  17.695  0.00  0.00    +0.000 C 
ENDBRANCH   8  16
BRANCH   9  18
ATOM     18  C   UNL     1       3.626   6.910  17.849  0.00  0.00    +0.000 C 
ATOM     19  O   UNL     1       3.448   7.342  16.715  0.00  0.00    +0.000 OA
BRANCH  18  20
ATOM     20  O   UNL     1       3.061   7.465  18.963  0.00  0.00    +0.000 OA
BRANCH  20  21
ATOM     21  C   UNL     1       2.010   8.399  18.724  0.00  0.00    +0.000 C 
BRANCH  21  22
ATOM     22  C   UNL     1       1.238   8.757  20.000  0.00  0.00    +0.000 C 
ATOM     23  O   UNL     1       1.428   8.134  21.041  0.00  0.00    +0.000 OA
ATOM     24  N   UNL     1       0.331   9.810  19.915  0.00  0.00    +0.000 N 
ATOM     25  C   UNL     1      -0.262  10.320  21.154  0.00  0.00    +0.000 C 
ATOM     26  C   UNL     1       0.066  11.802  21.330  0.00  0.00    +0.000 C 
ATOM     27  C   UNL     1      -0.303  12.622  20.094  0.00  0.00    +0.000 C 
ATOM     28  C   UNL     1       0.295  12.012  18.826  0.00  0.00    +0.000 C 
ATOM     29  C   UNL     1      -0.047  10.522  18.681  0.00  0.00    +0.000 C 
ATOM     30  C   UNL     1      -1.523  10.291  18.333  0.00  0.00    +0.000 C 
ENDBRANCH  21  22
ENDBRANCH  20  21
ENDBRANCH  18  20
ENDBRANCH   9  18
TORSDOF 8
ENDMDL
MODEL 2
REMARK VINA RESULT:      -7.0      3.113      8.351
REMARK  Name = 
REMARK  13 active torsions:
REMARK  status: ('A' for Active; 'I' for Inactive)
REMARK    1  A    between atoms: C_1  and  O_2
REMARK    2  A    between atoms: O_2  and  C_3
REMARK    3  A    between atoms: C_3  and  C_5
REMARK    4  A    between atoms: C_6  and  C_7
REMARK    5  A    between atoms: C_9  and  C_10
REMARK    6  A    between atoms: C_12  and  O_13
REMARK    7  A    between atoms: C_12  and  O_14
REMARK    8  A    between atoms: O_14  and  C_15
REMARK    9  A    between atoms: C_16  and  C_17
REMARK   10  A    between atoms: C_17  and  O_19
REMARK   11  A    between atoms: O_19  and  C_20
REMARK   12  A    between atoms: C_20  and  C_21
REMARK   13  A    between atoms: C_28  and  C_29
REMARK                            x       y       z     vdW  Elec       q    Type
REMARK                         _______ _______ _______ _____ _____    ______ ____
ROOT
ATOM      1  C   UNL     1       4.292   6.071  17.893  0.00  0.00    +0.000 C 
ATOM      2  C   UNL     1       3.209   6.795  18.244  0.00  0.00    +0.000 C 
ATOM      3  C   UNL     1       2.907   8.223  17.848  0.00  0.00    +0.000 C 
ATOM      4  N   UNL     1       2.218   6.299  19.058  0.00  0.00    +0.000 NA
ATOM      5  C   UNL     1       2.352   5.164  19.666  0.00  0.00    +0.000 C 
ATOM      6  C   UNL     1       1.215   4.818  20.605  0.00  0.00    +0.000 C 
ATOM      7  C   UNL     1       3.521   4.243  19.496  0.00  0.00    +0.000 C 
ATOM      8  C   UNL     1       3.788   3.142  20.234  0.00  0.00    +0.000 C 
ATOM      9  C   UNL     1       4.429   4.631  18.335  0.00  0.00    +0.000 C 
ENDROOT
BRANCH   1  10
ATOM     10  C   UNL     1       5.399   6.646  17.071  0.00  0.00    +0.000 C 
ATOM     11  O   UNL     1       5.301   7.066  15.931  0.00  0.00    +0.000 OA
BRANCH  10  13
ATOM     12  C   UNL     1       7.407   7.772  17.443  0.00  0.00    +0.000 C 
ATOM     13  O   UNL     1       6.547   6.688  17.798  0.00  0.00    +0.000 OA
ENDBRANCH  10  13
ENDBRANCH   1  10
BRANCH   8  14
ATOM     14  O   UNL     1       2.961   2.667  21.222  0.00  0.00    +0.000 OA
ATOM     15  H   UNL     1       2.345   2.044  20.800  0.00  0.00    +0.000 HD
ENDBRANCH   8  14
BRANCH   8  16
ATOM     16  O   UNL     1       4.936   2.418  19.946  0.00  0.00    +0.000 OA
ATOM     17  C   UNL     1       5.200   1.344  20.845  0.00  0.00    +0.000 C 
ENDBRANCH   8  16
BRANCH   9  18
ATOM     18  C   UNL     1       4.180   3.725  17.108  0.00  0.00    +0.000 C 
ATOM     19  O   UNL     1       3.111   3.178  16.859  0.00  0.00    +0.000 OA
BRANCH  18  20
ATOM     20  O   UNL     1       5.275   3.643  16.293  0.00  0.00    +0.000 OA
BRANCH  20  21
ATOM     21  C   UNL     1       5.001   3.447  14.907  0.00  0.00    +0.000 C 
BRANCH  21  22
ATOM     22  C   UNL     1       6.121   3.978  14.004  0.00  0.00    +0.000 C 
ATOM     23  O   UNL     1       6.981   4.731  14.453  0.00  0.00    +0.000 OA
ATOM     24  N   UNL     1       6.111   3.564  12.674  0.00  0.00    +0.000 N 
ATOM     25  C   UNL     1       7.275   3.872  11.840  0.00  0.00    +0.000 C 
ATOM     26  C   UNL     1       7.896   2.586  11.297  0.00  0.00    +0.000 C 
ATOM     27  C   UNL     1       6.863   1.699  10.602  0.00  0.00    +0.000 C 
ATOM     28  C   UNL     1       5.646   1.459  11.496  0.00  0.00    +0.000 C 
ATOM     29  C   UNL     1       5.050   2.769  12.030  0.00  0.00    +0.000 C 
ATOM     30  C   UNL     1       4.334   3.574  10.939  0.00  0.00    +0.000 C 
ENDBRANCH  21  22
ENDBRANCH  20  21
ENDBRANCH  18  20
ENDBRANCH   9  18
TORSDOF 8
ENDMDL
MODEL 3
REMARK VINA RESULT:      -6.8      1.036      1.610
REMARK  Name = 
REMARK  13 active torsions:
REMARK  status: ('A' for Active; 'I' for Inactive)
REMARK    1  A    between atoms: C_1  and  O_2
REMARK    2  A    between atoms: O_2  and  C_3
REMARK    3  A    between atoms: C_3  and  C_5
REMARK    4  A    between atoms: C_6  and  C_7
REMARK    5  A    between atoms: C_9  and  C_10
REMARK    6  A    between atoms: C_12  and  O_13
REMARK    7  A    between atoms: C_12  and  O_14
REMARK    8  A    between atoms: O_14  and  C_15
REMARK    9  A    between atoms: C_16  and  C_17
REMARK   10  A    between atoms: C_17  and  O_19
REMARK   11  A    between atoms: O_19  and  C_20
REMARK   12  A    between atoms: C_20  and  C_21
REMARK   13  A    between atoms: C_28  and  C_29
REMARK                            x       y       z     vdW  Elec       q    Type
REMARK                         _______ _______ _______ _____ _____    ______ ____
ROOT
ATOM      1  C   UNL     1       3.438   4.947  18.260  0.00  0.00    +0.000 C 
ATOM      2  C   UNL     1       3.401   3.871  17.447  0.00  0.00    +0.000 C 
ATOM      3  C   UNL     1       2.456   2.693  17.545  0.00  0.00    +0.000 C 
ATOM      4  N   UNL     1       4.274   3.703  16.399  0.00  0.00    +0.000 NA
ATOM      5  C   UNL     1       5.287   4.493  16.234  0.00  0.00    +0.000 C 
ATOM      6  C   UNL     1       6.206   4.105  15.095  0.00  0.00    +0.000 C 
ATOM      7  C   UNL     1       5.572   5.695  17.083  0.00  0.00    +0.000 C 
ATOM      8  C   UNL     1       6.700   6.440  17.062  0.00  0.00    +0.000 C 
ATOM      9  C   UNL     1       4.418   6.070  18.004  0.00  0.00    +0.000 C 
ENDROOT
BRANCH   1  10
ATOM     10  C   UNL     1       2.534   5.081  19.442  0.00  0.00    +0.000 C 
ATOM     11  O   UNL     1       1.383   5.484  19.423  0.00  0.00    +0.000 OA
BRANCH  10  13
ATOM     12  C   UNL     1       2.365   3.739  21.343  0.00  0.00    +0.000 C 
ATOM     13  O   UNL     1       3.161   4.633  20.563  0.00  0.00    +0.000 OA
ENDBRANCH  10  13
ENDBRANCH   1  10
BRANCH   8  14
ATOM     14  O   UNL     1       7.737   6.233  16.184  0.00  0.00    +0.000 OA
ATOM     15  H   UNL     1       8.305   7.021  16.226  0.00  0.00    +0.000 HD
ENDBRANCH   8  14
BRANCH   8  16
ATOM     16  O   UNL     1       6.799   7.510  17.940  0.00  0.00    +0.000 OA
ATOM     17  C   UNL     1       7.884   8.396  17.675  0.00  0.00    +0.000 C 
ENDBRANCH   8  16
BRANCH   9  18
ATOM     18  C   UNL     1       3.631   7.277  17.445  0.00  0.00    +0.000 C 
ATOM     19  O   UNL     1       3.631   7.616  16.266  0.00  0.00    +0.000 OA
BRANCH  18  20
ATOM     20  O   UNL     1       2.885   7.900  18.407  0.00  0.00    +0.000 OA
BRANCH  20  21
ATOM     21  C   UNL     1       1.730   8.595  17.940  0.00  0.00    +0.000 C 
BRANCH  21  22
ATOM     22  C   UNL     1       1.855  10.116  18.097  0.00  0.00    +0.000 C 
ATOM     23  O   UNL     1       2.793  10.722  17.588  0.00  0.00    +0.000 OA
ATOM     24  N   UNL     1       0.861  10.758  18.833  0.00  0.00    +0.000 N 
ATOM     25  C   UNL     1       0.825  12.223  18.823  0.00  0.00    +0.000 C 
ATOM     26  C   UNL     1      -0.513  12.719  18.279  0.00  0.00    +0.000 C 
ATOM     27  C   UNL     1      -1.699  12.083  19.005  0.00  0.00    +0.000 C 
ATOM     28  C   UNL     1      -1.579  10.559  19.033  0.00  0.00    +0.000 C 
ATOM     29  C   UNL     1      -0.222  10.093  19.579  0.00  0.00    +0.000 C 
ATOM     30  C   UNL     1      -0.085  10.328  21.088  0.00  0.00    +0.000 C 
ENDBRANCH  21  22
ENDBRANCH  20  21
ENDBRANCH  18  20
ENDBRANCH   9  18
TORSDOF 8
ENDMDL
MODEL 4
REMARK VINA RESULT:      -6.7      1.206      1.287
REMARK  Name = 
REMARK  13 active torsions:
REMARK  status: ('A' for Active; 'I' for Inactive)
REMARK    1  A    between atoms: C_1  and  O_2
REMARK    2  A    between atoms: O_2  and  C_3
REMARK    3  A    between atoms: C_3  and  C_5
REMARK    4  A    between atoms: C_6  and  C_7
REMARK    5  A    between atoms: C_9  and  C_10
REMARK    6  A    between atoms: C_12  and  O_13
REMARK    7  A    between atoms: C_12  and  O_14
REMARK    8  A    between atoms: O_14  and  C_15
REMARK    9  A    between atoms: C_16  and  C_17
REMARK   10  A    between atoms: C_17  and  O_19
REMARK   11  A    between atoms: O_19  and  C_20
REMARK   12  A    between atoms: C_20  and  C_21
REMARK   13  A    between atoms: C_28  and  C_29
REMARK                            x       y       z     vdW  Elec       q    Type
REMARK                         _______ _______ _______ _____ _____    ______ ____
ROOT
ATOM      1  C   UNL     1       2.602   4.152  19.335  0.00  0.00    +0.000 C 
ATOM      2  C   UNL     1       2.267   3.222  18.416  0.00  0.00    +0.000 C 
ATOM      3  C   UNL     1       1.023   2.361  18.410  0.00  0.00    +0.000 C 
ATOM      4  N   UNL     1       3.068   2.921  17.340  0.00  0.00    +0.000 NA
ATOM      5  C   UNL     1       4.266   3.400  17.238  0.00  0.00    +0.000 C 
ATOM      6  C   UNL     1       5.048   2.885  16.047  0.00  0.00    +0.000 C 
ATOM      7  C   UNL     1       4.875   4.374  18.200  0.00  0.00    +0.000 C 
ATOM      8  C   UNL     1       6.170   4.763  18.235  0.00  0.00    +0.000 C 
ATOM      9  C   UNL     1       3.866   4.966  19.176  0.00  0.00    +0.000 C 
ENDROOT
BRANCH   1  10
ATOM     10  C   UNL     1       1.761   4.415  20.541  0.00  0.00    +0.000 C 
ATOM     11  O   UNL     1       0.706   5.025  20.560  0.00  0.00    +0.000 OA
BRANCH  10  13
ATOM     12  C   UNL     1       1.701   2.583  21.984  0.00  0.00    +0.000 C 
ATOM     13  O   UNL     1       2.315   3.825  21.634  0.00  0.00    +0.000 OA
ENDBRANCH  10  13
ENDBRANCH   1  10
BRANCH   8  14
ATOM     14  O   UNL     1       7.113   4.359  17.321  0.00  0.00    +0.000 OA
ATOM     15  H   UNL     1       7.955   4.280  17.800  0.00  0.00    +0.000 HD
ENDBRANCH   8  14
BRANCH   8  16
ATOM     16  O   UNL     1       6.562   5.662  19.215  0.00  0.00    +0.000 OA
ATOM     17  C   UNL     1       7.897   6.142  19.080  0.00  0.00    +0.000 C 
ENDBRANCH   8  16
BRANCH   9  18
ATOM     18  C   UNL     1       3.466   6.400  18.760  0.00  0.00    +0.000 C 
ATOM     19  O   UNL     1       3.670   6.879  17.649  0.00  0.00    +0.000 OA
BRANCH  18  20
ATOM     20  O   UNL     1       2.805   7.064  19.755  0.00  0.00    +0.000 OA
BRANCH  20  21
ATOM     21  C   UNL     1       1.998   8.164  19.337  0.00  0.00    +0.000 C 
BRANCH  21  22
ATOM     22  C   UNL     1       1.141   8.731  20.474  0.00  0.00    +0.000 C 
ATOM     23  O   UNL     1       1.171   8.225  21.593  0.00  0.00    +0.000 OA
ATOM     24  N   UNL     1       0.345   9.834  20.175  0.00  0.00    +0.000 N 
ATOM     25  C   UNL     1      -0.318  10.535  21.277  0.00  0.00    +0.000 C 
ATOM     26  C   UNL     1       0.122  11.997  21.321  0.00  0.00    +0.000 C 
ATOM     27  C   UNL     1      -0.048  12.688  19.968  0.00  0.00    +0.000 C 
ATOM     28  C   UNL     1       0.614  11.885  18.848  0.00  0.00    +0.000 C 
ATOM     29  C   UNL     1       0.156  10.420  18.835  0.00  0.00    +0.000 C 
ATOM     30  C   UNL     1      -1.294  10.264  18.358  0.00  0.00    +0.000 C 
ENDBRANCH  21  22
ENDBRANCH  20  21
ENDBRANCH  18  20
ENDBRANCH   9  18
TORSDOF 8
ENDMDL
MODEL 5
REMARK VINA RESULT:      -6.6      4.177      8.140
REMARK  Name = 
REMARK  13 active torsions:
REMARK  status: ('A' for Active; 'I' for Inactive)
REMARK    1  A    between atoms: C_1  and  O_2
REMARK    2  A    between atoms: O_2  and  C_3
REMARK    3  A    between atoms: C_3  and  C_5
REMARK    4  A    between atoms: C_6  and  C_7
REMARK    5  A    between atoms: C_9  and  C_10
REMARK    6  A    between atoms: C_12  and  O_13
REMARK    7  A    between atoms: C_12  and  O_14
REMARK    8  A    between atoms: O_14  and  C_15
REMARK    9  A    between atoms: C_16  and  C_17
REMARK   10  A    between atoms: C_17  and  O_19
REMARK   11  A    between atoms: O_19  and  C_20
REMARK   12  A    between atoms: C_20  and  C_21
REMARK   13  A    between atoms: C_28  and  C_29
REMARK                            x       y       z     vdW  Elec       q    Type
REMARK                         _______ _______ _______ _____ _____    ______ ____
ROOT
ATOM      1  C   UNL     1       0.292  12.451  20.209  0.00  0.00    +0.000 C 
ATOM      2  C   UNL     1      -0.083  12.672  21.486  0.00  0.00    +0.000 C 
ATOM      3  C   UNL     1      -0.363  14.013  22.129  0.00  0.00    +0.000 C 
ATOM      4  N   UNL     1      -0.241  11.656  22.399  0.00  0.00    +0.000 NA
ATOM      5  C   UNL     1       0.121  10.444  22.126  0.00  0.00    +0.000 C 
ATOM      6  C   UNL     1      -0.025   9.471  23.277  0.00  0.00    +0.000 C 
ATOM      7  C   UNL     1       0.655   9.997  20.799  0.00  0.00    +0.000 C 
ATOM      8  C   UNL     1       1.206   8.793  20.521  0.00  0.00    +0.000 C 
ATOM      9  C   UNL     1       0.491  11.041  19.701  0.00  0.00    +0.000 C 
ENDROOT
BRANCH   1  10
ATOM     10  C   UNL     1       0.534  13.569  19.248  0.00  0.00    +0.000 C 
ATOM     11  O   UNL     1      -0.303  14.096  18.535  0.00  0.00    +0.000 OA
BRANCH  10  13
ATOM     12  C   UNL     1       2.598  13.599  18.160  0.00  0.00    +0.000 C 
ATOM     13  O   UNL     1       1.834  13.965  19.311  0.00  0.00    +0.000 OA
ENDBRANCH  10  13
ENDBRANCH   1  10
BRANCH   8  14
ATOM     14  O   UNL     1       1.287   7.764  21.427  0.00  0.00    +0.000 OA
ATOM     15  H   UNL     1       0.403   7.362  21.479  0.00  0.00    +0.000 HD
ENDBRANCH   8  14
BRANCH   8  16
ATOM     16  O   UNL     1       1.670   8.562  19.235  0.00  0.00    +0.000 OA
ATOM     17  C   UNL     1       2.378   7.336  19.071  0.00  0.00    +0.000 C 
ENDBRANCH   8  16
BRANCH   9  18
ATOM     18  C   UNL     1      -0.695  10.691  18.774  0.00  0.00    +0.000 C 
ATOM     19  O   UNL     1      -0.577  10.178  17.666  0.00  0.00    +0.000 OA
BRANCH  18  20
ATOM     20  O   UNL     1      -1.903  10.967  19.350  0.00  0.00    +0.000 OA
BRANCH  20  21
ATOM     21  C   UNL     1      -2.775  11.802  18.590  0.00  0.00    +0.000 C 
BRANCH  21  22
ATOM     22  C   UNL     1      -4.040  11.068  18.129  0.00  0.00    +0.000 C 
ATOM     23  O   UNL     1      -3.969  10.149  17.318  0.00  0.00    +0.000 OA
ATOM     24  N   UNL     1      -5.250  11.490  18.675  0.00  0.00    +0.000 N 
ATOM     25  C   UNL     1      -6.445  10.680  18.430  0.00  0.00    +0.000 C 
ATOM     26  C   UNL     1      -7.047  10.204  19.751  0.00  0.00    +0.000 C 
ATOM     27  C   UNL     1      -7.281  11.360  20.723  0.00  0.00    +0.000 C 
ATOM     28  C   UNL     1      -6.018  12.203  20.897  0.00  0.00    +0.000 C 
ATOM     29  C   UNL     1      -5.435  12.660  19.553  0.00  0.00    +0.000 C 
ATOM     30  C   UNL     1      -6.295  13.734  18.876  0.00  0.00    +0.000 C 
ENDBRANCH  21  22
ENDBRANCH  20  21
ENDBRANCH  18  20
ENDBRANCH   9  18
TORSDOF 8
ENDMDL
MODEL 6
REMARK VINA RESULT:      -6.6      5.434      7.883
REMARK  Name = 
REMARK  13 active torsions:
REMARK  status: ('A' for Active; 'I' for Inactive)
REMARK    1  A    between atoms: C_1  and  O_2
REMARK    2  A    between atoms: O_2  and  C_3
REMARK    3  A    between atoms: C_3  and  C_5
REMARK    4  A    between atoms: C_6  and  C_7
REMARK    5  A    between atoms: C_9  and  C_10
REMARK    6  A    between atoms: C_12  and  O_13
REMARK    7  A    between atoms: C_12  and  O_14
REMARK    8  A    between atoms: O_14  and  C_15
REMARK    9  A    between atoms: C_16  and  C_17
REMARK   10  A    between atoms: C_17  and  O_19
REMARK   11  A    between atoms: O_19  and  C_20
REMARK   12  A    between atoms: C_20  and  C_21
REMARK   13  A    between atoms: C_28  and  C_29
REMARK                            x       y       z     vdW  Elec       q    Type
REMARK                         _______ _______ _______ _____ _____    ______ ____
ROOT
ATOM      1  C   UNL     1      -0.369  11.169  21.450  0.00  0.00    +0.000 C 
ATOM      2  C   UNL     1      -0.056   9.873  21.239  0.00  0.00    +0.000 C 
ATOM      3  C   UNL     1      -0.284   8.719  22.191  0.00  0.00    +0.000 C 
ATOM      4  N   UNL     1       0.557   9.436  20.088  0.00  0.00    +0.000 NA
ATOM      5  C   UNL     1       1.014  10.271  19.211  0.00  0.00    +0.000 C 
ATOM      6  C   UNL     1       1.751   9.626  18.056  0.00  0.00    +0.000 C 
ATOM      7  C   UNL     1       0.860  11.760  19.295  0.00  0.00    +0.000 C 
ATOM      8  C   UNL     1       1.466  12.674  18.504  0.00  0.00    +0.000 C 
ATOM      9  C   UNL     1      -0.117  12.204  20.377  0.00  0.00    +0.000 C 
ENDROOT
BRANCH   1  10
ATOM     10  C   UNL     1      -0.964  11.642  22.736  0.00  0.00    +0.000 C 
ATOM     11  O   UNL     1      -1.818  11.064  23.387  0.00  0.00    +0.000 OA
BRANCH  10  13
ATOM     12  C   UNL     1      -1.311  13.822  23.490  0.00  0.00    +0.000 C 
ATOM     13  O   UNL     1      -0.376  12.806  23.121  0.00  0.00    +0.000 OA
ENDBRANCH  10  13
ENDBRANCH   1  10
BRANCH   8  14
ATOM     14  O   UNL     1       2.272  12.348  17.440  0.00  0.00    +0.000 OA
ATOM     15  H   UNL     1       3.110  12.825  17.564  0.00  0.00    +0.000 HD
ENDBRANCH   8  14
BRANCH   8  16
ATOM     16  O   UNL     1       1.222  14.018  18.744  0.00  0.00    +0.000 OA
ATOM     17  C   UNL     1       2.382  14.785  19.055  0.00  0.00    +0.000 C 
ENDBRANCH   8  16
BRANCH   9  18
ATOM     18  C   UNL     1      -1.479  12.604  19.765  0.00  0.00    +0.000 C 
ATOM     19  O   UNL     1      -1.895  13.756  19.701  0.00  0.00    +0.000 OA
BRANCH  18  20
ATOM     20  O   UNL     1      -2.151  11.532  19.248  0.00  0.00    +0.000 OA
BRANCH  20  21
ATOM     21  C   UNL     1      -2.920  11.791  18.075  0.00  0.00    +0.000 C 
BRANCH  21  22
ATOM     22  C   UNL     1      -4.144  10.873  17.959  0.00  0.00    +0.000 C 
ATOM     23  O   UNL     1      -4.039   9.749  17.476  0.00  0.00    +0.000 OA
ATOM     24  N   UNL     1      -5.356  11.375  18.427  0.00  0.00    +0.000 N 
ATOM     25  C   UNL     1      -6.494  10.459  18.534  0.00  0.00    +0.000 C 
ATOM     26  C   UNL     1      -6.993  10.395  19.976  0.00  0.00    +0.000 C 
ATOM     27  C   UNL     1      -7.272  11.785  20.548  0.00  0.00    +0.000 C 
ATOM     28  C   UNL     1      -6.072  12.714  20.359  0.00  0.00    +0.000 C 
ATOM     29  C   UNL     1      -5.591  12.751  18.901  0.00  0.00    +0.000 C 
ATOM     30  C   UNL     1      -6.565  13.498  17.982  0.00  0.00    +0.000 C 
ENDBRANCH  21  22
ENDBRANCH  20  21
ENDBRANCH  18  20
ENDBRANCH   9  18
TORSDOF 8
ENDMDL
MODEL 7
REMARK VINA RESULT:      -6.5      3.132      8.571
REMARK  Name = 
REMARK  13 active torsions:
REMARK  status: ('A' for Active; 'I' for Inactive)
REMARK    1  A    between atoms: C_1  and  O_2
REMARK    2  A    between atoms: O_2  and  C_3
REMARK    3  A    between atoms: C_3  and  C_5
REMARK    4  A    between atoms: C_6  and  C_7
REMARK    5  A    between atoms: C_9  and  C_10
REMARK    6  A    between atoms: C_12  and  O_13
REMARK    7  A    between atoms: C_12  and  O_14
REMARK    8  A    between atoms: O_14  and  C_15
REMARK    9  A    between atoms: C_16  and  C_17
REMARK   10  A    between atoms: C_17  and  O_19
REMARK   11  A    between atoms: O_19  and  C_20
REMARK   12  A    between atoms: C_20  and  C_21
REMARK   13  A    between atoms: C_28  and  C_29
REMARK                            x       y       z     vdW  Elec       q    Type
REMARK                         _______ _______ _______ _____ _____    ______ ____
ROOT
ATOM      1  C   UNL     1      -2.312  11.373  18.248  0.00  0.00    +0.000 C 
ATOM      2  C   UNL     1      -3.199  11.999  19.050  0.00  0.00    +0.000 C 
ATOM      3  C   UNL     1      -4.706  11.872  19.008  0.00  0.00    +0.000 C 
ATOM      4  N   UNL     1      -2.815  12.883  20.031  0.00  0.00    +0.000 NA
ATOM      5  C   UNL     1      -1.589  13.288  20.130  0.00  0.00    +0.000 C 
ATOM      6  C   UNL     1      -1.361  14.339  21.196  0.00  0.00    +0.000 C 
ATOM      7  C   UNL     1      -0.461  12.794  19.276  0.00  0.00    +0.000 C 
ATOM      8  C   UNL     1       0.788  13.308  19.223  0.00  0.00    +0.000 C 
ATOM      9  C   UNL     1      -0.826  11.570  18.445  0.00  0.00    +0.000 C 
ENDROOT
BRANCH   1  10
ATOM     10  C   UNL     1      -2.745  10.474  17.136  0.00  0.00    +0.000 C 
ATOM     11  O   UNL     1      -3.189   9.345  17.258  0.00  0.00    +0.000 OA
BRANCH  10  13
ATOM     12  C   UNL     1      -3.053  10.331  14.828  0.00  0.00    +0.000 C 
ATOM     13  O   UNL     1      -2.625  11.115  15.943  0.00  0.00    +0.000 OA
ENDBRANCH  10  13
ENDBRANCH   1  10
BRANCH   8  14
ATOM     14  O   UNL     1       1.224  14.338  20.022  0.00  0.00    +0.000 OA
ATOM     15  H   UNL     1       0.710  15.126  19.773  0.00  0.00    +0.000 HD
ENDBRANCH   8  14
BRANCH   8  16
ATOM     16  O   UNL     1       1.702  12.733  18.352  0.00  0.00    +0.000 OA
ATOM     17  C   UNL     1       2.978  13.366  18.329  0.00  0.00    +0.000 C 
ENDBRANCH   8  16
BRANCH   9  18
ATOM     18  C   UNL     1      -0.248  10.281  19.072  0.00  0.00    +0.000 C 
ATOM     19  O   UNL     1      -0.543   9.863  20.187  0.00  0.00    +0.000 OA
BRANCH  18  20
ATOM     20  O   UNL     1       0.592   9.621  18.219  0.00  0.00    +0.000 OA
BRANCH  20  21
ATOM     21  C   UNL     1       1.438   8.641  18.819  0.00  0.00    +0.000 C 
BRANCH  21  22
ATOM     22  C   UNL     1       2.566   8.186  17.885  0.00  0.00    +0.000 C 
ATOM     23  O   UNL     1       3.064   8.967  17.078  0.00  0.00    +0.000 OA
ATOM     24  N   UNL     1       2.988   6.864  18.002  0.00  0.00    +0.000 N 
ATOM     25  C   UNL     1       4.198   6.453  17.286  0.00  0.00    +0.000 C 
ATOM     26  C   UNL     1       5.246   5.931  18.268  0.00  0.00    +0.000 C 
ATOM     27  C   UNL     1       4.682   4.847  19.186  0.00  0.00    +0.000 C 
ATOM     28  C   UNL     1       3.391   5.309  19.862  0.00  0.00    +0.000 C 
ATOM     29  C   UNL     1       2.362   5.834  18.850  0.00  0.00    +0.000 C 
ATOM     30  C   UNL     1       1.749   4.711  18.003  0.00  0.00    +0.000 C 
ENDBRANCH  21  22
ENDBRANCH  20  21
ENDBRANCH  18  20
ENDBRANCH   9  18
TORSDOF 8
ENDMDL
MODEL 8
REMARK VINA RESULT:      -6.4      3.994      7.974
REMARK  Name = 
REMARK  13 active torsions:
REMARK  status: ('A' for Active; 'I' for Inactive)
REMARK    1  A    between atoms: C_1  and  O_2
REMARK    2  A    between atoms: O_2  and  C_3
REMARK    3  A    between atoms: C_3  and  C_5
REMARK    4  A    between atoms: C_6  and  C_7
REMARK    5  A    between atoms: C_9  and  C_10
REMARK    6  A    between atoms: C_12  and  O_13
REMARK    7  A    between atoms: C_12  and  O_14
REMARK    8  A    between atoms: O_14  and  C_15
REMARK    9  A    between atoms: C_16  and  C_17
REMARK   10  A    between atoms: C_17  and  O_19
REMARK   11  A    between atoms: O_19  and  C_20
REMARK   12  A    between atoms: C_20  and  C_21
REMARK   13  A    between atoms: C_28  and  C_29
REMARK                            x       y       z     vdW  Elec       q    Type
REMARK                         _______ _______ _______ _____ _____    ______ ____
ROOT
ATOM      1  C   UNL     1       0.405  12.259  19.883  0.00  0.00    +0.000 C 
ATOM      2  C   UNL     1       0.114  12.540  21.170  0.00  0.00    +0.000 C 
ATOM      3  C   UNL     1      -0.126  13.909  21.767  0.00  0.00    +0.000 C 
ATOM      4  N   UNL     1       0.020  11.568  22.138  0.00  0.00    +0.000 NA
ATOM      5  C   UNL     1       0.367  10.344  21.899  0.00  0.00    +0.000 C 
ATOM      6  C   UNL     1       0.300   9.426  23.102  0.00  0.00    +0.000 C 
ATOM      7  C   UNL     1       0.814   9.835  20.562  0.00  0.00    +0.000 C 
ATOM      8  C   UNL     1       1.349   8.620  20.306  0.00  0.00    +0.000 C 
ATOM      9  C   UNL     1       0.575  10.826  19.430  0.00  0.00    +0.000 C 
ENDROOT
BRANCH   1  10
ATOM     10  C   UNL     1       0.581  13.330  18.857  0.00  0.00    +0.000 C 
ATOM     11  O   UNL     1      -0.280  14.103  18.472  0.00  0.00    +0.000 OA
BRANCH  10  13
ATOM     12  C   UNL     1       2.704  14.230  19.210  0.00  0.00    +0.000 C 
ATOM     13  O   UNL     1       1.873  13.364  18.434  0.00  0.00    +0.000 OA
ENDBRANCH  10  13
ENDBRANCH   1  10
BRANCH   8  14
ATOM     14  O   UNL     1       1.492   7.634  21.252  0.00  0.00    +0.000 OA
ATOM     15  H   UNL     1       2.428   7.369  21.245  0.00  0.00    +0.000 HD
ENDBRANCH   8  14
BRANCH   8  16
ATOM     16  O   UNL     1       1.728   8.327  19.004  0.00  0.00    +0.000 OA
ATOM     17  C   UNL     1       2.520   7.151  18.867  0.00  0.00    +0.000 C 
ENDBRANCH   8  16
BRANCH   9  18
ATOM     18  C   UNL     1      -0.668  10.433  18.600  0.00  0.00    +0.000 C 
ATOM     19  O   UNL     1      -0.621   9.908  17.492  0.00  0.00    +0.000 OA
BRANCH  18  20
ATOM     20  O   UNL     1      -1.836  10.686  19.263  0.00  0.00    +0.000 OA
BRANCH  20  21
ATOM     21  C   UNL     1      -2.794  11.470  18.554  0.00  0.00    +0.000 C 
BRANCH  21  22
ATOM     22  C   UNL     1      -3.689  12.293  19.488  0.00  0.00    +0.000 C 
ATOM     23  O   UNL     1      -3.212  12.877  20.457  0.00  0.00    +0.000 OA
ATOM     24  N   UNL     1      -5.047  12.343  19.179  0.00  0.00    +0.000 N 
ATOM     25  C   UNL     1      -5.893  13.286  19.913  0.00  0.00    +0.000 C 
ATOM     26  C   UNL     1      -6.558  14.268  18.950  0.00  0.00    +0.000 C 
ATOM     27  C   UNL     1      -7.285  13.551  17.812  0.00  0.00    +0.000 C 
ATOM     28  C   UNL     1      -6.371  12.540  17.119  0.00  0.00    +0.000 C 
ATOM     29  C   UNL     1      -5.715  11.573  18.115  0.00  0.00    +0.000 C 
ATOM     30  C   UNL     1      -6.714  10.566  18.699  0.00  0.00    +0.000 C 
ENDBRANCH  21  22
ENDBRANCH  20  21
ENDBRANCH  18  20
ENDBRANCH   9  18
TORSDOF 8
ENDMDL
MODEL 9
REMARK VINA RESULT:      -6.4      1.754      4.315
REMARK  Name = 
REMARK  13 active torsions:
REMARK  status: ('A' for Active; 'I' for Inactive)
REMARK    1  A    between atoms: C_1  and  O_2
REMARK    2  A    between atoms: O_2  and  C_3
REMARK    3  A    between atoms: C_3  and  C_5
REMARK    4  A    between atoms: C_6  and  C_7
REMARK    5  A    between atoms: C_9  and  C_10
REMARK    6  A    between atoms: C_12  and  O_13
REMARK    7  A    between atoms: C_12  and  O_14
REMARK    8  A    between atoms: O_14  and  C_15
REMARK    9  A    between atoms: C_16  and  C_17
REMARK   10  A    between atoms: C_17  and  O_19
REMARK   11  A    between atoms: O_19  and  C_20
REMARK   12  A    between atoms: C_20  and  C_21
REMARK   13  A    between atoms: C_28  and  C_29
REMARK                            x       y       z     vdW  Elec       q    Type
REMARK                         _______ _______ _______ _____ _____    ______ ____
ROOT
ATOM      1  C   UNL     1       4.993   4.845  17.133  0.00  0.00    +0.000 C 
ATOM      2  C   UNL     1       6.025   4.718  17.994  0.00  0.00    +0.000 C 
ATOM      3  C   UNL     1       7.418   5.285  17.828  0.00  0.00    +0.000 C 
ATOM      4  N   UNL     1       5.929   4.007  19.167  0.00  0.00    +0.000 NA
ATOM      5  C   UNL     1       4.889   3.282  19.431  0.00  0.00    +0.000 C 
ATOM      6  C   UNL     1       4.991   2.483  20.713  0.00  0.00    +0.000 C 
ATOM      7  C   UNL     1       3.669   3.201  18.564  0.00  0.00    +0.000 C 
ATOM      8  C   UNL     1       2.642   2.333  18.706  0.00  0.00    +0.000 C 
ATOM      9  C   UNL     1       3.641   4.255  17.464  0.00  0.00    +0.000 C 
ENDROOT
BRANCH   1  10
ATOM     10  C   UNL     1       5.132   5.555  15.826  0.00  0.00    +0.000 C 
ATOM     11  O   UNL     1       5.124   6.764  15.662  0.00  0.00    +0.000 OA
BRANCH  10  13
ATOM     12  C   UNL     1       6.624   4.735  14.232  0.00  0.00    +0.000 C 
ATOM     13  O   UNL     1       5.326   4.656  14.825  0.00  0.00    +0.000 OA
ENDBRANCH  10  13
ENDBRANCH   1  10
BRANCH   8  14
ATOM     14  O   UNL     1       2.543   1.429  19.736  0.00  0.00    +0.000 OA
ATOM     15  H   UNL     1       2.177   0.611  19.360  0.00  0.00    +0.000 HD
ENDBRANCH   8  14
BRANCH   8  16
ATOM     16  O   UNL     1       1.601   2.389  17.791  0.00  0.00    +0.000 OA
ATOM     17  C   UNL     1       0.300   2.338  18.370  0.00  0.00    +0.000 C 
ENDBRANCH   8  16
BRANCH   9  18
ATOM     18  C   UNL     1       2.686   5.414  17.830  0.00  0.00    +0.000 C 
ATOM     19  O   UNL     1       1.490   5.436  17.558  0.00  0.00    +0.000 OA
BRANCH  18  20
ATOM     20  O   UNL     1       3.313   6.398  18.543  0.00  0.00    +0.000 OA
BRANCH  20  21
ATOM     21  C   UNL     1       2.725   7.695  18.459  0.00  0.00    +0.000 C 
BRANCH  21  22
ATOM     22  C   UNL     1       1.843   8.021  19.670  0.00  0.00    +0.000 C 
ATOM     23  O   UNL     1       1.845   7.293  20.659  0.00  0.00    +0.000 OA
ATOM     24  N   UNL     1       1.057   9.168  19.589  0.00  0.00    +0.000 N 
ATOM     25  C   UNL     1       0.371   9.630  20.798  0.00  0.00    +0.000 C 
ATOM     26  C   UNL     1       0.815  11.047  21.155  0.00  0.00    +0.000 C 
ATOM     27  C   UNL     1       0.680  12.005  19.971  0.00  0.00    +0.000 C 
ATOM     28  C   UNL     1       1.365  11.447  18.724  0.00  0.00    +0.000 C 
ATOM     29  C   UNL     1       0.902  10.021  18.396  0.00  0.00    +0.000 C 
ATOM     30  C   UNL     1      -0.536   9.979  17.865  0.00  0.00    +0.000 C 
ENDBRANCH  21  22
ENDBRANCH  20  21
ENDBRANCH  18  20
ENDBRANCH   9  18
TORSDOF 8
ENDMDL
