MODEL 1
REMARK VINA RESULT:      -7.0      0.000      0.000
REMARK  Name = 
REMARK  18 active torsions:
REMARK  status: ('A' for Active; 'I' for Inactive)
REMARK    1  A    between atoms: CE_1  and  SD_2
REMARK    2  A    between atoms: SD_2  and  CG_3
REMARK    3  A    between atoms: CG_3  and  CB_4
REMARK    4  A    between atoms: CB_4  and  CA_5
REMARK    5  A    between atoms: CA_5  and  N_6
REMARK    6  A    between atoms: CA_5  and  C_27
REMARK    7  A    between atoms: C_7  and  C_9
REMARK    8  A    between atoms: C_9  and  C_10
REMARK    9  A    between atoms: C_9  and  C_20
REMARK   10  A    between atoms: C_10  and  C_11
REMARK   11  A    between atoms: C_11  and  C_12
REMARK   12  A    between atoms: C_12  and  N_13
REMARK   13  A    between atoms: C_14  and  C_16
REMARK   14  A    between atoms: C_16  and  N_17
REMARK   15  A    between atoms: C_16  and  C_18
REMARK   16  A    between atoms: C_18  and  S_19
REMARK   17  A    between atoms: C_20  and  C_21
REMARK   18  A    between atoms: C_27  and  OXT_29
REMARK                            x       y       z     vdW  Elec       q    Type
REMARK                         _______ _______ _______ _____ _____    ______ ____
ROOT
ATOM      1  C   UNK A   0       3.350   6.788  17.738  0.00  0.00    +0.000 C 
ENDROOT
BRANCH   1   3
ATOM      2  N   MET A   1       5.809   6.595  17.895  0.00  0.00    +0.000 N 
ATOM      3  C   UNK A   0       4.719   6.668  17.066  0.00  0.00    +0.000 C 
ATOM      4  O   UNK A   0       4.831   6.734  15.844  0.00  0.00    +0.000 OA
ATOM      5  H   MET A   1       5.700   6.430  18.891  0.00  0.00    +0.000 HD
BRANCH   2   6
ATOM      6  CA  MET A   1       7.168   6.492  17.377  0.00  0.00    +0.000 C 
BRANCH   6   7
ATOM      7  C   MET A   1       7.609   5.031  17.476  0.00  0.00    +0.000 C 
ATOM      8  O   MET A   1       7.777   4.439  18.538  0.00  0.00    +0.000 OA
BRANCH   7   9
ATOM      9  OXT MET A   1       7.869   4.449  16.280  0.00  0.00    +0.000 OA
ATOM     10  HXT MET A   1       8.680   4.786  15.845  0.00  0.00    +0.000 HD
ENDBRANCH   7   9
ENDBRANCH   6   7
BRANCH   6  11
ATOM     11  CB  MET A   1       8.088   7.401  18.199  0.00  0.00    +0.000 C 
BRANCH  11  12
ATOM     12  CG  MET A   1       8.035   8.887  17.854  0.00  0.00    +0.000 C 
BRANCH  12  14
ATOM     13  CE  MET A   1       9.083  11.423  18.054  0.00  0.00    +0.000 C 
ATOM     14  SD  MET A   1       9.047   9.881  18.994  0.00  0.00    +0.000 S 
ENDBRANCH  12  14
ENDBRANCH  11  12
ENDBRANCH   6  11
ENDBRANCH   2   6
ENDBRANCH   1   3
BRANCH   1  15
ATOM     15  C   UNK A   0       2.862   8.249  17.676  0.00  0.00    +0.000 C 
BRANCH  15  16
ATOM     16  C   UNK A   0       1.763   8.631  18.672  0.00  0.00    +0.000 C 
BRANCH  16  17
ATOM     17  C   UNK A   0       0.850   9.713  18.087  0.00  0.00    +0.000 C 
BRANCH  17  18
ATOM     18  N   UNK A   0       1.371  11.040  18.337  0.00  0.00    +0.000 N 
ATOM     19  C   UNK A   0       0.951  11.776  19.430  0.00  0.00    +0.000 C 
ATOM     20  O   UNK A   0       0.045  11.411  20.170  0.00  0.00    +0.000 OA
ATOM     21  H   UNK A   0       2.189  11.344  17.823  0.00  0.00    +0.000 HD
BRANCH  19  22
ATOM     22  C   UNK A   0       1.679  13.126  19.596  0.00  0.00    +0.000 C 
BRANCH  22  23
ATOM     23  N   UNK A   0       2.314  13.148  20.933  0.00  0.00    +0.000 NA
ATOM     24  H   UNK A   0       3.329  13.096  20.809  0.00  0.00    +0.000 HD
ATOM     25  H   UNK A   0       2.066  12.293  21.432  0.00  0.00    +0.000 HD
ENDBRANCH  22  23
BRANCH  22  26
ATOM     26  C   UNK A   0       2.730  13.311  18.488  0.00  0.00    +0.000 C 
BRANCH  26  27
ATOM     27  S   UNK A   0       3.828  14.733  18.821  0.00  0.00    +0.000 S 
ATOM     28  H   UNK A   0       2.938  15.682  18.485  0.00  0.00    +0.000 HD
ENDBRANCH  26  27
ENDBRANCH  22  26
ENDBRANCH  19  22
ENDBRANCH  17  18
ENDBRANCH  16  17
ENDBRANCH  15  16
ENDBRANCH   1  15
BRANCH   1  29
ATOM     29  C   UNK A   0       3.257   6.155  19.143  0.00  0.00    +0.000 C 
BRANCH  29  30
ATOM     30  C   UNK A   0       2.330   4.957  19.248  0.00  0.00    +0.000 A 
ATOM     31  C   UNK A   0       1.719   4.666  20.476  0.00  0.00    +0.000 A 
ATOM     32  C   UNK A   0       0.975   3.496  20.641  0.00  0.00    +0.000 A 
ATOM     33  C   UNK A   0       0.812   2.614  19.577  0.00  0.00    +0.000 A 
ATOM     34  C   UNK A   0       1.351   2.928  18.332  0.00  0.00    +0.000 A 
ATOM     35  C   UNK A   0       2.091   4.099  18.164  0.00  0.00    +0.000 A 
ENDBRANCH  29  30
ENDBRANCH   1  29
TORSDOF 17
ENDMDL
MODEL 2
REMARK VINA RESULT:      -6.8      3.166      3.805
REMARK  Name = 
REMARK  18 active torsions:
REMARK  status: ('A' for Active; 'I' for Inactive)
REMARK    1  A    between atoms: CE_1  and  SD_2
REMARK    2  A    between atoms: SD_2  and  CG_3
REMARK    3  A    between atoms: CG_3  and  CB_4
REMARK    4  A    between atoms: CB_4  and  CA_5
REMARK    5  A    between atoms: CA_5  and  N_6
REMARK    6  A    between atoms: CA_5  and  C_27
REMARK    7  A    between atoms: C_7  and  C_9
REMARK    8  A    between atoms: C_9  and  C_10
REMARK    9  A    between atoms: C_9  and  C_20
REMARK   10  A    between atoms: C_10  and  C_11
REMARK   11  A    between atoms: C_11  and  C_12
REMARK   12  A    between atoms: C_12  and  N_13
REMARK   13  A    between atoms: C_14  and  C_16
REMARK   14  A    between atoms: C_16  and  N_17
REMARK   15  A    between atoms: C_16  and  C_18
REMARK   16  A    between atoms: C_18  and  S_19
REMARK   17  A    between atoms: C_20  and  C_21
REMARK   18  A    between atoms: C_27  and  OXT_29
REMARK                            x       y       z     vdW  Elec       q    Type
REMARK                         _______ _______ _______ _____ _____    ______ ____
ROOT
ATOM      1  C   UNK A   0       2.524   6.374  18.263  0.00  0.00    +0.000 C 
ENDROOT
BRANCH   1   3
ATOM      2  N   MET A   1       4.920   5.902  17.883  0.00  0.00    +0.000 N 
ATOM      3  C   UNK A   0       3.630   5.462  17.729  0.00  0.00    +0.000 C 
ATOM      4  O   UNK A   0       3.359   4.437  17.109  0.00  0.00    +0.000 OA
ATOM      5  H   MET A   1       5.137   6.688  18.488  0.00  0.00    +0.000 HD
BRANCH   2   6
ATOM      6  CA  MET A   1       6.061   5.131  17.405  0.00  0.00    +0.000 C 
BRANCH   6   7
ATOM      7  C   MET A   1       7.028   4.932  18.574  0.00  0.00    +0.000 C 
ATOM      8  O   MET A   1       6.858   5.415  19.689  0.00  0.00    +0.000 OA
BRANCH   7   9
ATOM      9  OXT MET A   1       8.140   4.224  18.257  0.00  0.00    +0.000 OA
ATOM     10  HXT MET A   1       8.080   3.759  17.396  0.00  0.00    +0.000 HD
ENDBRANCH   7   9
ENDBRANCH   6   7
BRANCH   6  11
ATOM     11  CB  MET A   1       6.735   5.891  16.258  0.00  0.00    +0.000 C 
BRANCH  11  12
ATOM     12  CG  MET A   1       7.089   5.061  15.027  0.00  0.00    +0.000 C 
BRANCH  12  14
ATOM     13  CE  MET A   1       6.348   3.636  12.793  0.00  0.00    +0.000 C 
ATOM     14  SD  MET A   1       5.637   4.192  14.358  0.00  0.00    +0.000 S 
ENDBRANCH  12  14
ENDBRANCH  11  12
ENDBRANCH   6  11
ENDBRANCH   2   6
ENDBRANCH   1   3
BRANCH   1  15
ATOM     15  C   UNK A   0       2.744   7.815  17.759  0.00  0.00    +0.000 C 
BRANCH  15  16
ATOM     16  C   UNK A   0       2.251   8.931  18.684  0.00  0.00    +0.000 C 
BRANCH  16  17
ATOM     17  C   UNK A   0       1.667  10.092  17.873  0.00  0.00    +0.000 C 
BRANCH  17  18
ATOM     18  N   UNK A   0       0.227   9.995  17.767  0.00  0.00    +0.000 N 
ATOM     19  C   UNK A   0      -0.595  10.956  18.328  0.00  0.00    +0.000 C 
ATOM     20  O   UNK A   0      -0.172  11.863  19.035  0.00  0.00    +0.000 OA
ATOM     21  H   UNK A   0      -0.167   9.331  17.112  0.00  0.00    +0.000 HD
BRANCH  19  22
ATOM     22  C   UNK A   0      -2.096  10.746  18.038  0.00  0.00    +0.000 C 
BRANCH  22  23
ATOM     23  N   UNK A   0      -2.709  12.072  17.796  0.00  0.00    +0.000 NA
ATOM     24  H   UNK A   0      -2.725  12.240  16.786  0.00  0.00    +0.000 HD
ATOM     25  H   UNK A   0      -2.097  12.795  18.174  0.00  0.00    +0.000 HD
ENDBRANCH  22  23
BRANCH  22  26
ATOM     26  C   UNK A   0      -2.285   9.825  16.821  0.00  0.00    +0.000 C 
BRANCH  26  27
ATOM     27  S   UNK A   0      -3.047  10.705  15.413  0.00  0.00    +0.000 S 
ATOM     28  H   UNK A   0      -4.300  10.269  15.633  0.00  0.00    +0.000 HD
ENDBRANCH  26  27
ENDBRANCH  22  26
ENDBRANCH  19  22
ENDBRANCH  17  18
ENDBRANCH  16  17
ENDBRANCH  15  16
ENDBRANCH   1  15
BRANCH   1  29
ATOM     29  C   UNK A   0       2.273   6.274  19.782  0.00  0.00    +0.000 C 
BRANCH  29  30
ATOM     30  C   UNK A   0       1.902   4.890  20.282  0.00  0.00    +0.000 A 
ATOM     31  C   UNK A   0       2.529   4.382  21.429  0.00  0.00    +0.000 A 
ATOM     32  C   UNK A   0       2.314   3.062  21.833  0.00  0.00    +0.000 A 
ATOM     33  C   UNK A   0       1.453   2.241  21.111  0.00  0.00    +0.000 A 
ATOM     34  C   UNK A   0       0.767   2.755  20.014  0.00  0.00    +0.000 A 
ATOM     35  C   UNK A   0       0.977   4.075  19.611  0.00  0.00    +0.000 A 
ENDBRANCH  29  30
ENDBRANCH   1  29
TORSDOF 17
ENDMDL
MODEL 3
REMARK VINA RESULT:      -6.7      3.050      3.661
REMARK  Name = 
REMARK  18 active torsions:
REMARK  status: ('A' for Active; 'I' for Inactive)
REMARK    1  A    between atoms: CE_1  and  SD_2
REMARK    2  A    between atoms: SD_2  and  CG_3
REMARK    3  A    between atoms: CG_3  and  CB_4
REMARK    4  A    between atoms: CB_4  and  CA_5
REMARK    5  A    between atoms: CA_5  and  N_6
REMARK    6  A    between atoms: CA_5  and  C_27
REMARK    7  A    between atoms: C_7  and  C_9
REMARK    8  A    between atoms: C_9  and  C_10
REMARK    9  A    between atoms: C_9  and  C_20
REMARK   10  A    between atoms: C_10  and  C_11
REMARK   11  A    between atoms: C_11  and  C_12
REMARK   12  A    between atoms: C_12  and  N_13
REMARK   13  A    between atoms: C_14  and  C_16
REMARK   14  A    between atoms: C_16  and  N_17
REMARK   15  A    between atoms: C_16  and  C_18
REMARK   16  A    between atoms: C_18  and  S_19
REMARK   17  A    between atoms: C_20  and  C_21
REMARK   18  A    between atoms: C_27  and  OXT_29
REMARK                            x       y       z     vdW  Elec       q    Type
REMARK                         _______ _______ _______ _____ _____    ______ ____
ROOT
ATOM      1  C   UNK A   0       2.711   6.424  18.183  0.00  0.00    +0.000 C 
ENDROOT
BRANCH   1   3
ATOM      2  N   MET A   1       5.086   5.882  17.765  0.00  0.00    +0.000 N 
ATOM      3  C   UNK A   0       3.783   5.464  17.664  0.00  0.00    +0.000 C 
ATOM      4  O   UNK A   0       3.475   4.419  17.097  0.00  0.00    +0.000 OA
ATOM      5  H   MET A   1       5.335   6.689  18.328  0.00  0.00    +0.000 HD
BRANCH   2   6
ATOM      6  CA  MET A   1       6.198   5.064  17.293  0.00  0.00    +0.000 C 
BRANCH   6   7
ATOM      7  C   MET A   1       7.183   4.885  18.449  0.00  0.00    +0.000 C 
ATOM      8  O   MET A   1       8.306   4.407  18.321  0.00  0.00    +0.000 OA
BRANCH   7   9
ATOM      9  OXT MET A   1       6.686   5.240  19.660  0.00  0.00    +0.000 OA
ATOM     10  HXT MET A   1       5.995   4.631  19.996  0.00  0.00    +0.000 HD
ENDBRANCH   7   9
ENDBRANCH   6   7
BRANCH   6  11
ATOM     11  CB  MET A   1       6.865   5.764  16.105  0.00  0.00    +0.000 C 
BRANCH  11  12
ATOM     12  CG  MET A   1       7.165   4.881  14.896  0.00  0.00    +0.000 C 
BRANCH  12  14
ATOM     13  CE  MET A   1       6.308   3.556  12.643  0.00  0.00    +0.000 C 
ATOM     14  SD  MET A   1       5.658   4.106  14.235  0.00  0.00    +0.000 S 
ENDBRANCH  12  14
ENDBRANCH  11  12
ENDBRANCH   6  11
ENDBRANCH   2   6
ENDBRANCH   1   3
BRANCH   1  15
ATOM     15  C   UNK A   0       3.010   7.856  17.697  0.00  0.00    +0.000 C 
BRANCH  15  16
ATOM     16  C   UNK A   0       1.800   8.784  17.561  0.00  0.00    +0.000 C 
BRANCH  16  17
ATOM     17  C   UNK A   0       1.844   9.895  18.615  0.00  0.00    +0.000 C 
BRANCH  17  18
ATOM     18  N   UNK A   0       0.942  10.978  18.284  0.00  0.00    +0.000 N 
ATOM     19  C   UNK A   0      -0.362  10.985  18.746  0.00  0.00    +0.000 C 
ATOM     20  O   UNK A   0      -0.859  10.042  19.349  0.00  0.00    +0.000 OA
ATOM     21  H   UNK A   0       1.327  11.824  17.882  0.00  0.00    +0.000 HD
BRANCH  19  22
ATOM     22  C   UNK A   0      -1.152  12.258  18.378  0.00  0.00    +0.000 C 
BRANCH  22  23
ATOM     23  N   UNK A   0      -1.897  11.993  17.126  0.00  0.00    +0.000 NA
ATOM     24  H   UNK A   0      -2.436  12.830  16.888  0.00  0.00    +0.000 HD
ATOM     25  H   UNK A   0      -2.598  11.272  17.304  0.00  0.00    +0.000 HD
ENDBRANCH  22  23
BRANCH  22  26
ATOM     26  C   UNK A   0      -2.112  12.644  19.515  0.00  0.00    +0.000 C 
BRANCH  26  27
ATOM     27  S   UNK A   0      -3.815  12.064  19.196  0.00  0.00    +0.000 S 
ATOM     28  H   UNK A   0      -4.173  13.095  18.411  0.00  0.00    +0.000 HD
ENDBRANCH  26  27
ENDBRANCH  22  26
ENDBRANCH  19  22
ENDBRANCH  17  18
ENDBRANCH  16  17
ENDBRANCH  15  16
ENDBRANCH   1  15
BRANCH   1  29
ATOM     29  C   UNK A   0       2.424   6.323  19.695  0.00  0.00    +0.000 C 
BRANCH  29  30
ATOM     30  C   UNK A   0       1.954   4.959  20.170  0.00  0.00    +0.000 A 
ATOM     31  C   UNK A   0       2.433   4.452  21.387  0.00  0.00    +0.000 A 
ATOM     32  C   UNK A   0       2.130   3.147  21.783  0.00  0.00    +0.000 A 
ATOM     33  C   UNK A   0       1.327   2.342  20.981  0.00  0.00    +0.000 A 
ATOM     34  C   UNK A   0       0.785   2.857  19.808  0.00  0.00    +0.000 A 
ATOM     35  C   UNK A   0       1.082   4.162  19.413  0.00  0.00    +0.000 A 
ENDBRANCH  29  30
ENDBRANCH   1  29
TORSDOF 17
ENDMDL
MODEL 4
REMARK VINA RESULT:      -6.7      3.014      3.937
REMARK  Name = 
REMARK  18 active torsions:
REMARK  status: ('A' for Active; 'I' for Inactive)
REMARK    1  A    between atoms: CE_1  and  SD_2
REMARK    2  A    between atoms: SD_2  and  CG_3
REMARK    3  A    between atoms: CG_3  and  CB_4
REMARK    4  A    between atoms: CB_4  and  CA_5
REMARK    5  A    between atoms: CA_5  and  N_6
REMARK    6  A    between atoms: CA_5  and  C_27
REMARK    7  A    between atoms: C_7  and  C_9
REMARK    8  A    between atoms: C_9  and  C_10
REMARK    9  A    between atoms: C_9  and  C_20
REMARK   10  A    between atoms: C_10  and  C_11
REMARK   11  A    between atoms: C_11  and  C_12
REMARK   12  A    between atoms: C_12  and  N_13
REMARK   13  A    between atoms: C_14  and  C_16
REMARK   14  A    between atoms: C_16  and  N_17
REMARK   15  A    between atoms: C_16  and  C_18
REMARK   16  A    between atoms: C_18  and  S_19
REMARK   17  A    between atoms: C_20  and  C_21
REMARK   18  A    between atoms: C_27  and  OXT_29
REMARK                            x       y       z     vdW  Elec       q    Type
REMARK                         _______ _______ _______ _____ _____    ______ ____
ROOT
ATOM      1  C   UNK A   0       2.913   6.298  17.825  0.00  0.00    +0.000 C 
ENDROOT
BRANCH   1   3
ATOM      2  N   MET A   1       5.256   5.658  17.369  0.00  0.00    +0.000 N 
ATOM      3  C   UNK A   0       4.308   5.917  18.326  0.00  0.00    +0.000 C 
ATOM      4  O   UNK A   0       4.527   5.758  19.523  0.00  0.00    +0.000 OA
ATOM      5  H   MET A   1       5.098   5.897  16.395  0.00  0.00    +0.000 HD
BRANCH   2   6
ATOM      6  CA  MET A   1       6.618   5.271  17.718  0.00  0.00    +0.000 C 
BRANCH   6   7
ATOM      7  C   MET A   1       7.456   6.544  17.855  0.00  0.00    +0.000 C 
ATOM      8  O   MET A   1       8.168   6.792  18.823  0.00  0.00    +0.000 OA
BRANCH   7   9
ATOM      9  OXT MET A   1       7.296   7.424  16.835  0.00  0.00    +0.000 OA
ATOM     10  HXT MET A   1       8.120   7.600  16.334  0.00  0.00    +0.000 HD
ENDBRANCH   7   9
ENDBRANCH   6   7
BRANCH   6  11
ATOM     11  CB  MET A   1       7.177   4.361  16.619  0.00  0.00    +0.000 C 
BRANCH  11  12
ATOM     12  CG  MET A   1       6.164   3.855  15.596  0.00  0.00    +0.000 C 
BRANCH  12  14
ATOM     13  CE  MET A   1       6.260   3.503  12.869  0.00  0.00    +0.000 C 
ATOM     14  SD  MET A   1       6.190   4.849  14.072  0.00  0.00    +0.000 S 
ENDBRANCH  12  14
ENDBRANCH  11  12
ENDBRANCH   6  11
ENDBRANCH   2   6
ENDBRANCH   1   3
BRANCH   1  15
ATOM     15  C   UNK A   0       2.391   7.520  18.608  0.00  0.00    +0.000 C 
BRANCH  15  16
ATOM     16  C   UNK A   0       2.180   8.798  17.791  0.00  0.00    +0.000 C 
BRANCH  16  17
ATOM     17  C   UNK A   0       1.600   9.914  18.667  0.00  0.00    +0.000 C 
BRANCH  17  18
ATOM     18  N   UNK A   0       0.426  10.507  18.061  0.00  0.00    +0.000 N 
ATOM     19  C   UNK A   0      -0.745  10.663  18.782  0.00  0.00    +0.000 C 
ATOM     20  O   UNK A   0      -0.898  10.211  19.910  0.00  0.00    +0.000 OA
ATOM     21  H   UNK A   0       0.528  10.988  17.176  0.00  0.00    +0.000 HD
BRANCH  19  22
ATOM     22  C   UNK A   0      -1.862  11.399  18.012  0.00  0.00    +0.000 C 
BRANCH  22  23
ATOM     23  N   UNK A   0      -1.269  12.591  17.366  0.00  0.00    +0.000 NA
ATOM     24  H   UNK A   0      -0.401  12.309  16.902  0.00  0.00    +0.000 HD
ATOM     25  H   UNK A   0      -0.978  13.251  18.088  0.00  0.00    +0.000 HD
ENDBRANCH  22  23
BRANCH  22  26
ATOM     26  C   UNK A   0      -2.497  10.469  16.965  0.00  0.00    +0.000 C 
BRANCH  26  27
ATOM     27  S   UNK A   0      -4.101  11.109  16.369  0.00  0.00    +0.000 S 
ATOM     28  H   UNK A   0      -4.686  11.178  17.577  0.00  0.00    +0.000 HD
ENDBRANCH  26  27
ENDBRANCH  22  26
ENDBRANCH  19  22
ENDBRANCH  17  18
ENDBRANCH  16  17
ENDBRANCH  15  16
ENDBRANCH   1  15
BRANCH   1  29
ATOM     29  C   UNK A   0       1.908   5.130  17.746  0.00  0.00    +0.000 C 
BRANCH  29  30
ATOM     30  C   UNK A   0       1.932   4.180  18.930  0.00  0.00    +0.000 A 
ATOM     31  C   UNK A   0       2.417   2.876  18.756  0.00  0.00    +0.000 A 
ATOM     32  C   UNK A   0       2.323   1.938  19.786  0.00  0.00    +0.000 A 
ATOM     33  C   UNK A   0       1.765   2.296  21.009  0.00  0.00    +0.000 A 
ATOM     34  C   UNK A   0       1.348   3.607  21.220  0.00  0.00    +0.000 A 
ATOM     35  C   UNK A   0       1.445   4.547  20.193  0.00  0.00    +0.000 A 
ENDBRANCH  29  30
ENDBRANCH   1  29
TORSDOF 17
ENDMDL
MODEL 5
REMARK VINA RESULT:      -6.6      3.041      3.923
REMARK  Name = 
REMARK  18 active torsions:
REMARK  status: ('A' for Active; 'I' for Inactive)
REMARK    1  A    between atoms: CE_1  and  SD_2
REMARK    2  A    between atoms: SD_2  and  CG_3
REMARK    3  A    between atoms: CG_3  and  CB_4
REMARK    4  A    between atoms: CB_4  and  CA_5
REMARK    5  A    between atoms: CA_5  and  N_6
REMARK    6  A    between atoms: CA_5  and  C_27
REMARK    7  A    between atoms: C_7  and  C_9
REMARK    8  A    between atoms: C_9  and  C_10
REMARK    9  A    between atoms: C_9  and  C_20
REMARK   10  A    between atoms: C_10  and  C_11
REMARK   11  A    between atoms: C_11  and  C_12
REMARK   12  A    between atoms: C_12  and  N_13
REMARK   13  A    between atoms: C_14  and  C_16
REMARK   14  A    between atoms: C_16  and  N_17
REMARK   15  A    between atoms: C_16  and  C_18
REMARK   16  A    between atoms: C_18  and  S_19
REMARK   17  A    between atoms: C_20  and  C_21
REMARK   18  A    between atoms: C_27  and  OXT_29
REMARK                            x       y       z     vdW  Elec       q    Type
REMARK                         _______ _______ _______ _____ _____    ______ ____
ROOT
ATOM      1  C   UNK A   0       2.910   6.259  17.884  0.00  0.00    +0.000 C 
ENDROOT
BRANCH   1   3
ATOM      2  N   MET A   1       5.285   5.720  17.467  0.00  0.00    +0.000 N 
ATOM      3  C   UNK A   0       4.322   5.987  18.406  0.00  0.00    +0.000 C 
ATOM      4  O   UNK A   0       4.547   5.918  19.612  0.00  0.00    +0.000 OA
ATOM      5  H   MET A   1       5.116   5.888  16.480  0.00  0.00    +0.000 HD
BRANCH   2   6
ATOM      6  CA  MET A   1       6.666   5.431  17.838  0.00  0.00    +0.000 C 
BRANCH   6   7
ATOM      7  C   MET A   1       7.443   6.749  17.850  0.00  0.00    +0.000 C 
ATOM      8  O   MET A   1       8.224   7.073  18.740  0.00  0.00    +0.000 OA
BRANCH   7   9
ATOM      9  OXT MET A   1       7.146   7.575  16.817  0.00  0.00    +0.000 OA
ATOM     10  HXT MET A   1       7.122   8.524  17.065  0.00  0.00    +0.000 HD
ENDBRANCH   7   9
ENDBRANCH   6   7
BRANCH   6  11
ATOM     11  CB  MET A   1       7.262   4.450  16.823  0.00  0.00    +0.000 C 
BRANCH  11  12
ATOM     12  CG  MET A   1       6.330   4.010  15.697  0.00  0.00    +0.000 C 
BRANCH  12  14
ATOM     13  CE  MET A   1       6.045   3.554  12.999  0.00  0.00    +0.000 C 
ATOM     14  SD  MET A   1       6.784   4.773  14.108  0.00  0.00    +0.000 S 
ENDBRANCH  12  14
ENDBRANCH  11  12
ENDBRANCH   6  11
ENDBRANCH   2   6
ENDBRANCH   1   3
BRANCH   1  15
ATOM     15  C   UNK A   0       2.297   7.460  18.633  0.00  0.00    +0.000 C 
BRANCH  15  16
ATOM     16  C   UNK A   0       1.939   8.674  17.771  0.00  0.00    +0.000 C 
BRANCH  16  17
ATOM     17  C   UNK A   0       1.336   9.792  18.629  0.00  0.00    +0.000 C 
BRANCH  17  18
ATOM     18  N   UNK A   0       0.066  10.242  18.100  0.00  0.00    +0.000 N 
ATOM     19  C   UNK A   0      -0.494  11.438  18.512  0.00  0.00    +0.000 C 
ATOM     20  O   UNK A   0      -0.023  12.116  19.417  0.00  0.00    +0.000 OA
ATOM     21  H   UNK A   0      -0.310   9.777  17.282  0.00  0.00    +0.000 HD
BRANCH  19  22
ATOM     22  C   UNK A   0      -1.799  11.806  17.776  0.00  0.00    +0.000 C 
BRANCH  22  23
ATOM     23  N   UNK A   0      -1.942  10.906  16.610  0.00  0.00    +0.000 NA
ATOM     24  H   UNK A   0      -1.876  11.469  15.757  0.00  0.00    +0.000 HD
ATOM     25  H   UNK A   0      -2.888  10.523  16.599  0.00  0.00    +0.000 HD
ENDBRANCH  22  23
BRANCH  22  26
ATOM     26  C   UNK A   0      -3.006  11.673  18.720  0.00  0.00    +0.000 C 
BRANCH  26  27
ATOM     27  S   UNK A   0      -4.507  11.125  17.835  0.00  0.00    +0.000 S 
ATOM     28  H   UNK A   0      -5.193  12.270  17.996  0.00  0.00    +0.000 HD
ENDBRANCH  26  27
ENDBRANCH  22  26
ENDBRANCH  19  22
ENDBRANCH  17  18
ENDBRANCH  16  17
ENDBRANCH  15  16
ENDBRANCH   1  15
BRANCH   1  29
ATOM     29  C   UNK A   0       1.989   5.023  17.824  0.00  0.00    +0.000 C 
BRANCH  29  30
ATOM     30  C   UNK A   0       2.101   4.079  19.007  0.00  0.00    +0.000 A 
ATOM     31  C   UNK A   0       1.296   4.292  20.136  0.00  0.00    +0.000 A 
ATOM     32  C   UNK A   0       1.475   3.529  21.292  0.00  0.00    +0.000 A 
ATOM     33  C   UNK A   0       2.442   2.529  21.328  0.00  0.00    +0.000 A 
ATOM     34  C   UNK A   0       3.196   2.258  20.191  0.00  0.00    +0.000 A 
ATOM     35  C   UNK A   0       3.017   3.016  19.033  0.00  0.00    +0.000 A 
ENDBRANCH  29  30
ENDBRANCH   1  29
TORSDOF 17
ENDMDL
MODEL 6
REMARK VINA RESULT:      -6.5      2.599      3.433
REMARK  Name = 
REMARK  18 active torsions:
REMARK  status: ('A' for Active; 'I' for Inactive)
REMARK    1  A    between atoms: CE_1  and  SD_2
REMARK    2  A    between atoms: SD_2  and  CG_3
REMARK    3  A    between atoms: CG_3  and  CB_4
REMARK    4  A    between atoms: CB_4  and  CA_5
REMARK    5  A    between atoms: CA_5  and  N_6
REMARK    6  A    between atoms: CA_5  and  C_27
REMARK    7  A    between atoms: C_7  and  C_9
REMARK    8  A    between atoms: C_9  and  C_10
REMARK    9  A    between atoms: C_9  and  C_20
REMARK   10  A    between atoms: C_10  and  C_11
REMARK   11  A    between atoms: C_11  and  C_12
REMARK   12  A    between atoms: C_12  and  N_13
REMARK   13  A    between atoms: C_14  and  C_16
REMARK   14  A    between atoms: C_16  and  N_17
REMARK   15  A    between atoms: C_16  and  C_18
REMARK   16  A    between atoms: C_18  and  S_19
REMARK   17  A    between atoms: C_20  and  C_21
REMARK   18  A    between atoms: C_27  and  OXT_29
REMARK                            x       y       z     vdW  Elec       q    Type
REMARK                         _______ _______ _______ _____ _____    ______ ____
ROOT
ATOM      1  C   UNK A   0       3.090   6.403  18.124  0.00  0.00    +0.000 C 
ENDROOT
BRANCH   1   3
ATOM      2  N   MET A   1       5.306   5.770  17.232  0.00  0.00    +0.000 N 
ATOM      3  C   UNK A   0       4.520   5.908  18.347  0.00  0.00    +0.000 C 
ATOM      4  O   UNK A   0       4.901   5.560  19.462  0.00  0.00    +0.000 OA
ATOM      5  H   MET A   1       5.022   6.161  16.339  0.00  0.00    +0.000 HD
BRANCH   2   6
ATOM      6  CA  MET A   1       6.682   5.294  17.312  0.00  0.00    +0.000 C 
BRANCH   6   7
ATOM      7  C   MET A   1       7.572   6.468  17.724  0.00  0.00    +0.000 C 
ATOM      8  O   MET A   1       8.124   6.556  18.816  0.00  0.00    +0.000 OA
BRANCH   7   9
ATOM      9  OXT MET A   1       7.650   7.455  16.796  0.00  0.00    +0.000 OA
ATOM     10  HXT MET A   1       8.137   8.248  17.104  0.00  0.00    +0.000 HD
ENDBRANCH   7   9
ENDBRANCH   6   7
BRANCH   6  11
ATOM     11  CB  MET A   1       7.100   4.740  15.945  0.00  0.00    +0.000 C 
BRANCH  11  12
ATOM     12  CG  MET A   1       6.016   4.733  14.871  0.00  0.00    +0.000 C 
BRANCH  12  14
ATOM     13  CE  MET A   1       5.019   3.548  12.597  0.00  0.00    +0.000 C 
ATOM     14  SD  MET A   1       6.613   4.004  13.314  0.00  0.00    +0.000 S 
ENDBRANCH  12  14
ENDBRANCH  11  12
ENDBRANCH   6  11
ENDBRANCH   2   6
ENDBRANCH   1   3
BRANCH   1  15
ATOM     15  C   UNK A   0       3.113   7.860  17.620  0.00  0.00    +0.000 C 
BRANCH  15  16
ATOM     16  C   UNK A   0       1.787   8.621  17.710  0.00  0.00    +0.000 C 
BRANCH  16  17
ATOM     17  C   UNK A   0       1.896   9.790  18.694  0.00  0.00    +0.000 C 
BRANCH  17  18
ATOM     18  N   UNK A   0       1.126  10.933  18.250  0.00  0.00    +0.000 N 
ATOM     19  C   UNK A   0       0.012  11.358  18.951  0.00  0.00    +0.000 C 
ATOM     20  O   UNK A   0      -0.453  10.738  19.900  0.00  0.00    +0.000 OA
ATOM     21  H   UNK A   0       1.523  11.537  17.540  0.00  0.00    +0.000 HD
BRANCH  19  22
ATOM     22  C   UNK A   0      -0.629  12.644  18.391  0.00  0.00    +0.000 C 
BRANCH  22  23
ATOM     23  N   UNK A   0      -1.662  12.253  17.403  0.00  0.00    +0.000 NA
ATOM     24  H   UNK A   0      -2.409  12.953  17.424  0.00  0.00    +0.000 HD
ATOM     25  H   UNK A   0      -2.105  11.387  17.712  0.00  0.00    +0.000 HD
ENDBRANCH  22  23
BRANCH  22  26
ATOM     26  C   UNK A   0      -1.247  13.477  19.526  0.00  0.00    +0.000 C 
BRANCH  26  27
ATOM     27  S   UNK A   0      -0.450  15.114  19.682  0.00  0.00    +0.000 S 
ATOM     28  H   UNK A   0       0.337  14.791  20.722  0.00  0.00    +0.000 HD
ENDBRANCH  26  27
ENDBRANCH  22  26
ENDBRANCH  19  22
ENDBRANCH  17  18
ENDBRANCH  16  17
ENDBRANCH  15  16
ENDBRANCH   1  15
BRANCH   1  29
ATOM     29  C   UNK A   0       2.126   6.164  19.305  0.00  0.00    +0.000 C 
BRANCH  29  30
ATOM     30  C   UNK A   0       1.682   4.725  19.490  0.00  0.00    +0.000 A 
ATOM     31  C   UNK A   0       1.570   4.201  20.787  0.00  0.00    +0.000 A 
ATOM     32  C   UNK A   0       1.301   2.846  20.987  0.00  0.00    +0.000 A 
ATOM     33  C   UNK A   0       1.117   2.001  19.896  0.00  0.00    +0.000 A 
ATOM     34  C   UNK A   0       1.152   2.521  18.606  0.00  0.00    +0.000 A 
ATOM     35  C   UNK A   0       1.416   3.877  18.404  0.00  0.00    +0.000 A 
ENDBRANCH  29  30
ENDBRANCH   1  29
TORSDOF 17
ENDMDL
MODEL 7
REMARK VINA RESULT:      -6.5      3.246      4.055
REMARK  Name = 
REMARK  18 active torsions:
REMARK  status: ('A' for Active; 'I' for Inactive)
REMARK    1  A    between atoms: CE_1  and  SD_2
REMARK    2  A    between atoms: SD_2  and  CG_3
REMARK    3  A    between atoms: CG_3  and  CB_4
REMARK    4  A    between atoms: CB_4  and  CA_5
REMARK    5  A    between atoms: CA_5  and  N_6
REMARK    6  A    between atoms: CA_5  and  C_27
REMARK    7  A    between atoms: C_7  and  C_9
REMARK    8  A    between atoms: C_9  and  C_10
REMARK    9  A    between atoms: C_9  and  C_20
REMARK   10  A    between atoms: C_10  and  C_11
REMARK   11  A    between atoms: C_11  and  C_12
REMARK   12  A    between atoms: C_12  and  N_13
REMARK   13  A    between atoms: C_14  and  C_16
REMARK   14  A    between atoms: C_16  and  N_17
REMARK   15  A    between atoms: C_16  and  C_18
REMARK   16  A    between atoms: C_18  and  S_19
REMARK   17  A    between atoms: C_20  and  C_21
REMARK   18  A    between atoms: C_27  and  OXT_29
REMARK                            x       y       z     vdW  Elec       q    Type
REMARK                         _______ _______ _______ _____ _____    ______ ____
ROOT
ATOM      1  C   UNK A   0       2.894   6.714  18.371  0.00  0.00    +0.000 C 
ENDROOT
BRANCH   1   3
ATOM      2  N   MET A   1       4.584   5.896  16.763  0.00  0.00    +0.000 N 
ATOM      3  C   UNK A   0       4.231   6.028  18.082  0.00  0.00    +0.000 C 
ATOM      4  O   UNK A   0       4.898   5.536  18.989  0.00  0.00    +0.000 OA
ATOM      5  H   MET A   1       4.086   6.398  16.034  0.00  0.00    +0.000 HD
BRANCH   2   6
ATOM      6  CA  MET A   1       5.825   5.249  16.357  0.00  0.00    +0.000 C 
BRANCH   6   7
ATOM      7  C   MET A   1       6.994   6.061  16.919  0.00  0.00    +0.000 C 
ATOM      8  O   MET A   1       7.219   7.229  16.620  0.00  0.00    +0.000 OA
BRANCH   7   9
ATOM      9  OXT MET A   1       7.815   5.355  17.736  0.00  0.00    +0.000 OA
ATOM     10  HXT MET A   1       7.415   5.137  18.604  0.00  0.00    +0.000 HD
ENDBRANCH   7   9
ENDBRANCH   6   7
BRANCH   6  11
ATOM     11  CB  MET A   1       5.883   5.190  14.827  0.00  0.00    +0.000 C 
BRANCH  11  12
ATOM     12  CG  MET A   1       6.032   3.797  14.221  0.00  0.00    +0.000 C 
BRANCH  12  14
ATOM     13  CE  MET A   1       5.487   2.615  11.796  0.00  0.00    +0.000 C 
ATOM     14  SD  MET A   1       6.587   3.870  12.489  0.00  0.00    +0.000 S 
ENDBRANCH  12  14
ENDBRANCH  11  12
ENDBRANCH   6  11
ENDBRANCH   2   6
ENDBRANCH   1   3
BRANCH   1  15
ATOM     15  C   UNK A   0       2.968   8.198  17.962  0.00  0.00    +0.000 C 
BRANCH  15  16
ATOM     16  C   UNK A   0       1.627   8.884  17.683  0.00  0.00    +0.000 C 
BRANCH  16  17
ATOM     17  C   UNK A   0       1.440  10.104  18.589  0.00  0.00    +0.000 C 
BRANCH  17  18
ATOM     18  N   UNK A   0       0.502   9.833  19.659  0.00  0.00    +0.000 N 
ATOM     19  C   UNK A   0       0.488  10.606  20.806  0.00  0.00    +0.000 C 
ATOM     20  O   UNK A   0       1.325  11.470  21.037  0.00  0.00    +0.000 OA
ATOM     21  H   UNK A   0      -0.271   9.206  19.477  0.00  0.00    +0.000 HD
BRANCH  19  22
ATOM     22  C   UNK A   0      -0.636  10.238  21.797  0.00  0.00    +0.000 C 
BRANCH  22  23
ATOM     23  N   UNK A   0      -0.261   8.974  22.471  0.00  0.00    +0.000 NA
ATOM     24  H   UNK A   0      -0.766   8.206  22.020  0.00  0.00    +0.000 HD
ATOM     25  H   UNK A   0      -0.612   8.992  23.429  0.00  0.00    +0.000 HD
ENDBRANCH  22  23
BRANCH  22  26
ATOM     26  C   UNK A   0      -0.840  11.365  22.823  0.00  0.00    +0.000 C 
BRANCH  26  27
ATOM     27  S   UNK A   0      -2.409  12.260  22.548  0.00  0.00    +0.000 S 
ATOM     28  H   UNK A   0      -2.122  12.673  21.302  0.00  0.00    +0.000 HD
ENDBRANCH  26  27
ENDBRANCH  22  26
ENDBRANCH  19  22
ENDBRANCH  17  18
ENDBRANCH  16  17
ENDBRANCH  15  16
ENDBRANCH   1  15
BRANCH   1  29
ATOM     29  C   UNK A   0       2.337   6.482  19.791  0.00  0.00    +0.000 C 
BRANCH  29  30
ATOM     30  C   UNK A   0       1.913   5.056  20.090  0.00  0.00    +0.000 A 
ATOM     31  C   UNK A   0       2.208   4.499  21.343  0.00  0.00    +0.000 A 
ATOM     32  C   UNK A   0       1.957   3.149  21.599  0.00  0.00    +0.000 A 
ATOM     33  C   UNK A   0       1.386   2.345  20.617  0.00  0.00    +0.000 A 
ATOM     34  C   UNK A   0       1.020   2.903  19.396  0.00  0.00    +0.000 A 
ATOM     35  C   UNK A   0       1.266   4.252  19.139  0.00  0.00    +0.000 A 
ENDBRANCH  29  30
ENDBRANCH   1  29
TORSDOF 17
ENDMDL
MODEL 8
REMARK VINA RESULT:      -6.5      3.084      3.773
REMARK  Name = 
REMARK  18 active torsions:
REMARK  status: ('A' for Active; 'I' for Inactive)
REMARK    1  A    between atoms: CE_1  and  SD_2
REMARK    2  A    between atoms: SD_2  and  CG_3
REMARK    3  A    between atoms: CG_3  and  CB_4
REMARK    4  A    between atoms: CB_4  and  CA_5
REMARK    5  A    between atoms: CA_5  and  N_6
REMARK    6  A    between atoms: CA_5  and  C_27
REMARK    7  A    between atoms: C_7  and  C_9
REMARK    8  A    between atoms: C_9  and  C_10
REMARK    9  A    between atoms: C_9  and  C_20
REMARK   10  A    between atoms: C_10  and  C_11
REMARK   11  A    between atoms: C_11  and  C_12
REMARK   12  A    between atoms: C_12  and  N_13
REMARK   13  A    between atoms: C_14  and  C_16
REMARK   14  A    between atoms: C_16  and  N_17
REMARK   15  A    between atoms: C_16  and  C_18
REMARK   16  A    between atoms: C_18  and  S_19
REMARK   17  A    between atoms: C_20  and  C_21
REMARK   18  A    between atoms: C_27  and  OXT_29
REMARK                            x       y       z     vdW  Elec       q    Type
REMARK                         _______ _______ _______ _____ _____    ______ ____
ROOT
ATOM      1  C   UNK A   0       3.074   6.753  17.982  0.00  0.00    +0.000 C 
ENDROOT
BRANCH   1   3
ATOM      2  N   MET A   1       4.636   5.067  17.071  0.00  0.00    +0.000 N 
ATOM      3  C   UNK A   0       4.493   6.324  17.602  0.00  0.00    +0.000 C 
ATOM      4  O   UNK A   0       5.458   7.040  17.856  0.00  0.00    +0.000 OA
ATOM      5  H   MET A   1       3.829   4.532  16.765  0.00  0.00    +0.000 HD
BRANCH   2   6
ATOM      6  CA  MET A   1       5.938   4.538  16.683  0.00  0.00    +0.000 C 
BRANCH   6   7
ATOM      7  C   MET A   1       6.754   4.293  17.954  0.00  0.00    +0.000 C 
ATOM      8  O   MET A   1       7.966   4.467  18.031  0.00  0.00    +0.000 OA
BRANCH   7   9
ATOM      9  OXT MET A   1       6.030   3.797  18.988  0.00  0.00    +0.000 OA
ATOM     10  HXT MET A   1       6.482   3.076  19.475  0.00  0.00    +0.000 HD
ENDBRANCH   7   9
ENDBRANCH   6   7
BRANCH   6  11
ATOM     11  CB  MET A   1       6.637   5.547  15.767  0.00  0.00    +0.000 C 
BRANCH  11  12
ATOM     12  CG  MET A   1       7.003   5.040  14.375  0.00  0.00    +0.000 C 
BRANCH  12  14
ATOM     13  CE  MET A   1       6.540   3.482  12.154  0.00  0.00    +0.000 C 
ATOM     14  SD  MET A   1       5.869   3.733  13.812  0.00  0.00    +0.000 S 
ENDBRANCH  12  14
ENDBRANCH  11  12
ENDBRANCH   6  11
ENDBRANCH   2   6
ENDBRANCH   1   3
BRANCH   1  15
ATOM     15  C   UNK A   0       2.808   8.186  17.482  0.00  0.00    +0.000 C 
BRANCH  15  16
ATOM     16  C   UNK A   0       1.499   8.827  17.950  0.00  0.00    +0.000 C 
BRANCH  16  17
ATOM     17  C   UNK A   0       1.729  10.276  18.391  0.00  0.00    +0.000 C 
BRANCH  17  18
ATOM     18  N   UNK A   0       0.568  11.101  18.131  0.00  0.00    +0.000 N 
ATOM     19  C   UNK A   0      -0.363  11.354  19.123  0.00  0.00    +0.000 C 
ATOM     20  O   UNK A   0      -0.329  10.811  20.221  0.00  0.00    +0.000 OA
ATOM     21  H   UNK A   0       0.546  11.654  17.283  0.00  0.00    +0.000 HD
BRANCH  19  22
ATOM     22  C   UNK A   0      -1.483  12.327  18.701  0.00  0.00    +0.000 C 
BRANCH  22  23
ATOM     23  N   UNK A   0      -1.097  12.943  17.410  0.00  0.00    +0.000 NA
ATOM     24  H   UNK A   0      -0.694  12.215  16.814  0.00  0.00    +0.000 HD
ATOM     25  H   UNK A   0      -0.334  13.602  17.572  0.00  0.00    +0.000 HD
ENDBRANCH  22  23
BRANCH  22  26
ATOM     26  C   UNK A   0      -2.823  11.584  18.573  0.00  0.00    +0.000 C 
BRANCH  26  27
ATOM     27  S   UNK A   0      -3.098  10.961  16.878  0.00  0.00    +0.000 S 
ATOM     28  H   UNK A   0      -3.935  11.942  16.499  0.00  0.00    +0.000 HD
ENDBRANCH  26  27
ENDBRANCH  22  26
ENDBRANCH  19  22
ENDBRANCH  17  18
ENDBRANCH  16  17
ENDBRANCH  15  16
ENDBRANCH   1  15
BRANCH   1  29
ATOM     29  C   UNK A   0       2.699   6.526  19.461  0.00  0.00    +0.000 C 
BRANCH  29  30
ATOM     30  C   UNK A   0       2.216   5.126  19.794  0.00  0.00    +0.000 A 
ATOM     31  C   UNK A   0       1.622   4.346  18.791  0.00  0.00    +0.000 A 
ATOM     32  C   UNK A   0       1.043   3.113  19.097  0.00  0.00    +0.000 A 
ATOM     33  C   UNK A   0       1.070   2.632  20.402  0.00  0.00    +0.000 A 
ATOM     34  C   UNK A   0       1.720   3.361  21.393  0.00  0.00    +0.000 A 
ATOM     35  C   UNK A   0       2.304   4.592  21.089  0.00  0.00    +0.000 A 
ENDBRANCH  29  30
ENDBRANCH   1  29
TORSDOF 17
ENDMDL
MODEL 9
REMARK VINA RESULT:      -6.5      3.803      5.912
REMARK  Name = 
REMARK  18 active torsions:
REMARK  status: ('A' for Active; 'I' for Inactive)
REMARK    1  A    between atoms: CE_1  and  SD_2
REMARK    2  A    between atoms: SD_2  and  CG_3
REMARK    3  A    between atoms: CG_3  and  CB_4
REMARK    4  A    between atoms: CB_4  and  CA_5
REMARK    5  A    between atoms: CA_5  and  N_6
REMARK    6  A    between atoms: CA_5  and  C_27
REMARK    7  A    between atoms: C_7  and  C_9
REMARK    8  A    between atoms: C_9  and  C_10
REMARK    9  A    between atoms: C_9  and  C_20
REMARK   10  A    between atoms: C_10  and  C_11
REMARK   11  A    between atoms: C_11  and  C_12
REMARK   12  A    between atoms: C_12  and  N_13
REMARK   13  A    between atoms: C_14  and  C_16
REMARK   14  A    between atoms: C_16  and  N_17
REMARK   15  A    between atoms: C_16  and  C_18
REMARK   16  A    between atoms: C_18  and  S_19
REMARK   17  A    between atoms: C_20  and  C_21
REMARK   18  A    between atoms: C_27  and  OXT_29
REMARK                            x       y       z     vdW  Elec       q    Type
REMARK                         _______ _______ _______ _____ _____    ______ ____
ROOT
ATOM      1  C   UNK A   0       3.266   6.862  18.607  0.00  0.00    +0.000 C 
ENDROOT
BRANCH   1   3
ATOM      2  N   MET A   1       3.116   4.714  19.819  0.00  0.00    +0.000 N 
ATOM      3  C   UNK A   0       2.670   5.462  18.760  0.00  0.00    +0.000 C 
ATOM      4  O   UNK A   0       1.905   5.005  17.914  0.00  0.00    +0.000 OA
ATOM      5  H   MET A   1       3.659   5.135  20.567  0.00  0.00    +0.000 HD
BRANCH   2   6
ATOM      6  CA  MET A   1       2.635   3.359  20.065  0.00  0.00    +0.000 C 
BRANCH   6   7
ATOM      7  C   MET A   1       1.442   3.442  21.019  0.00  0.00    +0.000 C 
ATOM      8  O   MET A   1       1.461   3.029  22.174  0.00  0.00    +0.000 OA
BRANCH   7   9
ATOM      9  OXT MET A   1       0.320   3.955  20.456  0.00  0.00    +0.000 OA
ATOM     10  HXT MET A   1      -0.237   3.286  20.004  0.00  0.00    +0.000 HD
ENDBRANCH   7   9
ENDBRANCH   6   7
BRANCH   6  11
ATOM     11  CB  MET A   1       3.769   2.528  20.674  0.00  0.00    +0.000 C 
BRANCH  11  12
ATOM     12  CG  MET A   1       4.528   1.627  19.704  0.00  0.00    +0.000 C 
BRANCH  12  14
ATOM     13  CE  MET A   1       4.334   2.677  17.168  0.00  0.00    +0.000 C 
ATOM     14  SD  MET A   1       3.599   1.360  18.162  0.00  0.00    +0.000 S 
ENDBRANCH  12  14
ENDBRANCH  11  12
ENDBRANCH   6  11
ENDBRANCH   2   6
ENDBRANCH   1   3
BRANCH   1  15
ATOM     15  C   UNK A   0       2.214   7.924  18.982  0.00  0.00    +0.000 C 
BRANCH  15  16
ATOM     16  C   UNK A   0       2.029   9.068  17.981  0.00  0.00    +0.000 C 
BRANCH  16  17
ATOM     17  C   UNK A   0       1.287  10.243  18.626  0.00  0.00    +0.000 C 
BRANCH  17  18
ATOM     18  N   UNK A   0       0.009  10.478  17.990  0.00  0.00    +0.000 N 
ATOM     19  C   UNK A   0      -1.118  10.764  18.740  0.00  0.00    +0.000 C 
ATOM     20  O   UNK A   0      -1.132  10.718  19.964  0.00  0.00    +0.000 OA
ATOM     21  H   UNK A   0      -0.014  10.630  16.989  0.00  0.00    +0.000 HD
BRANCH  19  22
ATOM     22  C   UNK A   0      -2.370  11.080  17.896  0.00  0.00    +0.000 C 
BRANCH  22  23
ATOM     23  N   UNK A   0      -2.004  12.107  16.894  0.00  0.00    +0.000 NA
ATOM     24  H   UNK A   0      -2.837  12.666  16.685  0.00  0.00    +0.000 HD
ATOM     25  H   UNK A   0      -1.772  11.645  16.014  0.00  0.00    +0.000 HD
ENDBRANCH  22  23
BRANCH  22  26
ATOM     26  C   UNK A   0      -2.892   9.807  17.208  0.00  0.00    +0.000 C 
BRANCH  26  27
ATOM     27  S   UNK A   0      -3.004  10.009  15.396  0.00  0.00    +0.000 S 
ATOM     28  H   UNK A   0      -2.475   8.812  15.086  0.00  0.00    +0.000 HD
ENDBRANCH  26  27
ENDBRANCH  22  26
ENDBRANCH  19  22
ENDBRANCH  17  18
ENDBRANCH  16  17
ENDBRANCH  15  16
ENDBRANCH   1  15
BRANCH   1  29
ATOM     29  C   UNK A   0       3.969   7.126  17.259  0.00  0.00    +0.000 C 
BRANCH  29  30
ATOM     30  C   UNK A   0       5.233   6.319  17.024  0.00  0.00    +0.000 A 
ATOM     31  C   UNK A   0       5.544   5.890  15.726  0.00  0.00    +0.000 A 
ATOM     32  C   UNK A   0       6.621   5.030  15.499  0.00  0.00    +0.000 A 
ATOM     33  C   UNK A   0       7.415   4.608  16.561  0.00  0.00    +0.000 A 
ATOM     34  C   UNK A   0       7.163   5.085  17.843  0.00  0.00    +0.000 A 
ATOM     35  C   UNK A   0       6.090   5.948  18.072  0.00  0.00    +0.000 A 
ENDBRANCH  29  30
ENDBRANCH   1  29
TORSDOF 17
ENDMDL
