MODEL 1
REMARK VINA RESULT:      -5.7      0.000      0.000
REMARK  Name = 
REMARK  19 active torsions:
REMARK  status: ('A' for Active; 'I' for Inactive)
REMARK    1  A    between atoms: C_1  and  C_2
REMARK    2  A    between atoms: C_2  and  C_3
REMARK    3  A    between atoms: C_3  and  C_4
REMARK    4  A    between atoms: C_4  and  C_5
REMARK    5  A    between atoms: C_5  and  C_6
REMARK    6  A    between atoms: C_6  and  C_7
REMARK    7  A    between atoms: C_7  and  C_8
REMARK    8  A    between atoms: C_8  and  C_9
REMARK    9  A    between atoms: C_9  and  C_10
REMARK   10  A    between atoms: C_10  and  C_11
REMARK   11  A    between atoms: C_11  and  C_12
REMARK   12  A    between atoms: C_12  and  N_13
REMARK   13  A    between atoms: C_14  and  C_16
REMARK   14  A    between atoms: C_16  and  N_17
REMARK   15  A    between atoms: N_17  and  N_22
REMARK   16  A    between atoms: C_18  and  C_20
REMARK   17  A    between atoms: C_20  and  N_21
REMARK   18  A    between atoms: N_22  and  C_23
REMARK   19  A    between atoms: C_24  and  C_25
REMARK                            x       y       z     vdW  Elec       q    Type
REMARK                         _______ _______ _______ _____ _____    ______ ____
ROOT
ATOM      1  N   UNL     1       1.963   8.167  19.142  0.00  0.00    +0.000 N 
ATOM      2  C   UNL     1       1.812   9.207  18.255  0.00  0.00    +0.000 C 
ATOM      3  O   UNL     1       2.108   9.092  17.062  0.00  0.00    +0.000 OA
ATOM      4  H   UNL     1       1.577   8.243  20.089  0.00  0.00    +0.000 HD
ENDROOT
BRANCH   2   5
ATOM      5  C   UNL     1       1.412  10.584  18.815  0.00  0.00    +0.000 C 
BRANCH   5   6
ATOM      6  N   UNL     1       0.165  10.790  19.577  0.00  0.00    +0.000 N 
ATOM      7  C   UNL     1       0.285  10.994  20.957  0.00  0.00    +0.000 C 
ATOM      8  O   UNL     1       1.388  10.882  21.529  0.00  0.00    +0.000 OA
BRANCH   6   9
ATOM      9  N   UNL     1      -0.815  11.621  18.827  0.00  0.00    +0.000 N 
ATOM     10  C   UNL     1      -0.455  13.018  18.577  0.00  0.00    +0.000 C 
ATOM     11  C   UNL     1      -1.852  11.137  18.029  0.00  0.00    +0.000 C 
ATOM     12  C   UNL     1      -2.088   9.654  17.933  0.00  0.00    +0.000 C 
ATOM     13  O   UNL     1      -2.584  11.897  17.399  0.00  0.00    +0.000 OA
ENDBRANCH   6   9
BRANCH   7  14
ATOM     14  C   UNL     1      -0.990  11.142  21.780  0.00  0.00    +0.000 C 
BRANCH  14  15
ATOM     15  N   UNL     1      -0.743  11.204  23.231  0.00  0.00    +0.000 NA
ATOM     16  H   UNL     1       0.164  10.775  23.428  0.00  0.00    +0.000 HD
ATOM     17  H   UNL     1      -1.447  10.622  23.709  0.00  0.00    +0.000 HD
ENDBRANCH  14  15
ENDBRANCH   7  14
ENDBRANCH   5   6
ENDBRANCH   2   5
BRANCH   1  18
ATOM     18  C   UNL     1       2.527   6.911  18.681  0.00  0.00    +0.000 C 
BRANCH  18  19
ATOM     19  C   UNL     1       2.955   6.030  19.843  0.00  0.00    +0.000 C 
BRANCH  19  20
ATOM     20  C   UNL     1       1.731   5.579  20.636  0.00  0.00    +0.000 C 
BRANCH  20  21
ATOM     21  C   UNL     1       1.703   4.067  20.735  0.00  0.00    +0.000 C 
BRANCH  21  22
ATOM     22  C   UNL     1       0.678   3.464  19.788  0.00  0.00    +0.000 C 
BRANCH  22  23
ATOM     23  C   UNL     1       1.408   2.658  18.733  0.00  0.00    +0.000 C 
BRANCH  23  24
ATOM     24  C   UNL     1       2.787   2.232  19.211  0.00  0.00    +0.000 C 
BRANCH  24  25
ATOM     25  C   UNL     1       3.805   2.471  18.107  0.00  0.00    +0.000 C 
BRANCH  25  26
ATOM     26  C   UNL     1       3.332   3.570  17.169  0.00  0.00    +0.000 C 
BRANCH  26  27
ATOM     27  C   UNL     1       4.512   4.398  16.675  0.00  0.00    +0.000 C 
BRANCH  27  29
ATOM     28  C   UNL     1       6.981   4.596  17.056  0.00  0.00    +0.000 C 
ATOM     29  C   UNL     1       5.623   4.427  17.716  0.00  0.00    +0.000 C 
ENDBRANCH  27  29
ENDBRANCH  26  27
ENDBRANCH  25  26
ENDBRANCH  24  25
ENDBRANCH  23  24
ENDBRANCH  22  23
ENDBRANCH  21  22
ENDBRANCH  20  21
ENDBRANCH  19  20
ENDBRANCH  18  19
ENDBRANCH   1  18
TORSDOF 16
ENDMDL
MODEL 2
REMARK VINA RESULT:      -5.6      1.861      3.768
REMARK  Name = 
REMARK  19 active torsions:
REMARK  status: ('A' for Active; 'I' for Inactive)
REMARK    1  A    between atoms: C_1  and  C_2
REMARK    2  A    between atoms: C_2  and  C_3
REMARK    3  A    between atoms: C_3  and  C_4
REMARK    4  A    between atoms: C_4  and  C_5
REMARK    5  A    between atoms: C_5  and  C_6
REMARK    6  A    between atoms: C_6  and  C_7
REMARK    7  A    between atoms: C_7  and  C_8
REMARK    8  A    between atoms: C_8  and  C_9
REMARK    9  A    between atoms: C_9  and  C_10
REMARK   10  A    between atoms: C_10  and  C_11
REMARK   11  A    between atoms: C_11  and  C_12
REMARK   12  A    between atoms: C_12  and  N_13
REMARK   13  A    between atoms: C_14  and  C_16
REMARK   14  A    between atoms: C_16  and  N_17
REMARK   15  A    between atoms: N_17  and  N_22
REMARK   16  A    between atoms: C_18  and  C_20
REMARK   17  A    between atoms: C_20  and  N_21
REMARK   18  A    between atoms: N_22  and  C_23
REMARK   19  A    between atoms: C_24  and  C_25
REMARK                            x       y       z     vdW  Elec       q    Type
REMARK                         _______ _______ _______ _____ _____    ______ ____
ROOT
ATOM      1  N   UNL     1       1.158   9.790  18.536  0.00  0.00    +0.000 N 
ATOM      2  C   UNL     1      -0.177  10.083  18.393  0.00  0.00    +0.000 C 
ATOM      3  O   UNL     1      -0.840   9.649  17.446  0.00  0.00    +0.000 OA
ATOM      4  H   UNL     1       1.647  10.042  19.401  0.00  0.00    +0.000 HD
ENDROOT
BRANCH   2   5
ATOM      5  C   UNL     1      -0.802  11.107  19.359  0.00  0.00    +0.000 C 
BRANCH   5   6
ATOM      6  N   UNL     1      -0.012  11.780  20.407  0.00  0.00    +0.000 N 
ATOM      7  C   UNL     1       0.353  13.112  20.178  0.00  0.00    +0.000 C 
ATOM      8  O   UNL     1       0.126  13.660  19.080  0.00  0.00    +0.000 OA
BRANCH   6   9
ATOM      9  N   UNL     1      -0.464  11.401  21.774  0.00  0.00    +0.000 N 
ATOM     10  C   UNL     1      -1.741  11.949  22.232  0.00  0.00    +0.000 C 
ATOM     11  C   UNL     1      -0.000  10.311  22.512  0.00  0.00    +0.000 C 
ATOM     12  C   UNL     1       1.097   9.446  21.955  0.00  0.00    +0.000 C 
ATOM     13  O   UNL     1      -0.470  10.039  23.615  0.00  0.00    +0.000 OA
ENDBRANCH   6   9
BRANCH   7  14
ATOM     14  C   UNL     1       1.227  13.811  21.214  0.00  0.00    +0.000 C 
BRANCH  14  15
ATOM     15  N   UNL     1       2.580  13.238  21.317  0.00  0.00    +0.000 NA
ATOM     16  H   UNL     1       3.181  13.901  21.810  0.00  0.00    +0.000 HD
ATOM     17  H   UNL     1       2.970  13.145  20.367  0.00  0.00    +0.000 HD
ENDBRANCH  14  15
ENDBRANCH   7  14
ENDBRANCH   5   6
ENDBRANCH   2   5
BRANCH   1  18
ATOM     18  C   UNL     1       1.825   8.986  17.528  0.00  0.00    +0.000 C 
BRANCH  18  19
ATOM     19  C   UNL     1       2.852   8.051  18.145  0.00  0.00    +0.000 C 
BRANCH  19  20
ATOM     20  C   UNL     1       2.172   6.774  18.629  0.00  0.00    +0.000 C 
BRANCH  20  21
ATOM     21  C   UNL     1       3.050   6.070  19.646  0.00  0.00    +0.000 C 
BRANCH  21  22
ATOM     22  C   UNL     1       4.360   5.609  19.026  0.00  0.00    +0.000 C 
BRANCH  22  23
ATOM     23  C   UNL     1       4.263   4.125  18.738  0.00  0.00    +0.000 C 
BRANCH  23  24
ATOM     24  C   UNL     1       3.901   3.861  17.285  0.00  0.00    +0.000 C 
BRANCH  24  25
ATOM     25  C   UNL     1       2.559   3.149  17.216  0.00  0.00    +0.000 C 
BRANCH  25  26
ATOM     26  C   UNL     1       2.277   2.406  18.512  0.00  0.00    +0.000 C 
BRANCH  26  27
ATOM     27  C   UNL     1       0.835   2.627  18.953  0.00  0.00    +0.000 C 
BRANCH  27  29
ATOM     28  C   UNL     1       1.733   2.846  21.283  0.00  0.00    +0.000 C 
ATOM     29  C   UNL     1       0.784   3.427  20.248  0.00  0.00    +0.000 C 
ENDBRANCH  27  29
ENDBRANCH  26  27
ENDBRANCH  25  26
ENDBRANCH  24  25
ENDBRANCH  23  24
ENDBRANCH  22  23
ENDBRANCH  21  22
ENDBRANCH  20  21
ENDBRANCH  19  20
ENDBRANCH  18  19
ENDBRANCH   1  18
TORSDOF 16
ENDMDL
MODEL 3
REMARK VINA RESULT:      -5.5      1.743      2.702
REMARK  Name = 
REMARK  19 active torsions:
REMARK  status: ('A' for Active; 'I' for Inactive)
REMARK    1  A    between atoms: C_1  and  C_2
REMARK    2  A    between atoms: C_2  and  C_3
REMARK    3  A    between atoms: C_3  and  C_4
REMARK    4  A    between atoms: C_4  and  C_5
REMARK    5  A    between atoms: C_5  and  C_6
REMARK    6  A    between atoms: C_6  and  C_7
REMARK    7  A    between atoms: C_7  and  C_8
REMARK    8  A    between atoms: C_8  and  C_9
REMARK    9  A    between atoms: C_9  and  C_10
REMARK   10  A    between atoms: C_10  and  C_11
REMARK   11  A    between atoms: C_11  and  C_12
REMARK   12  A    between atoms: C_12  and  N_13
REMARK   13  A    between atoms: C_14  and  C_16
REMARK   14  A    between atoms: C_16  and  N_17
REMARK   15  A    between atoms: N_17  and  N_22
REMARK   16  A    between atoms: C_18  and  C_20
REMARK   17  A    between atoms: C_20  and  N_21
REMARK   18  A    between atoms: N_22  and  C_23
REMARK   19  A    between atoms: C_24  and  C_25
REMARK                            x       y       z     vdW  Elec       q    Type
REMARK                         _______ _______ _______ _____ _____    ______ ____
ROOT
ATOM      1  N   UNL     1       1.702   8.370  18.602  0.00  0.00    +0.000 N 
ATOM      2  C   UNL     1       1.546   9.695  18.269  0.00  0.00    +0.000 C 
ATOM      3  O   UNL     1       2.310  10.261  17.482  0.00  0.00    +0.000 OA
ATOM      4  H   UNL     1       0.974   7.890  19.141  0.00  0.00    +0.000 HD
ENDROOT
BRANCH   2   5
ATOM      5  C   UNL     1       0.485  10.513  19.028  0.00  0.00    +0.000 C 
BRANCH   5   6
ATOM      6  N   UNL     1       0.832  11.382  20.168  0.00  0.00    +0.000 N 
ATOM      7  C   UNL     1       1.170  12.710  19.881  0.00  0.00    +0.000 C 
ATOM      8  O   UNL     1       1.294  13.100  18.702  0.00  0.00    +0.000 OA
BRANCH   6   9
ATOM      9  N   UNL     1      -0.032  11.118  21.352  0.00  0.00    +0.000 N 
ATOM     10  C   UNL     1      -1.386  11.673  21.329  0.00  0.00    +0.000 C 
ATOM     11  C   UNL     1       0.169  10.112  22.298  0.00  0.00    +0.000 C 
ATOM     12  C   UNL     1       1.382   9.228  22.200  0.00  0.00    +0.000 C 
ATOM     13  O   UNL     1      -0.627   9.930  23.217  0.00  0.00    +0.000 OA
ENDBRANCH   6   9
BRANCH   7  14
ATOM     14  C   UNL     1       1.599  13.613  21.033  0.00  0.00    +0.000 C 
BRANCH  14  15
ATOM     15  N   UNL     1       3.038  13.529  21.334  0.00  0.00    +0.000 NA
ATOM     16  H   UNL     1       3.303  12.544  21.400  0.00  0.00    +0.000 HD
ATOM     17  H   UNL     1       3.202  13.936  22.268  0.00  0.00    +0.000 HD
ENDBRANCH  14  15
ENDBRANCH   7  14
ENDBRANCH   5   6
ENDBRANCH   2   5
BRANCH   1  18
ATOM     18  C   UNL     1       2.818   7.621  18.052  0.00  0.00    +0.000 C 
BRANCH  18  19
ATOM     19  C   UNL     1       3.271   6.519  18.994  0.00  0.00    +0.000 C 
BRANCH  19  20
ATOM     20  C   UNL     1       2.146   6.164  19.963  0.00  0.00    +0.000 C 
BRANCH  20  21
ATOM     21  C   UNL     1       2.414   4.813  20.598  0.00  0.00    +0.000 C 
BRANCH  21  22
ATOM     22  C   UNL     1       1.135   4.002  20.743  0.00  0.00    +0.000 C 
BRANCH  22  23
ATOM     23  C   UNL     1       1.350   2.643  20.109  0.00  0.00    +0.000 C 
BRANCH  23  24
ATOM     24  C   UNL     1       1.060   2.670  18.617  0.00  0.00    +0.000 C 
BRANCH  24  25
ATOM     25  C   UNL     1       2.313   2.284  17.847  0.00  0.00    +0.000 C 
BRANCH  25  26
ATOM     26  C   UNL     1       2.908   3.496  17.147  0.00  0.00    +0.000 C 
BRANCH  26  27
ATOM     27  C   UNL     1       4.428   3.481  17.250  0.00  0.00    +0.000 C 
BRANCH  27  29
ATOM     28  C   UNL     1       6.547   4.461  16.340  0.00  0.00    +0.000 C 
ATOM     29  C   UNL     1       5.053   4.293  16.124  0.00  0.00    +0.000 C 
ENDBRANCH  27  29
ENDBRANCH  26  27
ENDBRANCH  25  26
ENDBRANCH  24  25
ENDBRANCH  23  24
ENDBRANCH  22  23
ENDBRANCH  21  22
ENDBRANCH  20  21
ENDBRANCH  19  20
ENDBRANCH  18  19
ENDBRANCH   1  18
TORSDOF 16
ENDMDL
MODEL 4
REMARK VINA RESULT:      -5.5      1.636      3.085
REMARK  Name = 
REMARK  19 active torsions:
REMARK  status: ('A' for Active; 'I' for Inactive)
REMARK    1  A    between atoms: C_1  and  C_2
REMARK    2  A    between atoms: C_2  and  C_3
REMARK    3  A    between atoms: C_3  and  C_4
REMARK    4  A    between atoms: C_4  and  C_5
REMARK    5  A    between atoms: C_5  and  C_6
REMARK    6  A    between atoms: C_6  and  C_7
REMARK    7  A    between atoms: C_7  and  C_8
REMARK    8  A    between atoms: C_8  and  C_9
REMARK    9  A    between atoms: C_9  and  C_10
REMARK   10  A    between atoms: C_10  and  C_11
REMARK   11  A    between atoms: C_11  and  C_12
REMARK   12  A    between atoms: C_12  and  N_13
REMARK   13  A    between atoms: C_14  and  C_16
REMARK   14  A    between atoms: C_16  and  N_17
REMARK   15  A    between atoms: N_17  and  N_22
REMARK   16  A    between atoms: C_18  and  C_20
REMARK   17  A    between atoms: C_20  and  N_21
REMARK   18  A    between atoms: N_22  and  C_23
REMARK   19  A    between atoms: C_24  and  C_25
REMARK                            x       y       z     vdW  Elec       q    Type
REMARK                         _______ _______ _______ _____ _____    ______ ____
ROOT
ATOM      1  N   UNL     1       1.586   9.631  18.915  0.00  0.00    +0.000 N 
ATOM      2  C   UNL     1       1.115   9.359  20.178  0.00  0.00    +0.000 C 
ATOM      3  O   UNL     1       0.745   8.227  20.503  0.00  0.00    +0.000 OA
ATOM      4  H   UNL     1       2.018  10.539  18.717  0.00  0.00    +0.000 HD
ENDROOT
BRANCH   2   5
ATOM      5  C   UNL     1       0.903  10.540  21.143  0.00  0.00    +0.000 C 
BRANCH   5   6
ATOM      6  N   UNL     1      -0.342  11.331  21.153  0.00  0.00    +0.000 N 
ATOM      7  C   UNL     1      -0.972  11.517  22.390  0.00  0.00    +0.000 C 
ATOM      8  O   UNL     1      -0.562  10.933  23.414  0.00  0.00    +0.000 OA
BRANCH   6   9
ATOM      9  N   UNL     1      -0.275  12.488  20.219  0.00  0.00    +0.000 N 
ATOM     10  C   UNL     1       0.725  13.518  20.501  0.00  0.00    +0.000 C 
ATOM     11  C   UNL     1      -0.792  12.519  18.924  0.00  0.00    +0.000 C 
ATOM     12  C   UNL     1      -1.551  11.333  18.395  0.00  0.00    +0.000 C 
ATOM     13  O   UNL     1      -0.643  13.501  18.199  0.00  0.00    +0.000 OA
ENDBRANCH   6   9
BRANCH   7  14
ATOM     14  C   UNL     1      -2.296  12.273  22.422  0.00  0.00    +0.000 C 
BRANCH  14  15
ATOM     15  N   UNL     1      -3.178  11.855  23.524  0.00  0.00    +0.000 NA
ATOM     16  H   UNL     1      -4.081  11.576  23.135  0.00  0.00    +0.000 HD
ATOM     17  H   UNL     1      -3.363  12.674  24.124  0.00  0.00    +0.000 HD
ENDBRANCH  14  15
ENDBRANCH   7  14
ENDBRANCH   5   6
ENDBRANCH   2   5
BRANCH   1  18
ATOM     18  C   UNL     1       1.611   8.576  17.919  0.00  0.00    +0.000 C 
BRANCH  18  19
ATOM     19  C   UNL     1       2.950   7.857  17.897  0.00  0.00    +0.000 C 
BRANCH  19  20
ATOM     20  C   UNL     1       2.759   6.384  18.246  0.00  0.00    +0.000 C 
BRANCH  20  21
ATOM     21  C   UNL     1       3.968   5.868  19.000  0.00  0.00    +0.000 C 
BRANCH  21  22
ATOM     22  C   UNL     1       4.598   4.676  18.296  0.00  0.00    +0.000 C 
BRANCH  22  23
ATOM     23  C   UNL     1       3.585   4.093  17.331  0.00  0.00    +0.000 C 
BRANCH  23  24
ATOM     24  C   UNL     1       3.513   2.579  17.444  0.00  0.00    +0.000 C 
BRANCH  24  25
ATOM     25  C   UNL     1       2.546   2.196  18.554  0.00  0.00    +0.000 C 
BRANCH  25  26
ATOM     26  C   UNL     1       1.247   2.976  18.427  0.00  0.00    +0.000 C 
BRANCH  26  27
ATOM     27  C   UNL     1       0.797   3.492  19.789  0.00  0.00    +0.000 C 
BRANCH  27  29
ATOM     28  C   UNL     1       1.668   2.580  21.954  0.00  0.00    +0.000 C 
ATOM     29  C   UNL     1       1.957   3.493  20.775  0.00  0.00    +0.000 C 
ENDBRANCH  27  29
ENDBRANCH  26  27
ENDBRANCH  25  26
ENDBRANCH  24  25
ENDBRANCH  23  24
ENDBRANCH  22  23
ENDBRANCH  21  22
ENDBRANCH  20  21
ENDBRANCH  19  20
ENDBRANCH  18  19
ENDBRANCH   1  18
TORSDOF 16
ENDMDL
MODEL 5
REMARK VINA RESULT:      -5.4      5.066      8.395
REMARK  Name = 
REMARK  19 active torsions:
REMARK  status: ('A' for Active; 'I' for Inactive)
REMARK    1  A    between atoms: C_1  and  C_2
REMARK    2  A    between atoms: C_2  and  C_3
REMARK    3  A    between atoms: C_3  and  C_4
REMARK    4  A    between atoms: C_4  and  C_5
REMARK    5  A    between atoms: C_5  and  C_6
REMARK    6  A    between atoms: C_6  and  C_7
REMARK    7  A    between atoms: C_7  and  C_8
REMARK    8  A    between atoms: C_8  and  C_9
REMARK    9  A    between atoms: C_9  and  C_10
REMARK   10  A    between atoms: C_10  and  C_11
REMARK   11  A    between atoms: C_11  and  C_12
REMARK   12  A    between atoms: C_12  and  N_13
REMARK   13  A    between atoms: C_14  and  C_16
REMARK   14  A    between atoms: C_16  and  N_17
REMARK   15  A    between atoms: N_17  and  N_22
REMARK   16  A    between atoms: C_18  and  C_20
REMARK   17  A    between atoms: C_20  and  N_21
REMARK   18  A    between atoms: N_22  and  C_23
REMARK   19  A    between atoms: C_24  and  C_25
REMARK                            x       y       z     vdW  Elec       q    Type
REMARK                         _______ _______ _______ _____ _____    ______ ____
ROOT
ATOM      1  N   UNL     1       4.692   6.465  17.697  0.00  0.00    +0.000 N 
ATOM      2  C   UNL     1       3.461   7.079  17.702  0.00  0.00    +0.000 C 
ATOM      3  O   UNL     1       3.277   8.170  17.156  0.00  0.00    +0.000 OA
ATOM      4  H   UNL     1       4.782   5.499  18.030  0.00  0.00    +0.000 HD
ENDROOT
BRANCH   2   5
ATOM      5  C   UNL     1       2.341   6.448  18.550  0.00  0.00    +0.000 C 
BRANCH   5   6
ATOM      6  N   UNL     1       2.556   5.231  19.354  0.00  0.00    +0.000 N 
ATOM      7  C   UNL     1       1.963   5.188  20.621  0.00  0.00    +0.000 C 
ATOM      8  O   UNL     1       1.385   6.187  21.094  0.00  0.00    +0.000 OA
BRANCH   6   9
ATOM      9  N   UNL     1       2.518   3.999  18.519  0.00  0.00    +0.000 N 
ATOM     10  C   UNL     1       1.450   3.897  17.524  0.00  0.00    +0.000 C 
ATOM     11  C   UNL     1       3.580   3.114  18.324  0.00  0.00    +0.000 C 
ATOM     12  C   UNL     1       4.880   3.340  19.047  0.00  0.00    +0.000 C 
ATOM     13  O   UNL     1       3.477   2.148  17.572  0.00  0.00    +0.000 OA
ENDBRANCH   6   9
BRANCH   7  14
ATOM     14  C   UNL     1       2.224   3.970  21.502  0.00  0.00    +0.000 C 
BRANCH  14  15
ATOM     15  N   UNL     1       1.130   2.984  21.471  0.00  0.00    +0.000 NA
ATOM     16  H   UNL     1       1.038   2.567  22.399  0.00  0.00    +0.000 HD
ATOM     17  H   UNL     1       1.398   2.217  20.835  0.00  0.00    +0.000 HD
ENDBRANCH  14  15
ENDBRANCH   7  14
ENDBRANCH   5   6
ENDBRANCH   2   5
BRANCH   1  18
ATOM     18  C   UNL     1       5.820   7.132  17.073  0.00  0.00    +0.000 C 
BRANCH  18  19
ATOM     19  C   UNL     1       7.117   6.374  17.304  0.00  0.00    +0.000 C 
BRANCH  19  20
ATOM     20  C   UNL     1       8.014   7.152  18.262  0.00  0.00    +0.000 C 
BRANCH  20  21
ATOM     21  C   UNL     1       8.063   8.613  17.858  0.00  0.00    +0.000 C 
BRANCH  21  22
ATOM     22  C   UNL     1       8.837   9.446  18.868  0.00  0.00    +0.000 C 
BRANCH  22  23
ATOM     23  C   UNL     1       9.352  10.691  18.175  0.00  0.00    +0.000 C 
BRANCH  23  24
ATOM     24  C   UNL     1       9.312  11.900  19.096  0.00  0.00    +0.000 C 
BRANCH  24  25
ATOM     25  C   UNL     1      10.284  11.696  20.248  0.00  0.00    +0.000 C 
BRANCH  25  26
ATOM     26  C   UNL     1       9.787  12.397  21.502  0.00  0.00    +0.000 C 
BRANCH  26  27
ATOM     27  C   UNL     1       8.566  11.680  22.067  0.00  0.00    +0.000 C 
BRANCH  27  29
ATOM     28  C   UNL     1       6.784  11.777  23.825  0.00  0.00    +0.000 C 
ATOM     29  C   UNL     1       8.141  12.302  23.390  0.00  0.00    +0.000 C 
ENDBRANCH  27  29
ENDBRANCH  26  27
ENDBRANCH  25  26
ENDBRANCH  24  25
ENDBRANCH  23  24
ENDBRANCH  22  23
ENDBRANCH  21  22
ENDBRANCH  20  21
ENDBRANCH  19  20
ENDBRANCH  18  19
ENDBRANCH   1  18
TORSDOF 16
ENDMDL
MODEL 6
REMARK VINA RESULT:      -5.4      2.199      3.849
REMARK  Name = 
REMARK  19 active torsions:
REMARK  status: ('A' for Active; 'I' for Inactive)
REMARK    1  A    between atoms: C_1  and  C_2
REMARK    2  A    between atoms: C_2  and  C_3
REMARK    3  A    between atoms: C_3  and  C_4
REMARK    4  A    between atoms: C_4  and  C_5
REMARK    5  A    between atoms: C_5  and  C_6
REMARK    6  A    between atoms: C_6  and  C_7
REMARK    7  A    between atoms: C_7  and  C_8
REMARK    8  A    between atoms: C_8  and  C_9
REMARK    9  A    between atoms: C_9  and  C_10
REMARK   10  A    between atoms: C_10  and  C_11
REMARK   11  A    between atoms: C_11  and  C_12
REMARK   12  A    between atoms: C_12  and  N_13
REMARK   13  A    between atoms: C_14  and  C_16
REMARK   14  A    between atoms: C_16  and  N_17
REMARK   15  A    between atoms: N_17  and  N_22
REMARK   16  A    between atoms: C_18  and  C_20
REMARK   17  A    between atoms: C_20  and  N_21
REMARK   18  A    between atoms: N_22  and  C_23
REMARK   19  A    between atoms: C_24  and  C_25
REMARK                            x       y       z     vdW  Elec       q    Type
REMARK                         _______ _______ _______ _____ _____    ______ ____
ROOT
ATOM      1  N   UNL     1       0.607  10.127  18.056  0.00  0.00    +0.000 N 
ATOM      2  C   UNL     1       0.011  10.343  19.276  0.00  0.00    +0.000 C 
ATOM      3  O   UNL     1      -0.096   9.445  20.115  0.00  0.00    +0.000 OA
ATOM      4  H   UNL     1       0.811  10.920  17.439  0.00  0.00    +0.000 HD
ENDROOT
BRANCH   2   5
ATOM      5  C   UNL     1      -0.672  11.702  19.517  0.00  0.00    +0.000 C 
BRANCH   5   6
ATOM      6  N   UNL     1      -0.451  12.483  20.749  0.00  0.00    +0.000 N 
ATOM      7  C   UNL     1       0.358  13.621  20.649  0.00  0.00    +0.000 C 
ATOM      8  O   UNL     1       0.965  13.887  19.591  0.00  0.00    +0.000 OA
BRANCH   6   9
ATOM      9  N   UNL     1      -1.682  12.568  21.582  0.00  0.00    +0.000 N 
ATOM     10  C   UNL     1      -2.837  13.254  21.000  0.00  0.00    +0.000 C 
ATOM     11  C   UNL     1      -1.977  11.765  22.684  0.00  0.00    +0.000 C 
ATOM     12  C   UNL     1      -0.972  10.750  23.156  0.00  0.00    +0.000 C 
ATOM     13  O   UNL     1      -3.046  11.867  23.283  0.00  0.00    +0.000 OA
ENDBRANCH   6   9
BRANCH   7  14
ATOM     14  C   UNL     1       0.659  14.410  21.920  0.00  0.00    +0.000 C 
BRANCH  14  15
ATOM     15  N   UNL     1       2.099  14.559  22.185  0.00  0.00    +0.000 NA
ATOM     16  H   UNL     1       2.384  13.848  22.862  0.00  0.00    +0.000 HD
ATOM     17  H   UNL     1       2.256  15.471  22.640  0.00  0.00    +0.000 HD
ENDBRANCH  14  15
ENDBRANCH   7  14
ENDBRANCH   5   6
ENDBRANCH   2   5
BRANCH   1  18
ATOM     18  C   UNL     1       1.085   8.797  17.720  0.00  0.00    +0.000 C 
BRANCH  18  19
ATOM     19  C   UNL     1       2.512   8.579  18.194  0.00  0.00    +0.000 C 
BRANCH  19  20
ATOM     20  C   UNL     1       2.686   7.144  18.685  0.00  0.00    +0.000 C 
BRANCH  20  21
ATOM     21  C   UNL     1       3.673   6.408  17.801  0.00  0.00    +0.000 C 
BRANCH  21  22
ATOM     22  C   UNL     1       4.718   5.671  18.625  0.00  0.00    +0.000 C 
BRANCH  22  23
ATOM     23  C   UNL     1       4.645   4.195  18.291  0.00  0.00    +0.000 C 
BRANCH  23  24
ATOM     24  C   UNL     1       3.627   3.920  17.195  0.00  0.00    +0.000 C 
BRANCH  24  25
ATOM     25  C   UNL     1       2.594   2.924  17.698  0.00  0.00    +0.000 C 
BRANCH  25  26
ATOM     26  C   UNL     1       1.322   3.639  18.125  0.00  0.00    +0.000 C 
BRANCH  26  27
ATOM     27  C   UNL     1       0.797   3.061  19.434  0.00  0.00    +0.000 C 
BRANCH  27  29
ATOM     28  C   UNL     1       2.229   3.228  21.484  0.00  0.00    +0.000 C 
ATOM     29  C   UNL     1       1.206   3.935  20.612  0.00  0.00    +0.000 C 
ENDBRANCH  27  29
ENDBRANCH  26  27
ENDBRANCH  25  26
ENDBRANCH  24  25
ENDBRANCH  23  24
ENDBRANCH  22  23
ENDBRANCH  21  22
ENDBRANCH  20  21
ENDBRANCH  19  20
ENDBRANCH  18  19
ENDBRANCH   1  18
TORSDOF 16
ENDMDL
MODEL 7
REMARK VINA RESULT:      -5.4      6.354      9.637
REMARK  Name = 
REMARK  19 active torsions:
REMARK  status: ('A' for Active; 'I' for Inactive)
REMARK    1  A    between atoms: C_1  and  C_2
REMARK    2  A    between atoms: C_2  and  C_3
REMARK    3  A    between atoms: C_3  and  C_4
REMARK    4  A    between atoms: C_4  and  C_5
REMARK    5  A    between atoms: C_5  and  C_6
REMARK    6  A    between atoms: C_6  and  C_7
REMARK    7  A    between atoms: C_7  and  C_8
REMARK    8  A    between atoms: C_8  and  C_9
REMARK    9  A    between atoms: C_9  and  C_10
REMARK   10  A    between atoms: C_10  and  C_11
REMARK   11  A    between atoms: C_11  and  C_12
REMARK   12  A    between atoms: C_12  and  N_13
REMARK   13  A    between atoms: C_14  and  C_16
REMARK   14  A    between atoms: C_16  and  N_17
REMARK   15  A    between atoms: N_17  and  N_22
REMARK   16  A    between atoms: C_18  and  C_20
REMARK   17  A    between atoms: C_20  and  N_21
REMARK   18  A    between atoms: N_22  and  C_23
REMARK   19  A    between atoms: C_24  and  C_25
REMARK                            x       y       z     vdW  Elec       q    Type
REMARK                         _______ _______ _______ _____ _____    ______ ____
ROOT
ATOM      1  N   UNL     1       5.769   6.803  17.838  0.00  0.00    +0.000 N 
ATOM      2  C   UNL     1       5.348   5.499  17.954  0.00  0.00    +0.000 C 
ATOM      3  O   UNL     1       6.033   4.557  17.547  0.00  0.00    +0.000 OA
ATOM      4  H   UNL     1       5.251   7.551  18.311  0.00  0.00    +0.000 HD
ENDROOT
BRANCH   2   5
ATOM      5  C   UNL     1       3.917   5.242  18.463  0.00  0.00    +0.000 C 
BRANCH   5   6
ATOM      6  N   UNL     1       3.639   4.352  19.606  0.00  0.00    +0.000 N 
ATOM      7  C   UNL     1       2.482   4.611  20.351  0.00  0.00    +0.000 C 
ATOM      8  O   UNL     1       1.790   5.625  20.131  0.00  0.00    +0.000 OA
BRANCH   6   9
ATOM      9  N   UNL     1       3.976   2.934  19.302  0.00  0.00    +0.000 N 
ATOM     10  C   UNL     1       4.734   2.196  20.314  0.00  0.00    +0.000 C 
ATOM     11  C   UNL     1       3.349   2.135  18.347  0.00  0.00    +0.000 C 
ATOM     12  C   UNL     1       2.274   2.721  17.473  0.00  0.00    +0.000 C 
ATOM     13  O   UNL     1       3.656   0.953  18.200  0.00  0.00    +0.000 OA
ENDBRANCH   6   9
BRANCH   7  14
ATOM     14  C   UNL     1       2.205   3.749  21.579  0.00  0.00    +0.000 C 
BRANCH  14  15
ATOM     15  N   UNL     1       1.054   2.846  21.408  0.00  0.00    +0.000 NA
ATOM     16  H   UNL     1       0.663   2.985  20.474  0.00  0.00    +0.000 HD
ATOM     17  H   UNL     1       0.318   3.123  22.074  0.00  0.00    +0.000 HD
ENDBRANCH  14  15
ENDBRANCH   7  14
ENDBRANCH   5   6
ENDBRANCH   2   5
BRANCH   1  18
ATOM     18  C   UNL     1       7.031   7.091  17.180  0.00  0.00    +0.000 C 
BRANCH  18  19
ATOM     19  C   UNL     1       8.046   7.677  18.147  0.00  0.00    +0.000 C 
BRANCH  19  20
ATOM     20  C   UNL     1       8.230   9.167  17.872  0.00  0.00    +0.000 C 
BRANCH  20  21
ATOM     21  C   UNL     1       9.083   9.794  18.957  0.00  0.00    +0.000 C 
BRANCH  21  22
ATOM     22  C   UNL     1       9.352  11.264  18.676  0.00  0.00    +0.000 C 
BRANCH  22  23
ATOM     23  C   UNL     1      10.843  11.513  18.784  0.00  0.00    +0.000 C 
BRANCH  23  24
ATOM     24  C   UNL     1      11.244  11.892  20.201  0.00  0.00    +0.000 C 
BRANCH  24  25
ATOM     25  C   UNL     1      10.566  13.197  20.590  0.00  0.00    +0.000 C 
BRANCH  25  26
ATOM     26  C   UNL     1      11.278  14.382  19.958  0.00  0.00    +0.000 C 
BRANCH  26  27
ATOM     27  C   UNL     1      10.283  15.277  19.229  0.00  0.00    +0.000 C 
BRANCH  27  29
ATOM     28  C   UNL     1      11.626  14.809  17.166  0.00  0.00    +0.000 C 
ATOM     29  C   UNL     1      10.228  14.928  17.748  0.00  0.00    +0.000 C 
ENDBRANCH  27  29
ENDBRANCH  26  27
ENDBRANCH  25  26
ENDBRANCH  24  25
ENDBRANCH  23  24
ENDBRANCH  22  23
ENDBRANCH  21  22
ENDBRANCH  20  21
ENDBRANCH  19  20
ENDBRANCH  18  19
ENDBRANCH   1  18
TORSDOF 16
ENDMDL
MODEL 8
REMARK VINA RESULT:      -5.3      3.007      8.650
REMARK  Name = 
REMARK  19 active torsions:
REMARK  status: ('A' for Active; 'I' for Inactive)
REMARK    1  A    between atoms: C_1  and  C_2
REMARK    2  A    between atoms: C_2  and  C_3
REMARK    3  A    between atoms: C_3  and  C_4
REMARK    4  A    between atoms: C_4  and  C_5
REMARK    5  A    between atoms: C_5  and  C_6
REMARK    6  A    between atoms: C_6  and  C_7
REMARK    7  A    between atoms: C_7  and  C_8
REMARK    8  A    between atoms: C_8  and  C_9
REMARK    9  A    between atoms: C_9  and  C_10
REMARK   10  A    between atoms: C_10  and  C_11
REMARK   11  A    between atoms: C_11  and  C_12
REMARK   12  A    between atoms: C_12  and  N_13
REMARK   13  A    between atoms: C_14  and  C_16
REMARK   14  A    between atoms: C_16  and  N_17
REMARK   15  A    between atoms: N_17  and  N_22
REMARK   16  A    between atoms: C_18  and  C_20
REMARK   17  A    between atoms: C_20  and  N_21
REMARK   18  A    between atoms: N_22  and  C_23
REMARK   19  A    between atoms: C_24  and  C_25
REMARK                            x       y       z     vdW  Elec       q    Type
REMARK                         _______ _______ _______ _____ _____    ______ ____
ROOT
ATOM      1  N   UNL     1       2.547   6.967  19.641  0.00  0.00    +0.000 N 
ATOM      2  C   UNL     1       3.047   7.134  18.371  0.00  0.00    +0.000 C 
ATOM      3  O   UNL     1       2.942   8.206  17.768  0.00  0.00    +0.000 OA
ATOM      4  H   UNL     1       2.773   6.118  20.171  0.00  0.00    +0.000 HD
ENDROOT
BRANCH   2   5
ATOM      5  C   UNL     1       3.604   5.897  17.643  0.00  0.00    +0.000 C 
BRANCH   5   6
ATOM      6  N   UNL     1       4.339   4.833  18.353  0.00  0.00    +0.000 N 
ATOM      7  C   UNL     1       3.579   3.833  18.971  0.00  0.00    +0.000 C 
ATOM      8  O   UNL     1       2.335   3.912  19.023  0.00  0.00    +0.000 OA
BRANCH   6   9
ATOM      9  N   UNL     1       5.574   4.429  17.626  0.00  0.00    +0.000 N 
ATOM     10  C   UNL     1       5.411   3.925  16.262  0.00  0.00    +0.000 C 
ATOM     11  C   UNL     1       6.874   4.813  17.952  0.00  0.00    +0.000 C 
ATOM     12  C   UNL     1       7.117   5.658  19.173  0.00  0.00    +0.000 C 
ATOM     13  O   UNL     1       7.834   4.476  17.262  0.00  0.00    +0.000 OA
ENDBRANCH   6   9
BRANCH   7  14
ATOM     14  C   UNL     1       4.309   2.758  19.770  0.00  0.00    +0.000 C 
BRANCH  14  15
ATOM     15  N   UNL     1       4.402   1.470  19.063  0.00  0.00    +0.000 NA
ATOM     16  H   UNL     1       5.004   0.843  19.600  0.00  0.00    +0.000 HD
ATOM     17  H   UNL     1       4.877   1.624  18.161  0.00  0.00    +0.000 HD
ENDBRANCH  14  15
ENDBRANCH   7  14
ENDBRANCH   5   6
ENDBRANCH   2   5
BRANCH   1  18
ATOM     18  C   UNL     1       1.837   8.060  20.280  0.00  0.00    +0.000 C 
BRANCH  18  19
ATOM     19  C   UNL     1       0.935   7.565  21.398  0.00  0.00    +0.000 C 
BRANCH  19  20
ATOM     20  C   UNL     1      -0.232   8.529  21.593  0.00  0.00    +0.000 C 
BRANCH  20  21
ATOM     21  C   UNL     1       0.240   9.959  21.423  0.00  0.00    +0.000 C 
BRANCH  21  22
ATOM     22  C   UNL     1      -0.334  10.868  22.499  0.00  0.00    +0.000 C 
BRANCH  22  23
ATOM     23  C   UNL     1      -1.476  11.664  21.900  0.00  0.00    +0.000 C 
BRANCH  23  24
ATOM     24  C   UNL     1      -1.004  13.011  21.376  0.00  0.00    +0.000 C 
BRANCH  24  25
ATOM     25  C   UNL     1      -1.691  13.311  20.053  0.00  0.00    +0.000 C 
BRANCH  25  26
ATOM     26  C   UNL     1      -1.213  12.357  18.971  0.00  0.00    +0.000 C 
BRANCH  26  27
ATOM     27  C   UNL     1      -2.372  11.516  18.448  0.00  0.00    +0.000 C 
BRANCH  27  29
ATOM     28  C   UNL     1      -0.421  10.007  18.005  0.00  0.00    +0.000 C 
ATOM     29  C   UNL     1      -1.858  10.335  17.637  0.00  0.00    +0.000 C 
ENDBRANCH  27  29
ENDBRANCH  26  27
ENDBRANCH  25  26
ENDBRANCH  24  25
ENDBRANCH  23  24
ENDBRANCH  22  23
ENDBRANCH  21  22
ENDBRANCH  20  21
ENDBRANCH  19  20
ENDBRANCH  18  19
ENDBRANCH   1  18
TORSDOF 16
ENDMDL
MODEL 9
REMARK VINA RESULT:      -5.3      1.323      1.636
REMARK  Name = 
REMARK  19 active torsions:
REMARK  status: ('A' for Active; 'I' for Inactive)
REMARK    1  A    between atoms: C_1  and  C_2
REMARK    2  A    between atoms: C_2  and  C_3
REMARK    3  A    between atoms: C_3  and  C_4
REMARK    4  A    between atoms: C_4  and  C_5
REMARK    5  A    between atoms: C_5  and  C_6
REMARK    6  A    between atoms: C_6  and  C_7
REMARK    7  A    between atoms: C_7  and  C_8
REMARK    8  A    between atoms: C_8  and  C_9
REMARK    9  A    between atoms: C_9  and  C_10
REMARK   10  A    between atoms: C_10  and  C_11
REMARK   11  A    between atoms: C_11  and  C_12
REMARK   12  A    between atoms: C_12  and  N_13
REMARK   13  A    between atoms: C_14  and  C_16
REMARK   14  A    between atoms: C_16  and  N_17
REMARK   15  A    between atoms: N_17  and  N_22
REMARK   16  A    between atoms: C_18  and  C_20
REMARK   17  A    between atoms: C_20  and  N_21
REMARK   18  A    between atoms: N_22  and  C_23
REMARK   19  A    between atoms: C_24  and  C_25
REMARK                            x       y       z     vdW  Elec       q    Type
REMARK                         _______ _______ _______ _____ _____    ______ ____
ROOT
ATOM      1  N   UNL     1       1.742   7.319  19.517  0.00  0.00    +0.000 N 
ATOM      2  C   UNL     1       2.100   8.414  18.767  0.00  0.00    +0.000 C 
ATOM      3  O   UNL     1       2.971   8.348  17.894  0.00  0.00    +0.000 OA
ATOM      4  H   UNL     1       0.922   7.366  20.130  0.00  0.00    +0.000 HD
ENDROOT
BRANCH   2   5
ATOM      5  C   UNL     1       1.500   9.781  19.148  0.00  0.00    +0.000 C 
BRANCH   5   6
ATOM      6  N   UNL     1       0.340   9.904  20.051  0.00  0.00    +0.000 N 
ATOM      7  C   UNL     1       0.536   9.567  21.395  0.00  0.00    +0.000 C 
ATOM      8  O   UNL     1       1.612   9.066  21.781  0.00  0.00    +0.000 OA
BRANCH   6   9
ATOM      9  N   UNL     1      -0.480  11.107  19.741  0.00  0.00    +0.000 N 
ATOM     10  C   UNL     1       0.006  12.395  20.239  0.00  0.00    +0.000 C 
ATOM     11  C   UNL     1      -1.444  11.199  18.737  0.00  0.00    +0.000 C 
ATOM     12  C   UNL     1      -1.771   9.989  17.905  0.00  0.00    +0.000 C 
ATOM     13  O   UNL     1      -2.038  12.252  18.514  0.00  0.00    +0.000 OA
ENDBRANCH   6   9
BRANCH   7  14
ATOM     14  C   UNL     1      -0.662   9.621  22.337  0.00  0.00    +0.000 C 
BRANCH  14  15
ATOM     15  N   UNL     1      -0.528  10.639  23.393  0.00  0.00    +0.000 NA
ATOM     16  H   UNL     1      -1.239  10.467  24.107  0.00  0.00    +0.000 HD
ATOM     17  H   UNL     1      -0.742  11.562  22.987  0.00  0.00    +0.000 HD
ENDBRANCH  14  15
ENDBRANCH   7  14
ENDBRANCH   5   6
ENDBRANCH   2   5
BRANCH   1  18
ATOM     18  C   UNL     1       2.433   6.058  19.315  0.00  0.00    +0.000 C 
BRANCH  18  19
ATOM     19  C   UNL     1       2.394   5.192  20.563  0.00  0.00    +0.000 C 
BRANCH  19  20
ATOM     20  C   UNL     1       1.114   4.362  20.584  0.00  0.00    +0.000 C 
BRANCH  20  21
ATOM     21  C   UNL     1       1.431   2.909  20.291  0.00  0.00    +0.000 C 
BRANCH  21  22
ATOM     22  C   UNL     1       1.229   2.580  18.820  0.00  0.00    +0.000 C 
BRANCH  22  23
ATOM     23  C   UNL     1       2.585   2.343  18.187  0.00  0.00    +0.000 C 
BRANCH  23  24
ATOM     24  C   UNL     1       2.917   3.415  17.160  0.00  0.00    +0.000 C 
BRANCH  24  25
ATOM     25  C   UNL     1       4.412   3.697  17.185  0.00  0.00    +0.000 C 
BRANCH  25  26
ATOM     26  C   UNL     1       4.695   5.129  16.760  0.00  0.00    +0.000 C 
BRANCH  26  27
ATOM     27  C   UNL     1       5.776   5.165  15.686  0.00  0.00    +0.000 C 
BRANCH  27  29
ATOM     28  C   UNL     1       5.767   3.888  13.531  0.00  0.00    +0.000 C 
ATOM     29  C   UNL     1       5.937   3.797  15.037  0.00  0.00    +0.000 C 
ENDBRANCH  27  29
ENDBRANCH  26  27
ENDBRANCH  25  26
ENDBRANCH  24  25
ENDBRANCH  23  24
ENDBRANCH  22  23
ENDBRANCH  21  22
ENDBRANCH  20  21
ENDBRANCH  19  20
ENDBRANCH  18  19
ENDBRANCH   1  18
TORSDOF 16
ENDMDL
