MODEL 1
REMARK VINA RESULT:      -8.1      0.000      0.000
REMARK  Name = 
REMARK  8 active torsions:
REMARK  status: ('A' for Active; 'I' for Inactive)
REMARK    1  A    between atoms: C_1  and  C_2
REMARK    2  A    between atoms: C_2  and  C_3
REMARK    3  A    between atoms: C_2  and  O_4
REMARK    4  A    between atoms: O_4  and  C_5
REMARK    5  A    between atoms: C_11  and  C_13
REMARK    6  A    between atoms: C_18  and  O_19
REMARK    7  A    between atoms: O_19  and  C_20
REMARK    8  A    between atoms: C_23  and  C_24
REMARK                            x       y       z     vdW  Elec       q    Type
REMARK                         _______ _______ _______ _____ _____    ______ ____
ROOT
ATOM      1  C   UNL     1      -0.672  10.975  20.207  0.00  0.00    +0.000 A 
ATOM      2  C   UNL     1      -0.537  10.333  21.435  0.00  0.00    +0.000 A 
ATOM      3  C   UNL     1       0.320   9.241  21.516  0.00  0.00    +0.000 A 
ATOM      4  C   UNL     1       1.017   8.814  20.376  0.00  0.00    +0.000 A 
ATOM      5  C   UNL     1       1.864   7.689  20.382  0.00  0.00    +0.000 A 
ATOM      6  C   UNL     1       2.514   7.291  19.215  0.00  0.00    +0.000 A 
ATOM      7  C   UNL     1       2.286   7.992  18.031  0.00  0.00    +0.000 A 
ATOM      8  C   UNL     1       1.473   9.125  18.036  0.00  0.00    +0.000 A 
ATOM      9  C   UNL     1       0.832   9.549  19.184  0.00  0.00    +0.000 A 
ATOM     10  N   UNL     1       0.034  10.620  19.106  0.00  0.00    +0.000 NA
ENDROOT
BRANCH   1  17
ATOM     11  C   UNL     1      -1.616  16.486  23.567  0.00  0.00    +0.000 C 
ATOM     12  O   UNL     1      -2.548  17.283  23.593  0.00  0.00    +0.000 OA
ATOM     13  N   UNL     1      -1.665  15.287  22.889  0.00  0.00    +0.000 N 
ATOM     14  C   UNL     1      -2.849  14.938  22.100  0.00  0.00    +0.000 C 
ATOM     15  C   UNL     1      -2.453  14.355  20.735  0.00  0.00    +0.000 C 
ATOM     16  N   UNL     1      -1.476  13.268  20.881  0.00  0.00    +0.000 N 
ATOM     17  C   UNL     1      -1.624  12.126  20.085  0.00  0.00    +0.000 C 
ATOM     18  O   UNL     1      -2.529  12.025  19.254  0.00  0.00    +0.000 OA
ATOM     19  C   UNL     1      -0.284  13.644  21.663  0.00  0.00    +0.000 C 
ATOM     20  C   UNL     1      -0.676  14.218  23.032  0.00  0.00    +0.000 C 
BRANCH  11  21
ATOM     21  O   UNL     1      -0.417  16.707  24.178  0.00  0.00    +0.000 OA
BRANCH  21  23
ATOM     22  C   UNL     1      -0.904  15.901  26.404  0.00  0.00    +0.000 C 
ATOM     23  C   UNL     1      -0.491  17.103  25.561  0.00  0.00    +0.000 C 
ATOM     24  C   UNL     1       0.880  17.605  26.004  0.00  0.00    +0.000 C 
ENDBRANCH  21  23
ENDBRANCH  11  21
ENDBRANCH   1  17
BRANCH   6  25
ATOM     25  O   UNL     1       3.296   6.160  19.285  0.00  0.00    +0.000 OA
BRANCH  25  26
ATOM     26  C   UNL     1       3.921   5.725  18.122  0.00  0.00    +0.000 A 
ATOM     27  C   UNL     1       4.941   6.521  17.622  0.00  0.00    +0.000 A 
ATOM     28  C   UNL     1       5.586   6.111  16.455  0.00  0.00    +0.000 A 
ATOM     29  C   UNL     1       5.191   4.926  15.824  0.00  0.00    +0.000 A 
ATOM     30  C   UNL     1       4.157   4.206  16.401  0.00  0.00    +0.000 A 
ATOM     31  N   UNL     1       3.506   4.589  17.520  0.00  0.00    +0.000 NA
BRANCH  29  32
ATOM     32  C   UNL     1       5.819   4.416  14.565  0.00  0.00    +0.000 C 
ATOM     33  F   UNL     1       4.919   4.127  13.586  0.00  0.00    +0.000 F 
ATOM     34  F   UNL     1       6.692   5.307  14.020  0.00  0.00    +0.000 F 
ATOM     35  F   UNL     1       6.530   3.273  14.768  0.00  0.00    +0.000 F 
ENDBRANCH  29  32
ENDBRANCH  25  26
ENDBRANCH   6  25
TORSDOF 6
ENDMDL
MODEL 2
REMARK VINA RESULT:      -8.1      2.530      3.345
REMARK  Name = 
REMARK  8 active torsions:
REMARK  status: ('A' for Active; 'I' for Inactive)
REMARK    1  A    between atoms: C_1  and  C_2
REMARK    2  A    between atoms: C_2  and  C_3
REMARK    3  A    between atoms: C_2  and  O_4
REMARK    4  A    between atoms: O_4  and  C_5
REMARK    5  A    between atoms: C_11  and  C_13
REMARK    6  A    between atoms: C_18  and  O_19
REMARK    7  A    between atoms: O_19  and  C_20
REMARK    8  A    between atoms: C_23  and  C_24
REMARK                            x       y       z     vdW  Elec       q    Type
REMARK                         _______ _______ _______ _____ _____    ______ ____
ROOT
ATOM      1  C   UNL     1      -0.483  11.080  20.808  0.00  0.00    +0.000 A 
ATOM      2  C   UNL     1      -0.345  10.397  22.013  0.00  0.00    +0.000 A 
ATOM      3  C   UNL     1       0.426   9.240  22.028  0.00  0.00    +0.000 A 
ATOM      4  C   UNL     1       1.036   8.790  20.848  0.00  0.00    +0.000 A 
ATOM      5  C   UNL     1       1.791   7.604  20.789  0.00  0.00    +0.000 A 
ATOM      6  C   UNL     1       2.355   7.189  19.584  0.00  0.00    +0.000 A 
ATOM      7  C   UNL     1       2.131   7.937  18.428  0.00  0.00    +0.000 A 
ATOM      8  C   UNL     1       1.411   9.128  18.497  0.00  0.00    +0.000 A 
ATOM      9  C   UNL     1       0.857   9.570  19.684  0.00  0.00    +0.000 A 
ATOM     10  N   UNL     1       0.143  10.701  19.668  0.00  0.00    +0.000 NA
ENDROOT
BRANCH   1  17
ATOM     11  C   UNL     1       0.667  17.436  19.902  0.00  0.00    +0.000 C 
ATOM     12  O   UNL     1      -0.019  18.433  20.106  0.00  0.00    +0.000 OA
ATOM     13  N   UNL     1       0.296  16.169  20.298  0.00  0.00    +0.000 N 
ATOM     14  C   UNL     1      -1.001  15.952  20.944  0.00  0.00    +0.000 C 
ATOM     15  C   UNL     1      -1.704  14.712  20.371  0.00  0.00    +0.000 C 
ATOM     16  N   UNL     1      -0.815  13.542  20.380  0.00  0.00    +0.000 N 
ATOM     17  C   UNL     1      -1.347  12.304  20.758  0.00  0.00    +0.000 C 
ATOM     18  O   UNL     1      -2.536  12.169  21.053  0.00  0.00    +0.000 OA
ATOM     19  C   UNL     1       0.477  13.776  19.710  0.00  0.00    +0.000 C 
ATOM     20  C   UNL     1       1.188  15.009  20.287  0.00  0.00    +0.000 C 
BRANCH  11  21
ATOM     21  O   UNL     1       1.857  17.462  19.236  0.00  0.00    +0.000 OA
BRANCH  21  23
ATOM     22  C   UNL     1       1.320  18.238  17.011  0.00  0.00    +0.000 C 
ATOM     23  C   UNL     1       1.800  17.061  17.854  0.00  0.00    +0.000 C 
ATOM     24  C   UNL     1       3.195  16.634  17.406  0.00  0.00    +0.000 C 
ENDBRANCH  21  23
ENDBRANCH  11  21
ENDBRANCH   1  17
BRANCH   6  25
ATOM     25  O   UNL     1       3.048   5.999  19.590  0.00  0.00    +0.000 OA
BRANCH  25  26
ATOM     26  C   UNL     1       3.706   5.619  18.426  0.00  0.00    +0.000 A 
ATOM     27  C   UNL     1       3.381   4.378  17.897  0.00  0.00    +0.000 A 
ATOM     28  C   UNL     1       4.026   3.969  16.730  0.00  0.00    +0.000 A 
ATOM     29  C   UNL     1       4.975   4.806  16.132  0.00  0.00    +0.000 A 
ATOM     30  C   UNL     1       5.233   6.023  16.743  0.00  0.00    +0.000 A 
ATOM     31  N   UNL     1       4.634   6.436  17.880  0.00  0.00    +0.000 NA
BRANCH  29  32
ATOM     32  C   UNL     1       5.721   4.444  14.886  0.00  0.00    +0.000 C 
ATOM     33  F   UNL     1       6.350   3.239  14.960  0.00  0.00    +0.000 F 
ATOM     34  F   UNL     1       4.913   4.378  13.794  0.00  0.00    +0.000 F 
ATOM     35  F   UNL     1       6.689   5.352  14.581  0.00  0.00    +0.000 F 
ENDBRANCH  29  32
ENDBRANCH  25  26
ENDBRANCH   6  25
TORSDOF 6
ENDMDL
MODEL 3
REMARK VINA RESULT:      -8.1      0.862      1.259
REMARK  Name = 
REMARK  8 active torsions:
REMARK  status: ('A' for Active; 'I' for Inactive)
REMARK    1  A    between atoms: C_1  and  C_2
REMARK    2  A    between atoms: C_2  and  C_3
REMARK    3  A    between atoms: C_2  and  O_4
REMARK    4  A    between atoms: O_4  and  C_5
REMARK    5  A    between atoms: C_11  and  C_13
REMARK    6  A    between atoms: C_18  and  O_19
REMARK    7  A    between atoms: O_19  and  C_20
REMARK    8  A    between atoms: C_23  and  C_24
REMARK                            x       y       z     vdW  Elec       q    Type
REMARK                         _______ _______ _______ _____ _____    ______ ____
ROOT
ATOM      1  C   UNL     1      -0.656  10.978  20.217  0.00  0.00    +0.000 A 
ATOM      2  C   UNL     1      -0.530  10.328  21.442  0.00  0.00    +0.000 A 
ATOM      3  C   UNL     1       0.333   9.241  21.523  0.00  0.00    +0.000 A 
ATOM      4  C   UNL     1       1.044   8.826  20.387  0.00  0.00    +0.000 A 
ATOM      5  C   UNL     1       1.897   7.706  20.393  0.00  0.00    +0.000 A 
ATOM      6  C   UNL     1       2.560   7.321  19.230  0.00  0.00    +0.000 A 
ATOM      7  C   UNL     1       2.339   8.029  18.049  0.00  0.00    +0.000 A 
ATOM      8  C   UNL     1       1.520   9.157  18.053  0.00  0.00    +0.000 A 
ATOM      9  C   UNL     1       0.866   9.569  19.199  0.00  0.00    +0.000 A 
ATOM     10  N   UNL     1       0.062  10.635  19.121  0.00  0.00    +0.000 NA
ENDROOT
BRANCH   1  17
ATOM     11  C   UNL     1      -2.712  15.654  24.274  0.00  0.00    +0.000 C 
ATOM     12  O   UNL     1      -3.667  16.423  24.225  0.00  0.00    +0.000 OA
ATOM     13  N   UNL     1      -2.524  14.624  23.377  0.00  0.00    +0.000 N 
ATOM     14  C   UNL     1      -3.456  14.443  22.261  0.00  0.00    +0.000 C 
ATOM     15  C   UNL     1      -2.704  14.163  20.952  0.00  0.00    +0.000 C 
ATOM     16  N   UNL     1      -1.733  13.074  21.116  0.00  0.00    +0.000 N 
ATOM     17  C   UNL     1      -1.615  12.124  20.095  0.00  0.00    +0.000 C 
ATOM     18  O   UNL     1      -2.281  12.196  19.060  0.00  0.00    +0.000 OA
ATOM     19  C   UNL     1      -0.793  13.283  22.233  0.00  0.00    +0.000 C 
ATOM     20  C   UNL     1      -1.541  13.554  23.546  0.00  0.00    +0.000 C 
BRANCH  11  21
ATOM     21  O   UNL     1      -1.714  15.748  25.199  0.00  0.00    +0.000 OA
BRANCH  21  23
ATOM     22  C   UNL     1      -0.585  17.275  26.693  0.00  0.00    +0.000 C 
ATOM     23  C   UNL     1      -1.048  17.023  25.262  0.00  0.00    +0.000 C 
ATOM     24  C   UNL     1       0.154  16.999  24.322  0.00  0.00    +0.000 C 
ENDBRANCH  21  23
ENDBRANCH  11  21
ENDBRANCH   1  17
BRANCH   6  25
ATOM     25  O   UNL     1       3.349   6.194  19.299  0.00  0.00    +0.000 OA
BRANCH  25  26
ATOM     26  C   UNL     1       3.964   5.754  18.132  0.00  0.00    +0.000 A 
ATOM     27  C   UNL     1       3.654   4.473  17.703  0.00  0.00    +0.000 A 
ATOM     28  C   UNL     1       4.258   4.003  16.536  0.00  0.00    +0.000 A 
ATOM     29  C   UNL     1       5.153   4.824  15.841  0.00  0.00    +0.000 A 
ATOM     30  C   UNL     1       5.401   6.086  16.356  0.00  0.00    +0.000 A 
ATOM     31  N   UNL     1       4.841   6.558  17.491  0.00  0.00    +0.000 NA
BRANCH  29  32
ATOM     32  C   UNL     1       5.854   4.399  14.588  0.00  0.00    +0.000 C 
ATOM     33  F   UNL     1       6.509   3.212  14.707  0.00  0.00    +0.000 F 
ATOM     34  F   UNL     1       5.001   4.253  13.537  0.00  0.00    +0.000 F 
ATOM     35  F   UNL     1       6.790   5.304  14.186  0.00  0.00    +0.000 F 
ENDBRANCH  29  32
ENDBRANCH  25  26
ENDBRANCH   6  25
TORSDOF 6
ENDMDL
MODEL 4
REMARK VINA RESULT:      -8.1      3.804      4.511
REMARK  Name = 
REMARK  8 active torsions:
REMARK  status: ('A' for Active; 'I' for Inactive)
REMARK    1  A    between atoms: C_1  and  C_2
REMARK    2  A    between atoms: C_2  and  C_3
REMARK    3  A    between atoms: C_2  and  O_4
REMARK    4  A    between atoms: O_4  and  C_5
REMARK    5  A    between atoms: C_11  and  C_13
REMARK    6  A    between atoms: C_18  and  O_19
REMARK    7  A    between atoms: O_19  and  C_20
REMARK    8  A    between atoms: C_23  and  C_24
REMARK                            x       y       z     vdW  Elec       q    Type
REMARK                         _______ _______ _______ _____ _____    ______ ____
ROOT
ATOM      1  C   UNL     1       0.968  11.418  19.246  0.00  0.00    +0.000 A 
ATOM      2  C   UNL     1       1.537  11.052  18.029  0.00  0.00    +0.000 A 
ATOM      3  C   UNL     1       1.939   9.731  17.863  0.00  0.00    +0.000 A 
ATOM      4  C   UNL     1       1.769   8.811  18.908  0.00  0.00    +0.000 A 
ATOM      5  C   UNL     1       2.196   7.473  18.818  0.00  0.00    +0.000 A 
ATOM      6  C   UNL     1       2.026   6.606  19.896  0.00  0.00    +0.000 A 
ATOM      7  C   UNL     1       1.468   7.087  21.080  0.00  0.00    +0.000 A 
ATOM      8  C   UNL     1       1.016   8.403  21.155  0.00  0.00    +0.000 A 
ATOM      9  C   UNL     1       1.157   9.277  20.093  0.00  0.00    +0.000 A 
ATOM     10  N   UNL     1       0.739  10.538  20.249  0.00  0.00    +0.000 NA
ENDROOT
BRANCH   1  17
ATOM     11  C   UNL     1       4.239  17.040  19.742  0.00  0.00    +0.000 C 
ATOM     12  O   UNL     1       3.912  18.147  20.157  0.00  0.00    +0.000 OA
ATOM     13  N   UNL     1       3.438  15.924  19.853  0.00  0.00    +0.000 N 
ATOM     14  C   UNL     1       2.099  16.036  20.437  0.00  0.00    +0.000 C 
ATOM     15  C   UNL     1       1.067  15.257  19.609  0.00  0.00    +0.000 C 
ATOM     16  N   UNL     1       1.510  13.878  19.364  0.00  0.00    +0.000 N 
ATOM     17  C   UNL     1       0.569  12.846  19.464  0.00  0.00    +0.000 C 
ATOM     18  O   UNL     1      -0.615  13.069  19.723  0.00  0.00    +0.000 OA
ATOM     19  C   UNL     1       2.852  13.787  18.759  0.00  0.00    +0.000 C 
ATOM     20  C   UNL     1       3.889  14.557  19.589  0.00  0.00    +0.000 C 
BRANCH  11  21
ATOM     21  O   UNL     1       5.415  16.793  19.096  0.00  0.00    +0.000 OA
BRANCH  21  23
ATOM     22  C   UNL     1       6.993  16.252  20.845  0.00  0.00    +0.000 C 
ATOM     23  C   UNL     1       6.600  17.260  19.770  0.00  0.00    +0.000 C 
ATOM     24  C   UNL     1       7.725  17.399  18.749  0.00  0.00    +0.000 C 
ENDBRANCH  21  23
ENDBRANCH  11  21
ENDBRANCH   1  17
BRANCH   6  25
ATOM     25  O   UNL     1       2.502   5.322  19.752  0.00  0.00    +0.000 OA
BRANCH  25  26
ATOM     26  C   UNL     1       3.595   5.120  18.916  0.00  0.00    +0.000 A 
ATOM     27  C   UNL     1       3.335   4.599  17.658  0.00  0.00    +0.000 A 
ATOM     28  C   UNL     1       4.412   4.383  16.798  0.00  0.00    +0.000 A 
ATOM     29  C   UNL     1       5.710   4.689  17.222  0.00  0.00    +0.000 A 
ATOM     30  C   UNL     1       5.864   5.200  18.501  0.00  0.00    +0.000 A 
ATOM     31  N   UNL     1       4.840   5.403  19.358  0.00  0.00    +0.000 NA
BRANCH  29  32
ATOM     32  C   UNL     1       6.924   4.481  16.371  0.00  0.00    +0.000 C 
ATOM     33  F   UNL     1       6.759   3.527  15.413  0.00  0.00    +0.000 F 
ATOM     34  F   UNL     1       7.300   5.611  15.713  0.00  0.00    +0.000 F 
ATOM     35  F   UNL     1       8.007   4.094  17.100  0.00  0.00    +0.000 F 
ENDBRANCH  29  32
ENDBRANCH  25  26
ENDBRANCH   6  25
TORSDOF 6
ENDMDL
MODEL 5
REMARK VINA RESULT:      -8.1      2.525      3.631
REMARK  Name = 
REMARK  8 active torsions:
REMARK  status: ('A' for Active; 'I' for Inactive)
REMARK    1  A    between atoms: C_1  and  C_2
REMARK    2  A    between atoms: C_2  and  C_3
REMARK    3  A    between atoms: C_2  and  O_4
REMARK    4  A    between atoms: O_4  and  C_5
REMARK    5  A    between atoms: C_11  and  C_13
REMARK    6  A    between atoms: C_18  and  O_19
REMARK    7  A    between atoms: O_19  and  C_20
REMARK    8  A    between atoms: C_23  and  C_24
REMARK                            x       y       z     vdW  Elec       q    Type
REMARK                         _______ _______ _______ _____ _____    ______ ____
ROOT
ATOM      1  C   UNL     1       1.008  11.455  19.729  0.00  0.00    +0.000 A 
ATOM      2  C   UNL     1       1.460  11.194  18.439  0.00  0.00    +0.000 A 
ATOM      3  C   UNL     1       1.800   9.885  18.114  0.00  0.00    +0.000 A 
ATOM      4  C   UNL     1       1.686   8.873  19.077  0.00  0.00    +0.000 A 
ATOM      5  C   UNL     1       2.056   7.538  18.823  0.00  0.00    +0.000 A 
ATOM      6  C   UNL     1       1.946   6.575  19.825  0.00  0.00    +0.000 A 
ATOM      7  C   UNL     1       1.505   6.952  21.093  0.00  0.00    +0.000 A 
ATOM      8  C   UNL     1       1.107   8.267  21.331  0.00  0.00    +0.000 A 
ATOM      9  C   UNL     1       1.190   9.236  20.349  0.00  0.00    +0.000 A 
ATOM     10  N   UNL     1       0.831  10.487  20.660  0.00  0.00    +0.000 NA
ENDROOT
BRANCH   1  17
ATOM     11  C   UNL     1      -4.282  14.400  22.158  0.00  0.00    +0.000 C 
ATOM     12  O   UNL     1      -4.601  15.582  22.237  0.00  0.00    +0.000 OA
ATOM     13  N   UNL     1      -3.170  13.961  21.471  0.00  0.00    +0.000 N 
ATOM     14  C   UNL     1      -2.269  14.927  20.839  0.00  0.00    +0.000 C 
ATOM     15  C   UNL     1      -0.799  14.571  21.107  0.00  0.00    +0.000 C 
ATOM     16  N   UNL     1      -0.519  13.168  20.773  0.00  0.00    +0.000 N 
ATOM     17  C   UNL     1       0.679  12.865  20.116  0.00  0.00    +0.000 C 
ATOM     18  O   UNL     1       1.507  13.735  19.840  0.00  0.00    +0.000 OA
ATOM     19  C   UNL     1      -1.426  12.211  21.433  0.00  0.00    +0.000 C 
ATOM     20  C   UNL     1      -2.896  12.558  21.158  0.00  0.00    +0.000 C 
BRANCH  11  21
ATOM     21  O   UNL     1      -4.968  13.390  22.766  0.00  0.00    +0.000 OA
BRANCH  21  23
ATOM     22  C   UNL     1      -6.816  12.394  21.568  0.00  0.00    +0.000 C 
ATOM     23  C   UNL     1      -6.400  13.432  22.605  0.00  0.00    +0.000 C 
ATOM     24  C   UNL     1      -7.056  13.122  23.947  0.00  0.00    +0.000 C 
ENDBRANCH  21  23
ENDBRANCH  11  21
ENDBRANCH   1  17
BRANCH   6  25
ATOM     25  O   UNL     1       2.362   5.299  19.518  0.00  0.00    +0.000 OA
BRANCH  25  26
ATOM     26  C   UNL     1       3.544   5.152  18.801  0.00  0.00    +0.000 A 
ATOM     27  C   UNL     1       3.430   4.753  17.477  0.00  0.00    +0.000 A 
ATOM     28  C   UNL     1       4.599   4.595  16.733  0.00  0.00    +0.000 A 
ATOM     29  C   UNL     1       5.840   4.835  17.333  0.00  0.00    +0.000 A 
ATOM     30  C   UNL     1       5.847   5.223  18.663  0.00  0.00    +0.000 A 
ATOM     31  N   UNL     1       4.731   5.368  19.409  0.00  0.00    +0.000 NA
BRANCH  29  32
ATOM     32  C   UNL     1       7.144   4.680  16.613  0.00  0.00    +0.000 C 
ATOM     33  F   UNL     1       8.142   4.184  17.395  0.00  0.00    +0.000 F 
ATOM     34  F   UNL     1       7.054   3.842  15.544  0.00  0.00    +0.000 F 
ATOM     35  F   UNL     1       7.608   5.863  16.122  0.00  0.00    +0.000 F 
ENDBRANCH  29  32
ENDBRANCH  25  26
ENDBRANCH   6  25
TORSDOF 6
ENDMDL
MODEL 6
REMARK VINA RESULT:      -8.0      3.039      4.443
REMARK  Name = 
REMARK  8 active torsions:
REMARK  status: ('A' for Active; 'I' for Inactive)
REMARK    1  A    between atoms: C_1  and  C_2
REMARK    2  A    between atoms: C_2  and  C_3
REMARK    3  A    between atoms: C_2  and  O_4
REMARK    4  A    between atoms: O_4  and  C_5
REMARK    5  A    between atoms: C_11  and  C_13
REMARK    6  A    between atoms: C_18  and  O_19
REMARK    7  A    between atoms: O_19  and  C_20
REMARK    8  A    between atoms: C_23  and  C_24
REMARK                            x       y       z     vdW  Elec       q    Type
REMARK                         _______ _______ _______ _____ _____    ______ ____
ROOT
ATOM      1  C   UNL     1       1.690   8.522  19.253  0.00  0.00    +0.000 A 
ATOM      2  C   UNL     1       2.218   8.974  18.047  0.00  0.00    +0.000 A 
ATOM      3  C   UNL     1       3.246   8.242  17.464  0.00  0.00    +0.000 A 
ATOM      4  C   UNL     1       3.724   7.084  18.094  0.00  0.00    +0.000 A 
ATOM      5  C   UNL     1       4.792   6.325  17.577  0.00  0.00    +0.000 A 
ATOM      6  C   UNL     1       5.245   5.196  18.256  0.00  0.00    +0.000 A 
ATOM      7  C   UNL     1       4.661   4.847  19.473  0.00  0.00    +0.000 A 
ATOM      8  C   UNL     1       3.582   5.580  19.965  0.00  0.00    +0.000 A 
ATOM      9  C   UNL     1       3.103   6.694  19.301  0.00  0.00    +0.000 A 
ATOM     10  N   UNL     1       2.092   7.375  19.852  0.00  0.00    +0.000 NA
ENDROOT
BRANCH   1  17
ATOM     11  C   UNL     1       0.371  14.891  19.746  0.00  0.00    +0.000 C 
ATOM     12  O   UNL     1      -0.371  15.521  20.493  0.00  0.00    +0.000 OA
ATOM     13  N   UNL     1       0.626  13.544  19.893  0.00  0.00    +0.000 N 
ATOM     14  C   UNL     1      -0.047  12.781  20.947  0.00  0.00    +0.000 C 
ATOM     15  C   UNL     1      -0.557  11.433  20.414  0.00  0.00    +0.000 C 
ATOM     16  N   UNL     1       0.505  10.699  19.714  0.00  0.00    +0.000 N 
ATOM     17  C   UNL     1       0.612   9.319  19.923  0.00  0.00    +0.000 C 
ATOM     18  O   UNL     1      -0.173   8.709  20.652  0.00  0.00    +0.000 OA
ATOM     19  C   UNL     1       1.158  11.479  18.646  0.00  0.00    +0.000 C 
ATOM     20  C   UNL     1       1.678  12.822  19.177  0.00  0.00    +0.000 C 
BRANCH  11  21
ATOM     21  O   UNL     1       1.000  15.440  18.668  0.00  0.00    +0.000 OA
BRANCH  21  23
ATOM     22  C   UNL     1       3.176  16.480  18.509  0.00  0.00    +0.000 C 
ATOM     23  C   UNL     1       1.721  16.660  18.929  0.00  0.00    +0.000 C 
ATOM     24  C   UNL     1       1.083  17.791  18.127  0.00  0.00    +0.000 C 
ENDBRANCH  21  23
ENDBRANCH  11  21
ENDBRANCH   1  17
BRANCH   6  25
ATOM     25  O   UNL     1       6.318   4.524  17.714  0.00  0.00    +0.000 OA
BRANCH  25  26
ATOM     26  C   UNL     1       6.348   4.346  16.335  0.00  0.00    +0.000 A 
ATOM     27  C   UNL     1       5.307   3.622  15.772  0.00  0.00    +0.000 A 
ATOM     28  C   UNL     1       5.311   3.425  14.391  0.00  0.00    +0.000 A 
ATOM     29  C   UNL     1       6.353   3.951  13.619  0.00  0.00    +0.000 A 
ATOM     30  C   UNL     1       7.349   4.654  14.278  0.00  0.00    +0.000 A 
ATOM     31  N   UNL     1       7.376   4.845  15.614  0.00  0.00    +0.000 NA
BRANCH  29  32
ATOM     32  C   UNL     1       6.443   3.780  12.135  0.00  0.00    +0.000 C 
ATOM     33  F   UNL     1       7.023   2.608  11.757  0.00  0.00    +0.000 F 
ATOM     34  F   UNL     1       5.223   3.806  11.532  0.00  0.00    +0.000 F 
ATOM     35  F   UNL     1       7.173   4.766  11.543  0.00  0.00    +0.000 F 
ENDBRANCH  29  32
ENDBRANCH  25  26
ENDBRANCH   6  25
TORSDOF 6
ENDMDL
MODEL 7
REMARK VINA RESULT:      -7.9      5.571     12.020
REMARK  Name = 
REMARK  8 active torsions:
REMARK  status: ('A' for Active; 'I' for Inactive)
REMARK    1  A    between atoms: C_1  and  C_2
REMARK    2  A    between atoms: C_2  and  C_3
REMARK    3  A    between atoms: C_2  and  O_4
REMARK    4  A    between atoms: O_4  and  C_5
REMARK    5  A    between atoms: C_11  and  C_13
REMARK    6  A    between atoms: C_18  and  O_19
REMARK    7  A    between atoms: O_19  and  C_20
REMARK    8  A    between atoms: C_23  and  C_24
REMARK                            x       y       z     vdW  Elec       q    Type
REMARK                         _______ _______ _______ _____ _____    ______ ____
ROOT
ATOM      1  C   UNL     1       2.255   7.576  19.200  0.00  0.00    +0.000 A 
ATOM      2  C   UNL     1       2.155   8.191  17.956  0.00  0.00    +0.000 A 
ATOM      3  C   UNL     1       1.387   9.346  17.852  0.00  0.00    +0.000 A 
ATOM      4  C   UNL     1       0.736   9.856  18.985  0.00  0.00    +0.000 A 
ATOM      5  C   UNL     1      -0.091  10.994  18.935  0.00  0.00    +0.000 A 
ATOM      6  C   UNL     1      -0.736  11.445  20.086  0.00  0.00    +0.000 A 
ATOM      7  C   UNL     1      -0.588  10.736  21.277  0.00  0.00    +0.000 A 
ATOM      8  C   UNL     1       0.258   9.630  21.330  0.00  0.00    +0.000 A 
ATOM      9  C   UNL     1       0.922   9.173  20.207  0.00  0.00    +0.000 A 
ATOM     10  N   UNL     1       1.685   8.080  20.321  0.00  0.00    +0.000 NA
ENDROOT
BRANCH   1  17
ATOM     11  C   UNL     1       6.384   4.365  15.303  0.00  0.00    +0.000 C 
ATOM     12  O   UNL     1       6.819   3.218  15.333  0.00  0.00    +0.000 OA
ATOM     13  N   UNL     1       5.394   4.821  16.147  0.00  0.00    +0.000 N 
ATOM     14  C   UNL     1       4.849   3.940  17.183  0.00  0.00    +0.000 C 
ATOM     15  C   UNL     1       4.710   4.680  18.522  0.00  0.00    +0.000 C 
ATOM     16  N   UNL     1       3.985   5.948  18.358  0.00  0.00    +0.000 N 
ATOM     17  C   UNL     1       3.040   6.306  19.326  0.00  0.00    +0.000 C 
ATOM     18  O   UNL     1       2.823   5.603  20.315  0.00  0.00    +0.000 OA
ATOM     19  C   UNL     1       4.560   6.827  17.323  0.00  0.00    +0.000 C 
ATOM     20  C   UNL     1       4.691   6.094  15.981  0.00  0.00    +0.000 C 
BRANCH  11  21
ATOM     21  O   UNL     1       6.850   5.327  14.456  0.00  0.00    +0.000 OA
BRANCH  21  23
ATOM     22  C   UNL     1       6.691   4.239  12.304  0.00  0.00    +0.000 C 
ATOM     23  C   UNL     1       7.628   4.846  13.343  0.00  0.00    +0.000 C 
ATOM     24  C   UNL     1       8.393   6.017  12.734  0.00  0.00    +0.000 C 
ENDBRANCH  21  23
ENDBRANCH  11  21
ENDBRANCH   1  17
BRANCH   6  25
ATOM     25  O   UNL     1      -1.560  12.541  19.956  0.00  0.00    +0.000 OA
BRANCH  25  26
ATOM     26  C   UNL     1      -2.886  12.323  19.601  0.00  0.00    +0.000 A 
ATOM     27  C   UNL     1      -3.116  11.705  18.381  0.00  0.00    +0.000 A 
ATOM     28  C   UNL     1      -4.437  11.475  17.996  0.00  0.00    +0.000 A 
ATOM     29  C   UNL     1      -5.483  11.872  18.837  0.00  0.00    +0.000 A 
ATOM     30  C   UNL     1      -5.148  12.488  20.032  0.00  0.00    +0.000 A 
ATOM     31  N   UNL     1      -3.879  12.736  20.420  0.00  0.00    +0.000 NA
BRANCH  29  32
ATOM     32  C   UNL     1      -6.928  11.674  18.500  0.00  0.00    +0.000 C 
ATOM     33  F   UNL     1      -7.305  12.283  17.342  0.00  0.00    +0.000 F 
ATOM     34  F   UNL     1      -7.255  10.361  18.356  0.00  0.00    +0.000 F 
ATOM     35  F   UNL     1      -7.756  12.163  19.465  0.00  0.00    +0.000 F 
ENDBRANCH  29  32
ENDBRANCH  25  26
ENDBRANCH   6  25
TORSDOF 6
ENDMDL
MODEL 8
REMARK VINA RESULT:      -7.9      5.695     12.162
REMARK  Name = 
REMARK  8 active torsions:
REMARK  status: ('A' for Active; 'I' for Inactive)
REMARK    1  A    between atoms: C_1  and  C_2
REMARK    2  A    between atoms: C_2  and  C_3
REMARK    3  A    between atoms: C_2  and  O_4
REMARK    4  A    between atoms: O_4  and  C_5
REMARK    5  A    between atoms: C_11  and  C_13
REMARK    6  A    between atoms: C_18  and  O_19
REMARK    7  A    between atoms: O_19  and  C_20
REMARK    8  A    between atoms: C_23  and  C_24
REMARK                            x       y       z     vdW  Elec       q    Type
REMARK                         _______ _______ _______ _____ _____    ______ ____
ROOT
ATOM      1  C   UNL     1       2.170   7.665  19.193  0.00  0.00    +0.000 A 
ATOM      2  C   UNL     1       2.091   8.261  17.937  0.00  0.00    +0.000 A 
ATOM      3  C   UNL     1       1.333   9.419  17.806  0.00  0.00    +0.000 A 
ATOM      4  C   UNL     1       0.672   9.953  18.922  0.00  0.00    +0.000 A 
ATOM      5  C   UNL     1      -0.146  11.096  18.844  0.00  0.00    +0.000 A 
ATOM      6  C   UNL     1      -0.802  11.570  19.979  0.00  0.00    +0.000 A 
ATOM      7  C   UNL     1      -0.674  10.878  21.184  0.00  0.00    +0.000 A 
ATOM      8  C   UNL     1       0.163   9.766  21.265  0.00  0.00    +0.000 A 
ATOM      9  C   UNL     1       0.837   9.288  20.157  0.00  0.00    +0.000 A 
ATOM     10  N   UNL     1       1.591   8.191  20.298  0.00  0.00    +0.000 NA
ENDROOT
BRANCH   1  17
ATOM     11  C   UNL     1       6.342   4.375  15.409  0.00  0.00    +0.000 C 
ATOM     12  O   UNL     1       6.768   3.225  15.461  0.00  0.00    +0.000 OA
ATOM     13  N   UNL     1       5.341   4.848  16.230  0.00  0.00    +0.000 N 
ATOM     14  C   UNL     1       4.773   3.985  17.268  0.00  0.00    +0.000 C 
ATOM     15  C   UNL     1       4.615   4.743  18.594  0.00  0.00    +0.000 C 
ATOM     16  N   UNL     1       3.903   6.013  18.402  0.00  0.00    +0.000 N 
ATOM     17  C   UNL     1       2.944   6.391  19.348  0.00  0.00    +0.000 C 
ATOM     18  O   UNL     1       2.705   5.702  20.343  0.00  0.00    +0.000 OA
ATOM     19  C   UNL     1       4.501   6.876  17.365  0.00  0.00    +0.000 C 
ATOM     20  C   UNL     1       4.651   6.124  16.035  0.00  0.00    +0.000 C 
BRANCH  11  21
ATOM     21  O   UNL     1       6.830   5.322  14.558  0.00  0.00    +0.000 OA
BRANCH  21  23
ATOM     22  C   UNL     1       6.615   4.177  12.441  0.00  0.00    +0.000 C 
ATOM     23  C   UNL     1       7.578   4.818  13.435  0.00  0.00    +0.000 C 
ATOM     24  C   UNL     1       8.316   5.978  12.773  0.00  0.00    +0.000 C 
ENDBRANCH  21  23
ENDBRANCH  11  21
ENDBRANCH   1  17
BRANCH   6  25
ATOM     25  O   UNL     1      -1.615  12.669  19.822  0.00  0.00    +0.000 OA
BRANCH  25  26
ATOM     26  C   UNL     1      -2.992  12.472  19.840  0.00  0.00    +0.000 A 
ATOM     27  C   UNL     1      -3.671  12.885  20.976  0.00  0.00    +0.000 A 
ATOM     28  C   UNL     1      -5.053  12.698  21.024  0.00  0.00    +0.000 A 
ATOM     29  C   UNL     1      -5.709  12.103  19.940  0.00  0.00    +0.000 A 
ATOM     30  C   UNL     1      -4.938  11.719  18.854  0.00  0.00    +0.000 A 
ATOM     31  N   UNL     1      -3.598  11.875  18.790  0.00  0.00    +0.000 NA
BRANCH  29  32
ATOM     32  C   UNL     1      -7.185  11.854  19.910  0.00  0.00    +0.000 C 
ATOM     33  F   UNL     1      -7.513  10.537  19.805  0.00  0.00    +0.000 F 
ATOM     34  F   UNL     1      -7.814  12.309  21.028  0.00  0.00    +0.000 F 
ATOM     35  F   UNL     1      -7.792  12.475  18.860  0.00  0.00    +0.000 F 
ENDBRANCH  29  32
ENDBRANCH  25  26
ENDBRANCH   6  25
TORSDOF 6
ENDMDL
MODEL 9
REMARK VINA RESULT:      -7.9      2.595      3.966
REMARK  Name = 
REMARK  8 active torsions:
REMARK  status: ('A' for Active; 'I' for Inactive)
REMARK    1  A    between atoms: C_1  and  C_2
REMARK    2  A    between atoms: C_2  and  C_3
REMARK    3  A    between atoms: C_2  and  O_4
REMARK    4  A    between atoms: O_4  and  C_5
REMARK    5  A    between atoms: C_11  and  C_13
REMARK    6  A    between atoms: C_18  and  O_19
REMARK    7  A    between atoms: O_19  and  C_20
REMARK    8  A    between atoms: C_23  and  C_24
REMARK                            x       y       z     vdW  Elec       q    Type
REMARK                         _______ _______ _______ _____ _____    ______ ____
ROOT
ATOM      1  C   UNL     1       0.354  12.213  21.180  0.00  0.00    +0.000 A 
ATOM      2  C   UNL     1       0.384  12.376  19.798  0.00  0.00    +0.000 A 
ATOM      3  C   UNL     1       0.690  11.270  19.012  0.00  0.00    +0.000 A 
ATOM      4  C   UNL     1       0.960  10.035  19.618  0.00  0.00    +0.000 A 
ATOM      5  C   UNL     1       1.319   8.890  18.881  0.00  0.00    +0.000 A 
ATOM      6  C   UNL     1       1.602   7.693  19.535  0.00  0.00    +0.000 A 
ATOM      7  C   UNL     1       1.568   7.648  20.929  0.00  0.00    +0.000 A 
ATOM      8  C   UNL     1       1.179   8.773  21.654  0.00  0.00    +0.000 A 
ATOM      9  C   UNL     1       0.876   9.968  21.027  0.00  0.00    +0.000 A 
ATOM     10  N   UNL     1       0.552  11.019  21.788  0.00  0.00    +0.000 NA
ENDROOT
BRANCH   1  17
ATOM     11  C   UNL     1      -5.046  14.755  23.813  0.00  0.00    +0.000 C 
ATOM     12  O   UNL     1      -5.279  15.851  24.313  0.00  0.00    +0.000 OA
ATOM     13  N   UNL     1      -3.864  14.452  23.172  0.00  0.00    +0.000 N 
ATOM     14  C   UNL     1      -2.786  15.442  23.114  0.00  0.00    +0.000 C 
ATOM     15  C   UNL     1      -1.426  14.799  23.421  0.00  0.00    +0.000 C 
ATOM     16  N   UNL     1      -1.201  13.605  22.596  0.00  0.00    +0.000 N 
ATOM     17  C   UNL     1       0.071  13.401  22.048  0.00  0.00    +0.000 C 
ATOM     18  O   UNL     1       1.004  14.179  22.264  0.00  0.00    +0.000 OA
ATOM     19  C   UNL     1      -2.289  12.613  22.682  0.00  0.00    +0.000 C 
ATOM     20  C   UNL     1      -3.649  13.251  22.365  0.00  0.00    +0.000 C 
BRANCH  11  21
ATOM     21  O   UNL     1      -5.913  13.703  23.862  0.00  0.00    +0.000 OA
BRANCH  21  23
ATOM     22  C   UNL     1      -7.001  14.746  21.973  0.00  0.00    +0.000 C 
ATOM     23  C   UNL     1      -7.196  13.931  23.247  0.00  0.00    +0.000 C 
ATOM     24  C   UNL     1      -7.828  12.583  22.912  0.00  0.00    +0.000 C 
ENDBRANCH  21  23
ENDBRANCH  11  21
ENDBRANCH   1  17
BRANCH   6  25
ATOM     25  O   UNL     1       1.984   6.625  18.754  0.00  0.00    +0.000 OA
BRANCH  25  26
ATOM     26  C   UNL     1       3.342   6.440  18.519  0.00  0.00    +0.000 A 
ATOM     27  C   UNL     1       4.025   5.613  19.398  0.00  0.00    +0.000 A 
ATOM     28  C   UNL     1       5.389   5.410  19.188  0.00  0.00    +0.000 A 
ATOM     29  C   UNL     1       6.026   6.040  18.113  0.00  0.00    +0.000 A 
ATOM     30  C   UNL     1       5.255   6.851  17.295  0.00  0.00    +0.000 A 
ATOM     31  N   UNL     1       3.938   7.076  17.486  0.00  0.00    +0.000 NA
BRANCH  29  32
ATOM     32  C   UNL     1       7.486   5.887  17.818  0.00  0.00    +0.000 C 
ATOM     33  F   UNL     1       8.128   5.045  18.675  0.00  0.00    +0.000 F 
ATOM     34  F   UNL     1       7.718   5.399  16.569  0.00  0.00    +0.000 F 
ATOM     35  F   UNL     1       8.155   7.071  17.888  0.00  0.00    +0.000 F 
ENDBRANCH  29  32
ENDBRANCH  25  26
ENDBRANCH   6  25
TORSDOF 6
ENDMDL
