MODEL 1
REMARK VINA RESULT:      -8.6      0.000      0.000
REMARK  Name = 
REMARK  6 active torsions:
REMARK  status: ('A' for Active; 'I' for Inactive)
REMARK    1  A    between atoms: O_1  and  N_2
REMARK    2  A    between atoms: C_3  and  C_4
REMARK    3  A    between atoms: C_3  and  C_16
REMARK    4  A    between atoms: C_4  and  O_5
REMARK    5  A    between atoms: O_5  and  C_6
REMARK    6  A    between atoms: C_19  and  C_20
REMARK                            x       y       z     vdW  Elec       q    Type
REMARK                         _______ _______ _______ _____ _____    ______ ____
ROOT
ATOM      1  N   UNL     1       2.903   2.889  20.932  0.00  0.00    +0.000 NA
ATOM      2  C   UNL     1       2.713   3.932  20.173  0.00  0.00    +0.000 C 
ENDROOT
BRANCH   2   3
ATOM      3  C   UNL     1       3.497   4.028  18.904  0.00  0.00    +0.000 A 
ATOM      4  C   UNL     1       4.856   4.338  18.903  0.00  0.00    +0.000 A 
ATOM      5  C   UNL     1       5.555   4.419  17.692  0.00  0.00    +0.000 A 
ATOM      6  C   UNL     1       4.929   4.181  16.453  0.00  0.00    +0.000 A 
ATOM      7  C   UNL     1       3.558   3.870  16.481  0.00  0.00    +0.000 A 
ATOM      8  C   UNL     1       2.847   3.804  17.685  0.00  0.00    +0.000 A 
BRANCH   6   9
ATOM      9  C   UNL     1       5.684   4.266  15.178  0.00  0.00    +0.000 A 
ATOM     10  C   UNL     1       5.230   3.617  14.013  0.00  0.00    +0.000 A 
ATOM     11  C   UNL     1       5.953   3.668  12.817  0.00  0.00    +0.000 A 
ATOM     12  C   UNL     1       7.141   4.387  12.750  0.00  0.00    +0.000 A 
ATOM     13  C   UNL     1       7.606   5.053  13.879  0.00  0.00    +0.000 A 
ATOM     14  C   UNL     1       6.888   4.988  15.078  0.00  0.00    +0.000 A 
ENDBRANCH   6   9
ENDBRANCH   2   3
BRANCH   1  15
ATOM     15  O   UNL     1       2.119   2.933  22.088  0.00  0.00    +0.000 OA
ATOM     16  H   UNL     1       1.421   2.281  21.889  0.00  0.00    +0.000 HD
ENDBRANCH   1  15
BRANCH   2  17
ATOM     17  C   UNL     1       1.764   5.086  20.505  0.00  0.00    +0.000 C 
BRANCH  17  18
ATOM     18  O   UNL     1       2.499   6.295  20.640  0.00  0.00    +0.000 OA
BRANCH  18  19
ATOM     19  C   UNL     1       2.150   7.344  19.818  0.00  0.00    +0.000 A 
ATOM     20  C   UNL     1       2.504   7.428  18.466  0.00  0.00    +0.000 A 
ATOM     21  C   UNL     1       2.096   8.512  17.692  0.00  0.00    +0.000 A 
ATOM     22  C   UNL     1       1.331   9.528  18.260  0.00  0.00    +0.000 A 
ATOM     23  C   UNL     1       0.972   9.480  19.614  0.00  0.00    +0.000 A 
ATOM     24  C   UNL     1       0.205  10.512  20.182  0.00  0.00    +0.000 A 
ATOM     25  C   UNL     1      -0.157  10.478  21.528  0.00  0.00    +0.000 A 
ATOM     26  C   UNL     1       0.248   9.414  22.324  0.00  0.00    +0.000 A 
ATOM     27  C   UNL     1       1.010   8.380  21.773  0.00  0.00    +0.000 A 
ATOM     28  C   UNL     1       1.386   8.383  20.412  0.00  0.00    +0.000 A 
ENDBRANCH  18  19
ENDBRANCH  17  18
ENDBRANCH   2  17
TORSDOF 6
ENDMDL
MODEL 2
REMARK VINA RESULT:      -8.6      3.961      5.796
REMARK  Name = 
REMARK  6 active torsions:
REMARK  status: ('A' for Active; 'I' for Inactive)
REMARK    1  A    between atoms: O_1  and  N_2
REMARK    2  A    between atoms: C_3  and  C_4
REMARK    3  A    between atoms: C_3  and  C_16
REMARK    4  A    between atoms: C_4  and  O_5
REMARK    5  A    between atoms: O_5  and  C_6
REMARK    6  A    between atoms: C_19  and  C_20
REMARK                            x       y       z     vdW  Elec       q    Type
REMARK                         _______ _______ _______ _____ _____    ______ ____
ROOT
ATOM      1  N   UNL     1       0.602  10.316  21.789  0.00  0.00    +0.000 NA
ATOM      2  C   UNL     1       0.572  10.318  20.485  0.00  0.00    +0.000 C 
ENDROOT
BRANCH   2   3
ATOM      3  C   UNL     1       1.321   9.245  19.764  0.00  0.00    +0.000 A 
ATOM      4  C   UNL     1       1.639   8.033  20.378  0.00  0.00    +0.000 A 
ATOM      5  C   UNL     1       2.343   7.052  19.668  0.00  0.00    +0.000 A 
ATOM      6  C   UNL     1       2.737   7.240  18.329  0.00  0.00    +0.000 A 
ATOM      7  C   UNL     1       2.404   8.470  17.733  0.00  0.00    +0.000 A 
ATOM      8  C   UNL     1       1.716   9.463  18.441  0.00  0.00    +0.000 A 
BRANCH   6   9
ATOM      9  C   UNL     1       3.479   6.190  17.588  0.00  0.00    +0.000 A 
ATOM     10  C   UNL     1       3.165   4.826  17.741  0.00  0.00    +0.000 A 
ATOM     11  C   UNL     1       3.881   3.829  17.070  0.00  0.00    +0.000 A 
ATOM     12  C   UNL     1       4.920   4.174  16.212  0.00  0.00    +0.000 A 
ATOM     13  C   UNL     1       5.242   5.515  16.027  0.00  0.00    +0.000 A 
ATOM     14  C   UNL     1       4.533   6.508  16.711  0.00  0.00    +0.000 A 
ENDBRANCH   6   9
ENDBRANCH   2   3
BRANCH   1  15
ATOM     15  O   UNL     1      -0.127  11.377  22.331  0.00  0.00    +0.000 OA
ATOM     16  H   UNL     1      -0.758  11.581  21.617  0.00  0.00    +0.000 HD
ENDBRANCH   1  15
BRANCH   2  17
ATOM     17  C   UNL     1      -0.153  11.365  19.636  0.00  0.00    +0.000 C 
BRANCH  17  18
ATOM     18  O   UNL     1      -1.558  11.156  19.704  0.00  0.00    +0.000 OA
BRANCH  18  19
ATOM     19  C   UNL     1      -2.234  11.008  18.513  0.00  0.00    +0.000 A 
ATOM     20  C   UNL     1      -1.716  10.334  17.399  0.00  0.00    +0.000 A 
ATOM     21  C   UNL     1      -2.470  10.208  16.234  0.00  0.00    +0.000 A 
ATOM     22  C   UNL     1      -3.748  10.754  16.166  0.00  0.00    +0.000 A 
ATOM     23  C   UNL     1      -4.290  11.445  17.258  0.00  0.00    +0.000 A 
ATOM     24  C   UNL     1      -5.579  12.000  17.179  0.00  0.00    +0.000 A 
ATOM     25  C   UNL     1      -6.129  12.692  18.257  0.00  0.00    +0.000 A 
ATOM     26  C   UNL     1      -5.393  12.844  19.426  0.00  0.00    +0.000 A 
ATOM     27  C   UNL     1      -4.110  12.297  19.520  0.00  0.00    +0.000 A 
ATOM     28  C   UNL     1      -3.530  11.584  18.447  0.00  0.00    +0.000 A 
ENDBRANCH  18  19
ENDBRANCH  17  18
ENDBRANCH   2  17
TORSDOF 6
ENDMDL
MODEL 3
REMARK VINA RESULT:      -8.5      3.978      6.016
REMARK  Name = 
REMARK  6 active torsions:
REMARK  status: ('A' for Active; 'I' for Inactive)
REMARK    1  A    between atoms: O_1  and  N_2
REMARK    2  A    between atoms: C_3  and  C_4
REMARK    3  A    between atoms: C_3  and  C_16
REMARK    4  A    between atoms: C_4  and  O_5
REMARK    5  A    between atoms: O_5  and  C_6
REMARK    6  A    between atoms: C_19  and  C_20
REMARK                            x       y       z     vdW  Elec       q    Type
REMARK                         _______ _______ _______ _____ _____    ______ ____
ROOT
ATOM      1  N   UNL     1       0.407  10.424  22.115  0.00  0.00    +0.000 NA
ATOM      2  C   UNL     1       0.434  10.434  20.811  0.00  0.00    +0.000 C 
ENDROOT
BRANCH   2   3
ATOM      3  C   UNL     1       1.133   9.311  20.115  0.00  0.00    +0.000 A 
ATOM      4  C   UNL     1       1.434   8.117  20.770  0.00  0.00    +0.000 A 
ATOM      5  C   UNL     1       2.090   7.088  20.082  0.00  0.00    +0.000 A 
ATOM      6  C   UNL     1       2.451   7.210  18.726  0.00  0.00    +0.000 A 
ATOM      7  C   UNL     1       2.136   8.423  18.090  0.00  0.00    +0.000 A 
ATOM      8  C   UNL     1       1.497   9.464  18.774  0.00  0.00    +0.000 A 
BRANCH   6   9
ATOM      9  C   UNL     1       3.142   6.109  18.010  0.00  0.00    +0.000 A 
ATOM     10  C   UNL     1       4.344   6.332  17.310  0.00  0.00    +0.000 A 
ATOM     11  C   UNL     1       4.984   5.306  16.607  0.00  0.00    +0.000 A 
ATOM     12  C   UNL     1       4.446   4.024  16.601  0.00  0.00    +0.000 A 
ATOM     13  C   UNL     1       3.269   3.769  17.297  0.00  0.00    +0.000 A 
ATOM     14  C   UNL     1       2.624   4.800  17.987  0.00  0.00    +0.000 A 
ENDBRANCH   6   9
ENDBRANCH   2   3
BRANCH   1  15
ATOM     15  O   UNL     1      -0.265  11.533  22.633  0.00  0.00    +0.000 OA
ATOM     16  H   UNL     1       0.471  12.127  22.873  0.00  0.00    +0.000 HD
ENDBRANCH   1  15
BRANCH   2  17
ATOM     17  C   UNL     1      -0.171  11.537  19.940  0.00  0.00    +0.000 C 
BRANCH  17  18
ATOM     18  O   UNL     1      -1.591  11.453  19.968  0.00  0.00    +0.000 OA
BRANCH  18  19
ATOM     19  C   UNL     1      -2.236  11.224  18.773  0.00  0.00    +0.000 A 
ATOM     20  C   UNL     1      -1.665  10.532  17.697  0.00  0.00    +0.000 A 
ATOM     21  C   UNL     1      -2.389  10.322  16.525  0.00  0.00    +0.000 A 
ATOM     22  C   UNL     1      -3.690  10.803  16.412  0.00  0.00    +0.000 A 
ATOM     23  C   UNL     1      -4.285  11.510  17.465  0.00  0.00    +0.000 A 
ATOM     24  C   UNL     1      -5.598  11.998  17.341  0.00  0.00    +0.000 A 
ATOM     25  C   UNL     1      -6.201  12.706  18.380  0.00  0.00    +0.000 A 
ATOM     26  C   UNL     1      -5.495  12.940  19.555  0.00  0.00    +0.000 A 
ATOM     27  C   UNL     1      -4.190  12.460  19.693  0.00  0.00    +0.000 A 
ATOM     28  C   UNL     1      -3.556  11.733  18.661  0.00  0.00    +0.000 A 
ENDBRANCH  18  19
ENDBRANCH  17  18
ENDBRANCH   2  17
TORSDOF 6
ENDMDL
MODEL 4
REMARK VINA RESULT:      -8.5      4.948      6.795
REMARK  Name = 
REMARK  6 active torsions:
REMARK  status: ('A' for Active; 'I' for Inactive)
REMARK    1  A    between atoms: O_1  and  N_2
REMARK    2  A    between atoms: C_3  and  C_4
REMARK    3  A    between atoms: C_3  and  C_16
REMARK    4  A    between atoms: C_4  and  O_5
REMARK    5  A    between atoms: O_5  and  C_6
REMARK    6  A    between atoms: C_19  and  C_20
REMARK                            x       y       z     vdW  Elec       q    Type
REMARK                         _______ _______ _______ _____ _____    ______ ____
ROOT
ATOM      1  N   UNL     1       7.044   4.589  17.012  0.00  0.00    +0.000 NA
ATOM      2  C   UNL     1       6.442   5.746  16.996  0.00  0.00    +0.000 C 
ENDROOT
BRANCH   2   3
ATOM      3  C   UNL     1       7.180   6.928  17.535  0.00  0.00    +0.000 A 
ATOM      4  C   UNL     1       7.037   8.198  16.977  0.00  0.00    +0.000 A 
ATOM      5  C   UNL     1       7.747   9.282  17.511  0.00  0.00    +0.000 A 
ATOM      6  C   UNL     1       8.605   9.137  18.619  0.00  0.00    +0.000 A 
ATOM      7  C   UNL     1       8.732   7.847  19.162  0.00  0.00    +0.000 A 
ATOM      8  C   UNL     1       8.040   6.755  18.624  0.00  0.00    +0.000 A 
BRANCH   6   9
ATOM      9  C   UNL     1       9.348  10.295  19.176  0.00  0.00    +0.000 A 
ATOM     10  C   UNL     1      10.199  11.075  18.370  0.00  0.00    +0.000 A 
ATOM     11  C   UNL     1      10.926  12.148  18.896  0.00  0.00    +0.000 A 
ATOM     12  C   UNL     1      10.804  12.480  20.241  0.00  0.00    +0.000 A 
ATOM     13  C   UNL     1       9.958  11.739  21.058  0.00  0.00    +0.000 A 
ATOM     14  C   UNL     1       9.243  10.658  20.532  0.00  0.00    +0.000 A 
ENDBRANCH   6   9
ENDBRANCH   2   3
BRANCH   1  15
ATOM     15  O   UNL     1       6.239   3.572  16.493  0.00  0.00    +0.000 OA
ATOM     16  H   UNL     1       5.397   3.714  16.964  0.00  0.00    +0.000 HD
ENDBRANCH   1  15
BRANCH   2  17
ATOM     17  C   UNL     1       5.014   5.974  16.494  0.00  0.00    +0.000 C 
BRANCH  17  18
ATOM     18  O   UNL     1       4.130   5.045  17.109  0.00  0.00    +0.000 OA
BRANCH  18  19
ATOM     19  C   UNL     1       3.360   5.503  18.155  0.00  0.00    +0.000 A 
ATOM     20  C   UNL     1       3.191   6.858  18.467  0.00  0.00    +0.000 A 
ATOM     21  C   UNL     1       2.378   7.244  19.531  0.00  0.00    +0.000 A 
ATOM     22  C   UNL     1       1.726   6.282  20.298  0.00  0.00    +0.000 A 
ATOM     23  C   UNL     1       1.885   4.918  20.019  0.00  0.00    +0.000 A 
ATOM     24  C   UNL     1       1.228   3.952  20.802  0.00  0.00    +0.000 A 
ATOM     25  C   UNL     1       1.380   2.591  20.537  0.00  0.00    +0.000 A 
ATOM     26  C   UNL     1       2.195   2.179  19.490  0.00  0.00    +0.000 A 
ATOM     27  C   UNL     1       2.853   3.128  18.703  0.00  0.00    +0.000 A 
ATOM     28  C   UNL     1       2.713   4.513  18.941  0.00  0.00    +0.000 A 
ENDBRANCH  18  19
ENDBRANCH  17  18
ENDBRANCH   2  17
TORSDOF 6
ENDMDL
MODEL 5
REMARK VINA RESULT:      -8.4      4.601      6.036
REMARK  Name = 
REMARK  6 active torsions:
REMARK  status: ('A' for Active; 'I' for Inactive)
REMARK    1  A    between atoms: O_1  and  N_2
REMARK    2  A    between atoms: C_3  and  C_4
REMARK    3  A    between atoms: C_3  and  C_16
REMARK    4  A    between atoms: C_4  and  O_5
REMARK    5  A    between atoms: O_5  and  C_6
REMARK    6  A    between atoms: C_19  and  C_20
REMARK                            x       y       z     vdW  Elec       q    Type
REMARK                         _______ _______ _______ _____ _____    ______ ____
ROOT
ATOM      1  N   UNL     1       6.767   4.435  16.112  0.00  0.00    +0.000 NA
ATOM      2  C   UNL     1       6.417   4.956  17.256  0.00  0.00    +0.000 C 
ENDROOT
BRANCH   2   3
ATOM      3  C   UNL     1       7.089   6.220  17.686  0.00  0.00    +0.000 A 
ATOM      4  C   UNL     1       7.989   6.246  18.750  0.00  0.00    +0.000 A 
ATOM      5  C   UNL     1       8.598   7.451  19.122  0.00  0.00    +0.000 A 
ATOM      6  C   UNL     1       8.342   8.657  18.441  0.00  0.00    +0.000 A 
ATOM      7  C   UNL     1       7.431   8.604  17.371  0.00  0.00    +0.000 A 
ATOM      8  C   UNL     1       6.804   7.407  17.004  0.00  0.00    +0.000 A 
BRANCH   6   9
ATOM      9  C   UNL     1       8.998   9.926  18.844  0.00  0.00    +0.000 A 
ATOM     10  C   UNL     1       9.237  10.229  20.199  0.00  0.00    +0.000 A 
ATOM     11  C   UNL     1       9.826  11.436  20.587  0.00  0.00    +0.000 A 
ATOM     12  C   UNL     1      10.210  12.366  19.627  0.00  0.00    +0.000 A 
ATOM     13  C   UNL     1      10.003  12.088  18.280  0.00  0.00    +0.000 A 
ATOM     14  C   UNL     1       9.400  10.885  17.896  0.00  0.00    +0.000 A 
ENDBRANCH   6   9
ENDBRANCH   2   3
BRANCH   1  15
ATOM     15  O   UNL     1       6.071   3.254  15.841  0.00  0.00    +0.000 OA
ATOM     16  H   UNL     1       5.145   3.520  15.990  0.00  0.00    +0.000 HD
ENDBRANCH   1  15
BRANCH   2  17
ATOM     17  C   UNL     1       5.386   4.346  18.208  0.00  0.00    +0.000 C 
BRANCH  17  18
ATOM     18  O   UNL     1       4.083   4.808  17.874  0.00  0.00    +0.000 OA
BRANCH  18  19
ATOM     19  C   UNL     1       3.266   5.203  18.911  0.00  0.00    +0.000 A 
ATOM     20  C   UNL     1       2.927   4.383  19.994  0.00  0.00    +0.000 A 
ATOM     21  C   UNL     1       2.110   4.861  21.016  0.00  0.00    +0.000 A 
ATOM     22  C   UNL     1       1.620   6.163  20.967  0.00  0.00    +0.000 A 
ATOM     23  C   UNL     1       1.930   7.004  19.891  0.00  0.00    +0.000 A 
ATOM     24  C   UNL     1       1.426   8.316  19.846  0.00  0.00    +0.000 A 
ATOM     25  C   UNL     1       1.725   9.163  18.779  0.00  0.00    +0.000 A 
ATOM     26  C   UNL     1       2.527   8.705  17.740  0.00  0.00    +0.000 A 
ATOM     27  C   UNL     1       3.036   7.404  17.772  0.00  0.00    +0.000 A 
ATOM     28  C   UNL     1       2.757   6.526  18.843  0.00  0.00    +0.000 A 
ENDBRANCH  18  19
ENDBRANCH  17  18
ENDBRANCH   2  17
TORSDOF 6
ENDMDL
MODEL 6
REMARK VINA RESULT:      -8.4      0.755      1.200
REMARK  Name = 
REMARK  6 active torsions:
REMARK  status: ('A' for Active; 'I' for Inactive)
REMARK    1  A    between atoms: O_1  and  N_2
REMARK    2  A    between atoms: C_3  and  C_4
REMARK    3  A    between atoms: C_3  and  C_16
REMARK    4  A    between atoms: C_4  and  O_5
REMARK    5  A    between atoms: O_5  and  C_6
REMARK    6  A    between atoms: C_19  and  C_20
REMARK                            x       y       z     vdW  Elec       q    Type
REMARK                         _______ _______ _______ _____ _____    ______ ____
ROOT
ATOM      1  N   UNL     1       3.789   2.668  20.475  0.00  0.00    +0.000 NA
ATOM      2  C   UNL     1       3.367   3.612  19.679  0.00  0.00    +0.000 C 
ENDROOT
BRANCH   2   3
ATOM      3  C   UNL     1       4.053   3.777  18.361  0.00  0.00    +0.000 A 
ATOM      4  C   UNL     1       3.405   3.498  17.158  0.00  0.00    +0.000 A 
ATOM      5  C   UNL     1       4.083   3.665  15.944  0.00  0.00    +0.000 A 
ATOM      6  C   UNL     1       5.413   4.126  15.890  0.00  0.00    +0.000 A 
ATOM      7  C   UNL     1       6.043   4.400  17.116  0.00  0.00    +0.000 A 
ATOM      8  C   UNL     1       5.379   4.219  18.336  0.00  0.00    +0.000 A 
BRANCH   6   9
ATOM      9  C   UNL     1       6.117   4.302  14.595  0.00  0.00    +0.000 A 
ATOM     10  C   UNL     1       5.733   3.579  13.448  0.00  0.00    +0.000 A 
ATOM     11  C   UNL     1       6.412   3.718  12.233  0.00  0.00    +0.000 A 
ATOM     12  C   UNL     1       7.483   4.599  12.129  0.00  0.00    +0.000 A 
ATOM     13  C   UNL     1       7.874   5.339  13.239  0.00  0.00    +0.000 A 
ATOM     14  C   UNL     1       7.202   5.188  14.457  0.00  0.00    +0.000 A 
ENDBRANCH   6   9
ENDBRANCH   2   3
BRANCH   1  15
ATOM     15  O   UNL     1       3.071   2.634  21.672  0.00  0.00    +0.000 OA
ATOM     16  H   UNL     1       3.781   2.643  22.340  0.00  0.00    +0.000 HD
ENDBRANCH   1  15
BRANCH   2  17
ATOM     17  C   UNL     1       2.237   4.589  20.014  0.00  0.00    +0.000 C 
BRANCH  17  18
ATOM     18  O   UNL     1       2.779   5.856  20.362  0.00  0.00    +0.000 OA
BRANCH  18  19
ATOM     19  C   UNL     1       2.514   6.912  19.518  0.00  0.00    +0.000 A 
ATOM     20  C   UNL     1       2.992   7.000  18.204  0.00  0.00    +0.000 A 
ATOM     21  C   UNL     1       2.663   8.092  17.403  0.00  0.00    +0.000 A 
ATOM     22  C   UNL     1       1.857   9.109  17.904  0.00  0.00    +0.000 A 
ATOM     23  C   UNL     1       1.374   9.057  19.218  0.00  0.00    +0.000 A 
ATOM     24  C   UNL     1       0.564  10.091  19.719  0.00  0.00    +0.000 A 
ATOM     25  C   UNL     1       0.079  10.053  21.026  0.00  0.00    +0.000 A 
ATOM     26  C   UNL     1       0.403   8.982  21.850  0.00  0.00    +0.000 A 
ATOM     27  C   UNL     1       1.205   7.945  21.365  0.00  0.00    +0.000 A 
ATOM     28  C   UNL     1       1.705   7.953  20.044  0.00  0.00    +0.000 A 
ENDBRANCH  18  19
ENDBRANCH  17  18
ENDBRANCH   2  17
TORSDOF 6
ENDMDL
MODEL 7
REMARK VINA RESULT:      -8.3      1.187      1.528
REMARK  Name = 
REMARK  6 active torsions:
REMARK  status: ('A' for Active; 'I' for Inactive)
REMARK    1  A    between atoms: O_1  and  N_2
REMARK    2  A    between atoms: C_3  and  C_4
REMARK    3  A    between atoms: C_3  and  C_16
REMARK    4  A    between atoms: C_4  and  O_5
REMARK    5  A    between atoms: O_5  and  C_6
REMARK    6  A    between atoms: C_19  and  C_20
REMARK                            x       y       z     vdW  Elec       q    Type
REMARK                         _______ _______ _______ _____ _____    ______ ____
ROOT
ATOM      1  N   UNL     1       3.366   4.609  20.357  0.00  0.00    +0.000 NA
ATOM      2  C   UNL     1       2.985   5.305  19.322  0.00  0.00    +0.000 C 
ENDROOT
BRANCH   2   3
ATOM      3  C   UNL     1       3.753   5.148  18.049  0.00  0.00    +0.000 A 
ATOM      4  C   UNL     1       4.256   6.248  17.356  0.00  0.00    +0.000 A 
ATOM      5  C   UNL     1       4.971   6.059  16.167  0.00  0.00    +0.000 A 
ATOM      6  C   UNL     1       5.218   4.775  15.642  0.00  0.00    +0.000 A 
ATOM      7  C   UNL     1       4.701   3.683  16.360  0.00  0.00    +0.000 A 
ATOM      8  C   UNL     1       3.970   3.863  17.540  0.00  0.00    +0.000 A 
BRANCH   6   9
ATOM      9  C   UNL     1       5.981   4.590  14.383  0.00  0.00    +0.000 A 
ATOM     10  C   UNL     1       5.542   3.700  13.384  0.00  0.00    +0.000 A 
ATOM     11  C   UNL     1       6.272   3.498  12.208  0.00  0.00    +0.000 A 
ATOM     12  C   UNL     1       7.455   4.197  11.994  0.00  0.00    +0.000 A 
ATOM     13  C   UNL     1       7.906   5.096  12.954  0.00  0.00    +0.000 A 
ATOM     14  C   UNL     1       7.180   5.285  14.135  0.00  0.00    +0.000 A 
ENDBRANCH   6   9
ENDBRANCH   2   3
BRANCH   1  15
ATOM     15  O   UNL     1       2.571   4.860  21.478  0.00  0.00    +0.000 OA
ATOM     16  H   UNL     1       3.227   4.870  22.199  0.00  0.00    +0.000 HD
ENDBRANCH   1  15
BRANCH   2  17
ATOM     17  C   UNL     1       1.821   6.300  19.326  0.00  0.00    +0.000 C 
BRANCH  17  18
ATOM     18  O   UNL     1       2.209   7.496  19.989  0.00  0.00    +0.000 OA
BRANCH  18  19
ATOM     19  C   UNL     1       1.521   8.647  19.673  0.00  0.00    +0.000 A 
ATOM     20  C   UNL     1       1.479   9.204  18.389  0.00  0.00    +0.000 A 
ATOM     21  C   UNL     1       0.744  10.362  18.143  0.00  0.00    +0.000 A 
ATOM     22  C   UNL     1       0.043  10.978  19.176  0.00  0.00    +0.000 A 
ATOM     23  C   UNL     1       0.075  10.452  20.475  0.00  0.00    +0.000 A 
ATOM     24  C   UNL     1      -0.630  11.084  21.514  0.00  0.00    +0.000 A 
ATOM     25  C   UNL     1      -0.604  10.573  22.812  0.00  0.00    +0.000 A 
ATOM     26  C   UNL     1       0.133   9.427  23.086  0.00  0.00    +0.000 A 
ATOM     27  C   UNL     1       0.838   8.788  22.063  0.00  0.00    +0.000 A 
ATOM     28  C   UNL     1       0.824   9.277  20.738  0.00  0.00    +0.000 A 
ENDBRANCH  18  19
ENDBRANCH  17  18
ENDBRANCH   2  17
TORSDOF 6
ENDMDL
MODEL 8
REMARK VINA RESULT:      -8.3      1.101      1.549
REMARK  Name = 
REMARK  6 active torsions:
REMARK  status: ('A' for Active; 'I' for Inactive)
REMARK    1  A    between atoms: O_1  and  N_2
REMARK    2  A    between atoms: C_3  and  C_4
REMARK    3  A    between atoms: C_3  and  C_16
REMARK    4  A    between atoms: C_4  and  O_5
REMARK    5  A    between atoms: O_5  and  C_6
REMARK    6  A    between atoms: C_19  and  C_20
REMARK                            x       y       z     vdW  Elec       q    Type
REMARK                         _______ _______ _______ _____ _____    ______ ____
ROOT
ATOM      1  N   UNL     1       2.135   3.937  19.577  0.00  0.00    +0.000 NA
ATOM      2  C   UNL     1       2.904   4.941  19.257  0.00  0.00    +0.000 C 
ENDROOT
BRANCH   2   3
ATOM      3  C   UNL     1       3.696   4.842  17.993  0.00  0.00    +0.000 A 
ATOM      4  C   UNL     1       4.259   5.967  17.391  0.00  0.00    +0.000 A 
ATOM      5  C   UNL     1       4.994   5.833  16.206  0.00  0.00    +0.000 A 
ATOM      6  C   UNL     1       5.202   4.580  15.597  0.00  0.00    +0.000 A 
ATOM      7  C   UNL     1       4.625   3.462  16.224  0.00  0.00    +0.000 A 
ATOM      8  C   UNL     1       3.873   3.589  17.398  0.00  0.00    +0.000 A 
BRANCH   6   9
ATOM      9  C   UNL     1       5.987   4.453  14.344  0.00  0.00    +0.000 A 
ATOM     10  C   UNL     1       7.161   5.203  14.135  0.00  0.00    +0.000 A 
ATOM     11  C   UNL     1       7.888   5.110  12.944  0.00  0.00    +0.000 A 
ATOM     12  C   UNL     1       7.468   4.250  11.936  0.00  0.00    +0.000 A 
ATOM     13  C   UNL     1       6.322   3.484  12.119  0.00  0.00    +0.000 A 
ATOM     14  C   UNL     1       5.589   3.589  13.306  0.00  0.00    +0.000 A 
ENDBRANCH   6   9
ENDBRANCH   2   3
BRANCH   1  15
ATOM     15  O   UNL     1       1.464   4.156  20.783  0.00  0.00    +0.000 OA
ATOM     16  H   UNL     1       1.678   5.088  20.973  0.00  0.00    +0.000 HD
ENDBRANCH   1  15
BRANCH   2  17
ATOM     17  C   UNL     1       3.080   6.203  20.104  0.00  0.00    +0.000 C 
BRANCH  17  18
ATOM     18  O   UNL     1       1.817   6.817  20.328  0.00  0.00    +0.000 OA
BRANCH  18  19
ATOM     19  C   UNL     1       1.610   8.061  19.773  0.00  0.00    +0.000 A 
ATOM     20  C   UNL     1       2.004   8.412  18.476  0.00  0.00    +0.000 A 
ATOM     21  C   UNL     1       1.741   9.686  17.977  0.00  0.00    +0.000 A 
ATOM     22  C   UNL     1       1.085  10.625  18.768  0.00  0.00    +0.000 A 
ATOM     23  C   UNL     1       0.691  10.309  20.074  0.00  0.00    +0.000 A 
ATOM     24  C   UNL     1       0.034  11.265  20.869  0.00  0.00    +0.000 A 
ATOM     25  C   UNL     1      -0.361  10.964  22.172  0.00  0.00    +0.000 A 
ATOM     26  C   UNL     1      -0.099   9.705  22.698  0.00  0.00    +0.000 A 
ATOM     27  C   UNL     1       0.551   8.744  21.920  0.00  0.00    +0.000 A 
ATOM     28  C   UNL     1       0.957   9.017  20.594  0.00  0.00    +0.000 A 
ENDBRANCH  18  19
ENDBRANCH  17  18
ENDBRANCH   2  17
TORSDOF 6
ENDMDL
MODEL 9
REMARK VINA RESULT:      -8.2      3.821      6.005
REMARK  Name = 
REMARK  6 active torsions:
REMARK  status: ('A' for Active; 'I' for Inactive)
REMARK    1  A    between atoms: O_1  and  N_2
REMARK    2  A    between atoms: C_3  and  C_4
REMARK    3  A    between atoms: C_3  and  C_16
REMARK    4  A    between atoms: C_4  and  O_5
REMARK    5  A    between atoms: O_5  and  C_6
REMARK    6  A    between atoms: C_19  and  C_20
REMARK                            x       y       z     vdW  Elec       q    Type
REMARK                         _______ _______ _______ _____ _____    ______ ____
ROOT
ATOM      1  N   UNL     1       0.490  10.386  22.191  0.00  0.00    +0.000 NA
ATOM      2  C   UNL     1       0.590  10.371  20.890  0.00  0.00    +0.000 C 
ENDROOT
BRANCH   2   3
ATOM      3  C   UNL     1       1.178   9.156  20.247  0.00  0.00    +0.000 A 
ATOM      4  C   UNL     1       1.651   9.178  18.935  0.00  0.00    +0.000 A 
ATOM      5  C   UNL     1       2.194   8.019  18.367  0.00  0.00    +0.000 A 
ATOM      6  C   UNL     1       2.296   6.813  19.089  0.00  0.00    +0.000 A 
ATOM      7  C   UNL     1       1.812   6.818  20.409  0.00  0.00    +0.000 A 
ATOM      8  C   UNL     1       1.251   7.967  20.979  0.00  0.00    +0.000 A 
BRANCH   6   9
ATOM      9  C   UNL     1       2.878   5.593  18.476  0.00  0.00    +0.000 A 
ATOM     10  C   UNL     1       4.263   5.344  18.513  0.00  0.00    +0.000 A 
ATOM     11  C   UNL     1       4.822   4.212  17.911  0.00  0.00    +0.000 A 
ATOM     12  C   UNL     1       4.003   3.289  17.269  0.00  0.00    +0.000 A 
ATOM     13  C   UNL     1       2.629   3.498  17.230  0.00  0.00    +0.000 A 
ATOM     14  C   UNL     1       2.076   4.639  17.822  0.00  0.00    +0.000 A 
ENDBRANCH   6   9
ENDBRANCH   2   3
BRANCH   1  15
ATOM     15  O   UNL     1      -0.062  11.581  22.659  0.00  0.00    +0.000 OA
ATOM     16  H   UNL     1       0.451  12.252  22.171  0.00  0.00    +0.000 HD
ENDBRANCH   1  15
BRANCH   2  17
ATOM     17  C   UNL     1       0.178  11.526  19.975  0.00  0.00    +0.000 C 
BRANCH  17  18
ATOM     18  O   UNL     1      -1.234  11.689  20.006  0.00  0.00    +0.000 OA
BRANCH  18  19
ATOM     19  C   UNL     1      -1.948  11.235  18.918  0.00  0.00    +0.000 A 
ATOM     20  C   UNL     1      -1.410  10.416  17.917  0.00  0.00    +0.000 A 
ATOM     21  C   UNL     1      -2.202   9.980  16.857  0.00  0.00    +0.000 A 
ATOM     22  C   UNL     1      -3.540  10.358  16.783  0.00  0.00    +0.000 A 
ATOM     23  C   UNL     1      -4.104  11.186  17.761  0.00  0.00    +0.000 A 
ATOM     24  C   UNL     1      -5.454  11.569  17.676  0.00  0.00    +0.000 A 
ATOM     25  C   UNL     1      -6.028  12.396  18.641  0.00  0.00    +0.000 A 
ATOM     26  C   UNL     1      -5.256  12.855  19.702  0.00  0.00    +0.000 A 
ATOM     27  C   UNL     1      -3.913  12.482  19.801  0.00  0.00    +0.000 A 
ATOM     28  C   UNL     1      -3.306  11.640  18.842  0.00  0.00    +0.000 A 
ENDBRANCH  18  19
ENDBRANCH  17  18
ENDBRANCH   2  17
TORSDOF 6
ENDMDL
