MODEL 1
REMARK VINA RESULT:      -7.6      0.000      0.000
REMARK  Name = 
REMARK  5 active torsions:
REMARK  status: ('A' for Active; 'I' for Inactive)
REMARK    1  A    between atoms: C_1  and  O_2
REMARK    2  A    between atoms: O_2  and  C_3
REMARK    3  A    between atoms: C_10  and  C_11
REMARK    4  A    between atoms: C_11  and  C_12
REMARK    5  A    between atoms: C_12  and  N_13
REMARK                            x       y       z     vdW  Elec       q    Type
REMARK                         _______ _______ _______ _____ _____    ______ ____
ROOT
ATOM      1  C   UNL     1       2.242   6.939  19.354  0.00  0.00    +0.000 A 
ATOM      2  C   UNL     1       1.744   6.308  20.485  0.00  0.00    +0.000 A 
ATOM      3  C   UNL     1       1.897   4.931  20.630  0.00  0.00    +0.000 A 
ATOM      4  C   UNL     1       2.552   4.163  19.654  0.00  0.00    +0.000 A 
ATOM      5  C   UNL     1       2.684   2.786  19.860  0.00  0.00    +0.000 A 
ATOM      6  C   UNL     1       3.344   1.989  18.936  0.00  0.00    +0.000 A 
ATOM      7  C   UNL     1       3.883   2.566  17.793  0.00  0.00    +0.000 A 
ATOM      8  C   UNL     1       3.748   3.946  17.531  0.00  0.00    +0.000 A 
ATOM      9  C   UNL     1       3.073   4.776  18.482  0.00  0.00    +0.000 A 
ATOM     10  C   UNL     1       2.881   6.178  18.362  0.00  0.00    +0.000 A 
ENDROOT
BRANCH   1  12
ATOM     11  C   UNL     1       2.271   8.670  17.732  0.00  0.00    +0.000 C 
ATOM     12  O   UNL     1       2.147   8.282  19.098  0.00  0.00    +0.000 OA
ENDBRANCH   1  12
BRANCH   8  13
ATOM     13  C   UNL     1       4.374   4.455  16.236  0.00  0.00    +0.000 C 
BRANCH  13  14
ATOM     14  C   UNL     1       5.909   4.481  16.300  0.00  0.00    +0.000 C 
BRANCH  14  15
ATOM     15  N   UNL     1       6.471   5.535  17.136  0.00  0.00    +0.000 N 
ATOM     16  C   UNL     1       6.176   6.934  16.953  0.00  0.00    +0.000 C 
ATOM     17  C   UNL     1       7.391   7.639  17.529  0.00  0.00    +0.000 C 
ATOM     18  C   UNL     1       7.929   6.671  18.575  0.00  0.00    +0.000 C 
ATOM     19  C   UNL     1       7.521   5.329  18.024  0.00  0.00    +0.000 C 
ATOM     20  O   UNL     1       8.021   4.261  18.336  0.00  0.00    +0.000 OA
ENDBRANCH  14  15
ENDBRANCH  13  14
ENDBRANCH   8  13
TORSDOF 4
ENDMDL
MODEL 2
REMARK VINA RESULT:      -7.4      2.493      4.707
REMARK  Name = 
REMARK  5 active torsions:
REMARK  status: ('A' for Active; 'I' for Inactive)
REMARK    1  A    between atoms: C_1  and  O_2
REMARK    2  A    between atoms: O_2  and  C_3
REMARK    3  A    between atoms: C_10  and  C_11
REMARK    4  A    between atoms: C_11  and  C_12
REMARK    5  A    between atoms: C_12  and  N_13
REMARK                            x       y       z     vdW  Elec       q    Type
REMARK                         _______ _______ _______ _____ _____    ______ ____
ROOT
ATOM      1  C   UNL     1       2.262   7.123  19.718  0.00  0.00    +0.000 A 
ATOM      2  C   UNL     1       2.242   8.053  18.688  0.00  0.00    +0.000 A 
ATOM      3  C   UNL     1       3.076   7.878  17.584  0.00  0.00    +0.000 A 
ATOM      4  C   UNL     1       3.937   6.773  17.489  0.00  0.00    +0.000 A 
ATOM      5  C   UNL     1       4.742   6.646  16.352  0.00  0.00    +0.000 A 
ATOM      6  C   UNL     1       5.591   5.560  16.201  0.00  0.00    +0.000 A 
ATOM      7  C   UNL     1       5.641   4.585  17.189  0.00  0.00    +0.000 A 
ATOM      8  C   UNL     1       4.867   4.686  18.365  0.00  0.00    +0.000 A 
ATOM      9  C   UNL     1       3.985   5.802  18.526  0.00  0.00    +0.000 A 
ATOM     10  C   UNL     1       3.134   6.024  19.642  0.00  0.00    +0.000 A 
ENDROOT
BRANCH   1  12
ATOM     11  C   UNL     1       1.134   8.499  21.287  0.00  0.00    +0.000 C 
ATOM     12  O   UNL     1       1.495   7.191  20.852  0.00  0.00    +0.000 OA
ENDBRANCH   1  12
BRANCH   8  13
ATOM     13  C   UNL     1       5.019   3.557  19.378  0.00  0.00    +0.000 C 
BRANCH  13  14
ATOM     14  C   UNL     1       4.099   2.366  19.068  0.00  0.00    +0.000 C 
BRANCH  14  15
ATOM     15  N   UNL     1       2.733   2.502  19.561  0.00  0.00    +0.000 N 
ATOM     16  C   UNL     1       1.611   2.810  18.712  0.00  0.00    +0.000 C 
ATOM     17  C   UNL     1       0.618   3.476  19.648  0.00  0.00    +0.000 C 
ATOM     18  C   UNL     1       0.939   2.888  21.017  0.00  0.00    +0.000 C 
ATOM     19  C   UNL     1       2.412   2.592  20.911  0.00  0.00    +0.000 C 
ATOM     20  O   UNL     1       3.166   2.435  21.857  0.00  0.00    +0.000 OA
ENDBRANCH  14  15
ENDBRANCH  13  14
ENDBRANCH   8  13
TORSDOF 4
ENDMDL
MODEL 3
REMARK VINA RESULT:      -7.4      1.307      1.895
REMARK  Name = 
REMARK  5 active torsions:
REMARK  status: ('A' for Active; 'I' for Inactive)
REMARK    1  A    between atoms: C_1  and  O_2
REMARK    2  A    between atoms: O_2  and  C_3
REMARK    3  A    between atoms: C_10  and  C_11
REMARK    4  A    between atoms: C_11  and  C_12
REMARK    5  A    between atoms: C_12  and  N_13
REMARK                            x       y       z     vdW  Elec       q    Type
REMARK                         _______ _______ _______ _____ _____    ______ ____
ROOT
ATOM      1  C   UNL     1       2.427   7.396  18.742  0.00  0.00    +0.000 A 
ATOM      2  C   UNL     1       1.961   7.550  20.040  0.00  0.00    +0.000 A 
ATOM      3  C   UNL     1       1.608   6.426  20.784  0.00  0.00    +0.000 A 
ATOM      4  C   UNL     1       1.718   5.133  20.249  0.00  0.00    +0.000 A 
ATOM      5  C   UNL     1       1.359   4.042  21.047  0.00  0.00    +0.000 A 
ATOM      6  C   UNL     1       1.473   2.745  20.572  0.00  0.00    +0.000 A 
ATOM      7  C   UNL     1       1.953   2.524  19.287  0.00  0.00    +0.000 A 
ATOM      8  C   UNL     1       2.301   3.596  18.437  0.00  0.00    +0.000 A 
ATOM      9  C   UNL     1       2.191   4.938  18.922  0.00  0.00    +0.000 A 
ATOM     10  C   UNL     1       2.523   6.108  18.189  0.00  0.00    +0.000 A 
ENDROOT
BRANCH   1  12
ATOM     11  C   UNL     1       1.922   9.546  17.876  0.00  0.00    +0.000 C 
ATOM     12  O   UNL     1       2.798   8.423  17.913  0.00  0.00    +0.000 OA
ENDBRANCH   1  12
BRANCH   8  13
ATOM     13  C   UNL     1       2.805   3.222  17.046  0.00  0.00    +0.000 C 
BRANCH  13  14
ATOM     14  C   UNL     1       4.309   2.910  17.034  0.00  0.00    +0.000 C 
BRANCH  14  15
ATOM     15  N   UNL     1       5.178   4.078  16.939  0.00  0.00    +0.000 N 
ATOM     16  C   UNL     1       5.535   4.700  15.690  0.00  0.00    +0.000 C 
ATOM     17  C   UNL     1       6.867   5.368  15.985  0.00  0.00    +0.000 C 
ATOM     18  C   UNL     1       6.820   5.658  17.480  0.00  0.00    +0.000 C 
ATOM     19  C   UNL     1       5.936   4.556  18.003  0.00  0.00    +0.000 C 
ATOM     20  O   UNL     1       5.890   4.183  19.163  0.00  0.00    +0.000 OA
ENDBRANCH  14  15
ENDBRANCH  13  14
ENDBRANCH   8  13
TORSDOF 4
ENDMDL
MODEL 4
REMARK VINA RESULT:      -7.4      1.167      1.481
REMARK  Name = 
REMARK  5 active torsions:
REMARK  status: ('A' for Active; 'I' for Inactive)
REMARK    1  A    between atoms: C_1  and  O_2
REMARK    2  A    between atoms: O_2  and  C_3
REMARK    3  A    between atoms: C_10  and  C_11
REMARK    4  A    between atoms: C_11  and  C_12
REMARK    5  A    between atoms: C_12  and  N_13
REMARK                            x       y       z     vdW  Elec       q    Type
REMARK                         _______ _______ _______ _____ _____    ______ ____
ROOT
ATOM      1  C   UNL     1       2.599   7.445  18.651  0.00  0.00    +0.000 A 
ATOM      2  C   UNL     1       2.102   7.134  19.909  0.00  0.00    +0.000 A 
ATOM      3  C   UNL     1       2.178   5.823  20.376  0.00  0.00    +0.000 A 
ATOM      4  C   UNL     1       2.752   4.804  19.600  0.00  0.00    +0.000 A 
ATOM      5  C   UNL     1       2.808   3.510  20.126  0.00  0.00    +0.000 A 
ATOM      6  C   UNL     1       3.388   2.475  19.407  0.00  0.00    +0.000 A 
ATOM      7  C   UNL     1       3.921   2.727  18.150  0.00  0.00    +0.000 A 
ATOM      8  C   UNL     1       3.861   4.012  17.568  0.00  0.00    +0.000 A 
ATOM      9  C   UNL     1       3.269   5.086  18.306  0.00  0.00    +0.000 A 
ATOM     10  C   UNL     1       3.158   6.429  17.858  0.00  0.00    +0.000 A 
ENDROOT
BRANCH   1  12
ATOM     11  C   UNL     1       1.294   9.303  17.965  0.00  0.00    +0.000 C 
ATOM     12  O   UNL     1       2.576   8.692  18.084  0.00  0.00    +0.000 OA
ENDBRANCH   1  12
BRANCH   8  13
ATOM     13  C   UNL     1       4.471   4.156  16.178  0.00  0.00    +0.000 C 
BRANCH  13  14
ATOM     14  C   UNL     1       5.990   3.923  16.180  0.00  0.00    +0.000 C 
BRANCH  14  15
ATOM     15  N   UNL     1       6.766   4.939  16.881  0.00  0.00    +0.000 N 
ATOM     16  C   UNL     1       7.593   4.655  18.026  0.00  0.00    +0.000 C 
ATOM     17  C   UNL     1       7.648   5.976  18.772  0.00  0.00    +0.000 C 
ATOM     18  C   UNL     1       7.450   7.029  17.688  0.00  0.00    +0.000 C 
ATOM     19  C   UNL     1       6.602   6.304  16.675  0.00  0.00    +0.000 C 
ATOM     20  O   UNL     1       5.920   6.841  15.817  0.00  0.00    +0.000 OA
ENDBRANCH  14  15
ENDBRANCH  13  14
ENDBRANCH   8  13
TORSDOF 4
ENDMDL
MODEL 5
REMARK VINA RESULT:      -7.4      2.409      5.346
REMARK  Name = 
REMARK  5 active torsions:
REMARK  status: ('A' for Active; 'I' for Inactive)
REMARK    1  A    between atoms: C_1  and  O_2
REMARK    2  A    between atoms: O_2  and  C_3
REMARK    3  A    between atoms: C_10  and  C_11
REMARK    4  A    between atoms: C_11  and  C_12
REMARK    5  A    between atoms: C_12  and  N_13
REMARK                            x       y       z     vdW  Elec       q    Type
REMARK                         _______ _______ _______ _____ _____    ______ ____
ROOT
ATOM      1  C   UNL     1       6.492   5.216  16.132  0.00  0.00    +0.000 A 
ATOM      2  C   UNL     1       6.661   6.505  16.619  0.00  0.00    +0.000 A 
ATOM      3  C   UNL     1       5.630   7.113  17.332  0.00  0.00    +0.000 A 
ATOM      4  C   UNL     1       4.418   6.447  17.574  0.00  0.00    +0.000 A 
ATOM      5  C   UNL     1       3.423   7.105  18.304  0.00  0.00    +0.000 A 
ATOM      6  C   UNL     1       2.219   6.479  18.589  0.00  0.00    +0.000 A 
ATOM      7  C   UNL     1       1.998   5.181  18.146  0.00  0.00    +0.000 A 
ATOM      8  C   UNL     1       2.962   4.489  17.382  0.00  0.00    +0.000 A 
ATOM      9  C   UNL     1       4.210   5.126  17.088  0.00  0.00    +0.000 A 
ATOM     10  C   UNL     1       5.277   4.547  16.351  0.00  0.00    +0.000 A 
ENDROOT
BRANCH   1  12
ATOM     11  C   UNL     1       7.330   4.613  13.997  0.00  0.00    +0.000 C 
ATOM     12  O   UNL     1       7.429   4.519  15.415  0.00  0.00    +0.000 OA
ENDBRANCH   1  12
BRANCH   8  13
ATOM     13  C   UNL     1       2.595   3.074  16.947  0.00  0.00    +0.000 C 
BRANCH  13  14
ATOM     14  C   UNL     1       3.158   2.006  17.897  0.00  0.00    +0.000 C 
BRANCH  14  15
ATOM     15  N   UNL     1       2.715   2.121  19.281  0.00  0.00    +0.000 N 
ATOM     16  C   UNL     1       1.329   2.103  19.673  0.00  0.00    +0.000 C 
ATOM     17  C   UNL     1       1.311   2.872  20.982  0.00  0.00    +0.000 C 
ATOM     18  C   UNL     1       2.706   2.665  21.559  0.00  0.00    +0.000 C 
ATOM     19  C   UNL     1       3.553   2.499  20.324  0.00  0.00    +0.000 C 
ATOM     20  O   UNL     1       4.763   2.649  20.276  0.00  0.00    +0.000 OA
ENDBRANCH  14  15
ENDBRANCH  13  14
ENDBRANCH   8  13
TORSDOF 4
ENDMDL
MODEL 6
REMARK VINA RESULT:      -7.3      1.876      3.560
REMARK  Name = 
REMARK  5 active torsions:
REMARK  status: ('A' for Active; 'I' for Inactive)
REMARK    1  A    between atoms: C_1  and  O_2
REMARK    2  A    between atoms: O_2  and  C_3
REMARK    3  A    between atoms: C_10  and  C_11
REMARK    4  A    between atoms: C_11  and  C_12
REMARK    5  A    between atoms: C_12  and  N_13
REMARK                            x       y       z     vdW  Elec       q    Type
REMARK                         _______ _______ _______ _____ _____    ______ ____
ROOT
ATOM      1  C   UNL     1       2.932   3.634  20.221  0.00  0.00    +0.000 A 
ATOM      2  C   UNL     1       2.166   4.512  20.974  0.00  0.00    +0.000 A 
ATOM      3  C   UNL     1       1.994   5.825  20.539  0.00  0.00    +0.000 A 
ATOM      4  C   UNL     1       2.580   6.281  19.347  0.00  0.00    +0.000 A 
ATOM      5  C   UNL     1       2.364   7.606  18.957  0.00  0.00    +0.000 A 
ATOM      6  C   UNL     1       2.900   8.096  17.775  0.00  0.00    +0.000 A 
ATOM      7  C   UNL     1       3.659   7.259  16.968  0.00  0.00    +0.000 A 
ATOM      8  C   UNL     1       3.927   5.923  17.336  0.00  0.00    +0.000 A 
ATOM      9  C   UNL     1       3.372   5.409  18.551  0.00  0.00    +0.000 A 
ATOM     10  C   UNL     1       3.538   4.084  19.037  0.00  0.00    +0.000 A 
ENDROOT
BRANCH   1  12
ATOM     11  C   UNL     1       4.522   1.882  20.397  0.00  0.00    +0.000 C 
ATOM     12  O   UNL     1       3.176   2.326  20.549  0.00  0.00    +0.000 OA
ENDBRANCH   1  12
BRANCH   8  13
ATOM     13  C   UNL     1       4.782   5.110  16.370  0.00  0.00    +0.000 C 
BRANCH  13  14
ATOM     14  C   UNL     1       6.094   5.824  16.010  0.00  0.00    +0.000 C 
BRANCH  14  15
ATOM     15  N   UNL     1       7.026   5.993  17.119  0.00  0.00    +0.000 N 
ATOM     16  C   UNL     1       7.408   4.921  18.003  0.00  0.00    +0.000 C 
ATOM     17  C   UNL     1       7.799   5.631  19.287  0.00  0.00    +0.000 C 
ATOM     18  C   UNL     1       8.261   7.009  18.830  0.00  0.00    +0.000 C 
ATOM     19  C   UNL     1       7.445   7.234  17.584  0.00  0.00    +0.000 C 
ATOM     20  O   UNL     1       7.226   8.321  17.075  0.00  0.00    +0.000 OA
ENDBRANCH  14  15
ENDBRANCH  13  14
ENDBRANCH   8  13
TORSDOF 4
ENDMDL
MODEL 7
REMARK VINA RESULT:      -7.2      2.855      6.171
REMARK  Name = 
REMARK  5 active torsions:
REMARK  status: ('A' for Active; 'I' for Inactive)
REMARK    1  A    between atoms: C_1  and  O_2
REMARK    2  A    between atoms: O_2  and  C_3
REMARK    3  A    between atoms: C_10  and  C_11
REMARK    4  A    between atoms: C_11  and  C_12
REMARK    5  A    between atoms: C_12  and  N_13
REMARK                            x       y       z     vdW  Elec       q    Type
REMARK                         _______ _______ _______ _____ _____    ______ ____
ROOT
ATOM      1  C   UNL     1       6.080   3.823  13.360  0.00  0.00    +0.000 A 
ATOM      2  C   UNL     1       7.216   4.613  13.463  0.00  0.00    +0.000 A 
ATOM      3  C   UNL     1       7.465   5.314  14.642  0.00  0.00    +0.000 A 
ATOM      4  C   UNL     1       6.588   5.234  15.736  0.00  0.00    +0.000 A 
ATOM      5  C   UNL     1       6.896   5.951  16.897  0.00  0.00    +0.000 A 
ATOM      6  C   UNL     1       6.074   5.885  18.012  0.00  0.00    +0.000 A 
ATOM      7  C   UNL     1       4.933   5.094  17.978  0.00  0.00    +0.000 A 
ATOM      8  C   UNL     1       4.569   4.375  16.819  0.00  0.00    +0.000 A 
ATOM      9  C   UNL     1       5.415   4.434  15.665  0.00  0.00    +0.000 A 
ATOM     10  C   UNL     1       5.187   3.750  14.441  0.00  0.00    +0.000 A 
ENDROOT
BRANCH   1  12
ATOM     11  C   UNL     1       4.473   3.420  11.663  0.00  0.00    +0.000 C 
ATOM     12  O   UNL     1       5.728   3.095  12.253  0.00  0.00    +0.000 OA
ENDBRANCH   1  12
BRANCH   8  13
ATOM     13  C   UNL     1       3.288   3.553  16.904  0.00  0.00    +0.000 C 
BRANCH  13  14
ATOM     14  C   UNL     1       3.449   2.311  17.795  0.00  0.00    +0.000 C 
BRANCH  14  15
ATOM     15  N   UNL     1       2.812   2.408  19.103  0.00  0.00    +0.000 N 
ATOM     16  C   UNL     1       1.413   2.702  19.285  0.00  0.00    +0.000 C 
ATOM     17  C   UNL     1       1.350   3.330  20.666  0.00  0.00    +0.000 C 
ATOM     18  C   UNL     1       2.538   2.730  21.407  0.00  0.00    +0.000 C 
ATOM     19  C   UNL     1       3.523   2.469  20.297  0.00  0.00    +0.000 C 
ATOM     20  O   UNL     1       4.724   2.315  20.445  0.00  0.00    +0.000 OA
ENDBRANCH  14  15
ENDBRANCH  13  14
ENDBRANCH   8  13
TORSDOF 4
ENDMDL
MODEL 8
REMARK VINA RESULT:      -7.2      2.775      5.853
REMARK  Name = 
REMARK  5 active torsions:
REMARK  status: ('A' for Active; 'I' for Inactive)
REMARK    1  A    between atoms: C_1  and  O_2
REMARK    2  A    between atoms: O_2  and  C_3
REMARK    3  A    between atoms: C_10  and  C_11
REMARK    4  A    between atoms: C_11  and  C_12
REMARK    5  A    between atoms: C_12  and  N_13
REMARK                            x       y       z     vdW  Elec       q    Type
REMARK                         _______ _______ _______ _____ _____    ______ ____
ROOT
ATOM      1  C   UNL     1       5.666   4.291  14.357  0.00  0.00    +0.000 A 
ATOM      2  C   UNL     1       7.024   4.443  14.595  0.00  0.00    +0.000 A 
ATOM      3  C   UNL     1       7.466   4.803  15.867  0.00  0.00    +0.000 A 
ATOM      4  C   UNL     1       6.561   5.012  16.921  0.00  0.00    +0.000 A 
ATOM      5  C   UNL     1       7.064   5.361  18.178  0.00  0.00    +0.000 A 
ATOM      6  C   UNL     1       6.213   5.553  19.256  0.00  0.00    +0.000 A 
ATOM      7  C   UNL     1       4.843   5.395  19.086  0.00  0.00    +0.000 A 
ATOM      8  C   UNL     1       4.290   5.071  17.828  0.00  0.00    +0.000 A 
ATOM      9  C   UNL     1       5.162   4.866  16.712  0.00  0.00    +0.000 A 
ATOM     10  C   UNL     1       4.751   4.516  15.399  0.00  0.00    +0.000 A 
ENDROOT
BRANCH   1  12
ATOM     11  C   UNL     1       5.979   3.286  12.231  0.00  0.00    +0.000 C 
ATOM     12  O   UNL     1       5.114   3.947  13.150  0.00  0.00    +0.000 OA
ENDBRANCH   1  12
BRANCH   8  13
ATOM     13  C   UNL     1       2.772   4.937  17.769  0.00  0.00    +0.000 C 
BRANCH  13  14
ATOM     14  C   UNL     1       2.306   3.486  17.967  0.00  0.00    +0.000 C 
BRANCH  14  15
ATOM     15  N   UNL     1       2.136   3.080  19.357  0.00  0.00    +0.000 N 
ATOM     16  C   UNL     1       1.034   3.513  20.180  0.00  0.00    +0.000 C 
ATOM     17  C   UNL     1       1.581   3.426  21.594  0.00  0.00    +0.000 C 
ATOM     18  C   UNL     1       2.646   2.339  21.519  0.00  0.00    +0.000 C 
ATOM     19  C   UNL     1       3.128   2.445  20.095  0.00  0.00    +0.000 C 
ATOM     20  O   UNL     1       4.192   2.018  19.680  0.00  0.00    +0.000 OA
ENDBRANCH  14  15
ENDBRANCH  13  14
ENDBRANCH   8  13
TORSDOF 4
ENDMDL
MODEL 9
REMARK VINA RESULT:      -7.2      1.687      2.255
REMARK  Name = 
REMARK  5 active torsions:
REMARK  status: ('A' for Active; 'I' for Inactive)
REMARK    1  A    between atoms: C_1  and  O_2
REMARK    2  A    between atoms: O_2  and  C_3
REMARK    3  A    between atoms: C_10  and  C_11
REMARK    4  A    between atoms: C_11  and  C_12
REMARK    5  A    between atoms: C_12  and  N_13
REMARK                            x       y       z     vdW  Elec       q    Type
REMARK                         _______ _______ _______ _____ _____    ______ ____
ROOT
ATOM      1  C   UNL     1       2.458   7.525  18.785  0.00  0.00    +0.000 A 
ATOM      2  C   UNL     1       1.840   7.598  20.025  0.00  0.00    +0.000 A 
ATOM      3  C   UNL     1       1.545   6.425  20.718  0.00  0.00    +0.000 A 
ATOM      4  C   UNL     1       1.863   5.164  20.188  0.00  0.00    +0.000 A 
ATOM      5  C   UNL     1       1.551   4.023  20.934  0.00  0.00    +0.000 A 
ATOM      6  C   UNL     1       1.868   2.758  20.464  0.00  0.00    +0.000 A 
ATOM      7  C   UNL     1       2.506   2.621  19.237  0.00  0.00    +0.000 A 
ATOM      8  C   UNL     1       2.814   3.743  18.438  0.00  0.00    +0.000 A 
ATOM      9  C   UNL     1       2.495   5.053  18.919  0.00  0.00    +0.000 A 
ATOM     10  C   UNL     1       2.763   6.269  18.236  0.00  0.00    +0.000 A 
ENDROOT
BRANCH   1  12
ATOM     11  C   UNL     1       1.806   9.629  17.904  0.00  0.00    +0.000 C 
ATOM     12  O   UNL     1       2.791   8.605  18.009  0.00  0.00    +0.000 OA
ENDBRANCH   1  12
BRANCH   8  13
ATOM     13  C   UNL     1       3.504   3.460  17.108  0.00  0.00    +0.000 C 
BRANCH  13  14
ATOM     14  C   UNL     1       5.033   3.578  17.206  0.00  0.00    +0.000 C 
BRANCH  14  15
ATOM     15  N   UNL     1       5.681   4.142  16.028  0.00  0.00    +0.000 N 
ATOM     16  C   UNL     1       5.060   4.193  14.729  0.00  0.00    +0.000 C 
ATOM     17  C   UNL     1       6.233   4.214  13.765  0.00  0.00    +0.000 C 
ATOM     18  C   UNL     1       7.363   4.855  14.562  0.00  0.00    +0.000 C 
ATOM     19  C   UNL     1       7.034   4.460  15.978  0.00  0.00    +0.000 C 
ATOM     20  O   UNL     1       7.824   4.454  16.907  0.00  0.00    +0.000 OA
ENDBRANCH  14  15
ENDBRANCH  13  14
ENDBRANCH   8  13
TORSDOF 4
ENDMDL
