MODEL 1
REMARK VINA RESULT:      -7.5      0.000      0.000
REMARK  Name = 
REMARK  3 active torsions:
REMARK  status: ('A' for Active; 'I' for Inactive)
REMARK    1  A    between atoms: C_1  and  C_2
REMARK    2  A    between atoms: C_7  and  N_8
REMARK    3  A    between atoms: N_8  and  C_9
REMARK                            x       y       z     vdW  Elec       q    Type
REMARK                         _______ _______ _______ _____ _____    ______ ____
ROOT
ATOM      1  N   UNL     1       4.165   3.249  18.179  0.00  0.00    +0.000 N 
ATOM      2  H   UNL     1       4.851   2.500  18.251  0.00  0.00    +0.000 HD
ENDROOT
BRANCH   1   9
ATOM      3  C   UNL     1       1.494   4.191  17.661  0.00  0.00    +0.000 C 
ATOM      4  C   UNL     1       1.914   3.623  18.992  0.00  0.00    +0.000 A 
ATOM      5  C   UNL     1       0.969   3.602  20.034  0.00  0.00    +0.000 A 
ATOM      6  C   UNL     1       1.293   3.068  21.276  0.00  0.00    +0.000 A 
ATOM      7  C   UNL     1       2.565   2.547  21.486  0.00  0.00    +0.000 A 
ATOM      8  C   UNL     1       3.522   2.593  20.466  0.00  0.00    +0.000 A 
ATOM      9  C   UNL     1       3.224   3.132  19.207  0.00  0.00    +0.000 A 
ENDBRANCH   1   9
BRANCH   1  10
ATOM     10  C   UNL     1       4.714   4.522  17.722  0.00  0.00    +0.000 C 
ATOM     11  C   UNL     1       5.344   5.173  18.924  0.00  0.00    +0.000 C 
ATOM     12  C   UNL     1       6.635   5.508  18.829  0.00  0.00    +0.000 C 
ATOM     13  S   UNL     1       7.268   5.123  17.272  0.00  0.00    +0.000 S 
ATOM     14  O   UNL     1       7.471   6.352  16.535  0.00  0.00    +0.000 OA
ATOM     15  O   UNL     1       8.325   4.142  17.415  0.00  0.00    +0.000 OA
ATOM     16  C   UNL     1       5.796   4.324  16.657  0.00  0.00    +0.000 C 
ENDBRANCH   1  10
TORSDOF 2
ENDMDL
MODEL 2
REMARK VINA RESULT:      -7.3      0.519      1.755
REMARK  Name = 
REMARK  3 active torsions:
REMARK  status: ('A' for Active; 'I' for Inactive)
REMARK    1  A    between atoms: C_1  and  C_2
REMARK    2  A    between atoms: C_7  and  N_8
REMARK    3  A    between atoms: N_8  and  C_9
REMARK                            x       y       z     vdW  Elec       q    Type
REMARK                         _______ _______ _______ _____ _____    ______ ____
ROOT
ATOM      1  N   UNL     1       3.950   3.637  18.076  0.00  0.00    +0.000 N 
ATOM      2  H   UNL     1       4.554   2.816  18.061  0.00  0.00    +0.000 HD
ENDROOT
BRANCH   1   9
ATOM      3  C   UNL     1       4.699   1.982  20.311  0.00  0.00    +0.000 C 
ATOM      4  C   UNL     1       3.382   2.711  20.242  0.00  0.00    +0.000 A 
ATOM      5  C   UNL     1       2.466   2.531  21.294  0.00  0.00    +0.000 A 
ATOM      6  C   UNL     1       1.246   3.197  21.296  0.00  0.00    +0.000 A 
ATOM      7  C   UNL     1       0.932   4.052  20.246  0.00  0.00    +0.000 A 
ATOM      8  C   UNL     1       1.822   4.213  19.178  0.00  0.00    +0.000 A 
ATOM      9  C   UNL     1       3.056   3.549  19.148  0.00  0.00    +0.000 A 
ENDBRANCH   1   9
BRANCH   1  10
ATOM     10  C   UNL     1       4.609   4.874  17.668  0.00  0.00    +0.000 C 
ATOM     11  C   UNL     1       5.325   5.397  18.885  0.00  0.00    +0.000 C 
ATOM     12  C   UNL     1       6.640   5.613  18.771  0.00  0.00    +0.000 C 
ATOM     13  S   UNL     1       7.199   5.251  17.181  0.00  0.00    +0.000 S 
ATOM     14  O   UNL     1       7.503   6.493  16.500  0.00  0.00    +0.000 OA
ATOM     15  O   UNL     1       8.159   4.168  17.245  0.00  0.00    +0.000 OA
ATOM     16  C   UNL     1       5.643   4.630  16.566  0.00  0.00    +0.000 C 
ENDBRANCH   1  10
TORSDOF 2
ENDMDL
MODEL 3
REMARK VINA RESULT:      -7.2      1.467      1.830
REMARK  Name = 
REMARK  3 active torsions:
REMARK  status: ('A' for Active; 'I' for Inactive)
REMARK    1  A    between atoms: C_1  and  C_2
REMARK    2  A    between atoms: C_7  and  N_8
REMARK    3  A    between atoms: N_8  and  C_9
REMARK                            x       y       z     vdW  Elec       q    Type
REMARK                         _______ _______ _______ _____ _____    ______ ____
ROOT
ATOM      1  N   UNL     1       3.730   4.832  17.816  0.00  0.00    +0.000 N 
ATOM      2  H   UNL     1       4.103   4.094  17.222  0.00  0.00    +0.000 HD
ENDROOT
BRANCH   1   9
ATOM      3  C   UNL     1       3.477   1.965  17.899  0.00  0.00    +0.000 C 
ATOM      4  C   UNL     1       2.693   2.879  18.806  0.00  0.00    +0.000 A 
ATOM      5  C   UNL     1       1.766   2.302  19.692  0.00  0.00    +0.000 A 
ATOM      6  C   UNL     1       1.032   3.094  20.568  0.00  0.00    +0.000 A 
ATOM      7  C   UNL     1       1.222   4.470  20.568  0.00  0.00    +0.000 A 
ATOM      8  C   UNL     1       2.118   5.058  19.668  0.00  0.00    +0.000 A 
ATOM      9  C   UNL     1       2.866   4.284  18.769  0.00  0.00    +0.000 A 
ENDBRANCH   1   9
BRANCH   1  10
ATOM     10  C   UNL     1       4.674   5.908  18.101  0.00  0.00    +0.000 C 
ATOM     11  C   UNL     1       5.821   5.283  18.849  0.00  0.00    +0.000 C 
ATOM     12  C   UNL     1       7.044   5.443  18.332  0.00  0.00    +0.000 C 
ATOM     13  S   UNL     1       6.997   6.393  16.894  0.00  0.00    +0.000 S 
ATOM     14  O   UNL     1       7.557   7.698  17.180  0.00  0.00    +0.000 OA
ATOM     15  O   UNL     1       7.465   5.597  15.778  0.00  0.00    +0.000 OA
ATOM     16  C   UNL     1       5.220   6.539  16.817  0.00  0.00    +0.000 C 
ENDBRANCH   1  10
TORSDOF 2
ENDMDL
MODEL 4
REMARK VINA RESULT:      -7.2      1.417      2.182
REMARK  Name = 
REMARK  3 active torsions:
REMARK  status: ('A' for Active; 'I' for Inactive)
REMARK    1  A    between atoms: C_1  and  C_2
REMARK    2  A    between atoms: C_7  and  N_8
REMARK    3  A    between atoms: N_8  and  C_9
REMARK                            x       y       z     vdW  Elec       q    Type
REMARK                         _______ _______ _______ _____ _____    ______ ____
ROOT
ATOM      1  N   UNL     1       3.506   4.596  17.211  0.00  0.00    +0.000 N 
ATOM      2  H   UNL     1       3.023   4.823  16.344  0.00  0.00    +0.000 HD
ENDROOT
BRANCH   1   9
ATOM      3  C   UNL     1       2.827   6.458  19.300  0.00  0.00    +0.000 C 
ATOM      4  C   UNL     1       2.259   5.063  19.236  0.00  0.00    +0.000 A 
ATOM      5  C   UNL     1       1.401   4.646  20.269  0.00  0.00    +0.000 A 
ATOM      6  C   UNL     1       0.829   3.379  20.249  0.00  0.00    +0.000 A 
ATOM      7  C   UNL     1       1.107   2.519  19.193  0.00  0.00    +0.000 A 
ATOM      8  C   UNL     1       1.985   2.913  18.176  0.00  0.00    +0.000 A 
ATOM      9  C   UNL     1       2.581   4.182  18.175  0.00  0.00    +0.000 A 
ENDBRANCH   1   9
BRANCH   1  10
ATOM     10  C   UNL     1       4.815   3.978  17.025  0.00  0.00    +0.000 C 
ATOM     11  C   UNL     1       5.358   4.509  15.725  0.00  0.00    +0.000 C 
ATOM     12  C   UNL     1       6.549   5.114  15.764  0.00  0.00    +0.000 C 
ATOM     13  S   UNL     1       7.205   5.103  17.359  0.00  0.00    +0.000 S 
ATOM     14  O   UNL     1       8.306   4.163  17.403  0.00  0.00    +0.000 OA
ATOM     15  O   UNL     1       7.354   6.467  17.824  0.00  0.00    +0.000 OA
ATOM     16  C   UNL     1       5.787   4.359  18.145  0.00  0.00    +0.000 C 
ENDBRANCH   1  10
TORSDOF 2
ENDMDL
MODEL 5
REMARK VINA RESULT:      -7.2      1.690      2.217
REMARK  Name = 
REMARK  3 active torsions:
REMARK  status: ('A' for Active; 'I' for Inactive)
REMARK    1  A    between atoms: C_1  and  C_2
REMARK    2  A    between atoms: C_7  and  N_8
REMARK    3  A    between atoms: N_8  and  C_9
REMARK                            x       y       z     vdW  Elec       q    Type
REMARK                         _______ _______ _______ _____ _____    ______ ____
ROOT
ATOM      1  N   UNL     1       3.411   5.545  17.649  0.00  0.00    +0.000 N 
ATOM      2  H   UNL     1       2.891   6.209  17.078  0.00  0.00    +0.000 HD
ENDROOT
BRANCH   1   9
ATOM      3  C   UNL     1       2.264   6.373  20.156  0.00  0.00    +0.000 C 
ATOM      4  C   UNL     1       1.977   5.031  19.533  0.00  0.00    +0.000 A 
ATOM      5  C   UNL     1       1.153   4.134  20.235  0.00  0.00    +0.000 A 
ATOM      6  C   UNL     1       0.835   2.892  19.698  0.00  0.00    +0.000 A 
ATOM      7  C   UNL     1       1.336   2.538  18.451  0.00  0.00    +0.000 A 
ATOM      8  C   UNL     1       2.184   3.410  17.758  0.00  0.00    +0.000 A 
ATOM      9  C   UNL     1       2.526   4.666  18.280  0.00  0.00    +0.000 A 
ENDBRANCH   1   9
BRANCH   1  10
ATOM     10  C   UNL     1       4.691   5.136  17.079  0.00  0.00    +0.000 C 
ATOM     11  C   UNL     1       5.463   6.401  16.810  0.00  0.00    +0.000 C 
ATOM     12  C   UNL     1       6.670   6.509  17.375  0.00  0.00    +0.000 C 
ATOM     13  S   UNL     1       7.067   5.097  18.281  0.00  0.00    +0.000 S 
ATOM     14  O   UNL     1       8.084   4.356  17.566  0.00  0.00    +0.000 OA
ATOM     15  O   UNL     1       7.228   5.453  19.676  0.00  0.00    +0.000 OA
ATOM     16  C   UNL     1       5.498   4.276  18.055  0.00  0.00    +0.000 C 
ENDBRANCH   1  10
TORSDOF 2
ENDMDL
MODEL 6
REMARK VINA RESULT:      -7.0      1.492      1.944
REMARK  Name = 
REMARK  3 active torsions:
REMARK  status: ('A' for Active; 'I' for Inactive)
REMARK    1  A    between atoms: C_1  and  C_2
REMARK    2  A    between atoms: C_7  and  N_8
REMARK    3  A    between atoms: N_8  and  C_9
REMARK                            x       y       z     vdW  Elec       q    Type
REMARK                         _______ _______ _______ _____ _____    ______ ____
ROOT
ATOM      1  N   UNL     1       4.757   4.712  19.252  0.00  0.00    +0.000 N 
ATOM      2  H   UNL     1       4.844   5.680  19.554  0.00  0.00    +0.000 HD
ENDROOT
BRANCH   1   9
ATOM      3  C   UNL     1       2.617   6.583  19.710  0.00  0.00    +0.000 C 
ATOM      4  C   UNL     1       2.461   5.099  19.923  0.00  0.00    +0.000 A 
ATOM      5  C   UNL     1       1.232   4.623  20.412  0.00  0.00    +0.000 A 
ATOM      6  C   UNL     1       1.023   3.262  20.605  0.00  0.00    +0.000 A 
ATOM      7  C   UNL     1       2.042   2.365  20.306  0.00  0.00    +0.000 A 
ATOM      8  C   UNL     1       3.280   2.831  19.850  0.00  0.00    +0.000 A 
ATOM      9  C   UNL     1       3.520   4.198  19.653  0.00  0.00    +0.000 A 
ENDBRANCH   1   9
BRANCH   1  10
ATOM     10  C   UNL     1       5.372   4.429  17.959  0.00  0.00    +0.000 C 
ATOM     11  C   UNL     1       4.560   5.167  16.928  0.00  0.00    +0.000 C 
ATOM     12  C   UNL     1       5.212   6.026  16.140  0.00  0.00    +0.000 C 
ATOM     13  S   UNL     1       6.899   6.048  16.497  0.00  0.00    +0.000 S 
ATOM     14  O   UNL     1       7.611   5.388  15.424  0.00  0.00    +0.000 OA
ATOM     15  O   UNL     1       7.274   7.371  16.954  0.00  0.00    +0.000 OA
ATOM     16  C   UNL     1       6.814   4.939  17.893  0.00  0.00    +0.000 C 
ENDBRANCH   1  10
TORSDOF 2
ENDMDL
MODEL 7
REMARK VINA RESULT:      -7.0      1.349      1.688
REMARK  Name = 
REMARK  3 active torsions:
REMARK  status: ('A' for Active; 'I' for Inactive)
REMARK    1  A    between atoms: C_1  and  C_2
REMARK    2  A    between atoms: C_7  and  N_8
REMARK    3  A    between atoms: N_8  and  C_9
REMARK                            x       y       z     vdW  Elec       q    Type
REMARK                         _______ _______ _______ _____ _____    ______ ____
ROOT
ATOM      1  N   UNL     1       4.244   3.652  18.278  0.00  0.00    +0.000 N 
ATOM      2  H   UNL     1       4.593   2.778  17.891  0.00  0.00    +0.000 HD
ENDROOT
BRANCH   1   9
ATOM      3  C   UNL     1       1.522   4.374  17.675  0.00  0.00    +0.000 C 
ATOM      4  C   UNL     1       1.932   3.768  18.993  0.00  0.00    +0.000 A 
ATOM      5  C   UNL     1       0.946   3.598  19.982  0.00  0.00    +0.000 A 
ATOM      6  C   UNL     1       1.261   3.023  21.208  0.00  0.00    +0.000 A 
ATOM      7  C   UNL     1       2.565   2.610  21.454  0.00  0.00    +0.000 A 
ATOM      8  C   UNL     1       3.561   2.805  20.490  0.00  0.00    +0.000 A 
ATOM      9  C   UNL     1       3.272   3.388  19.248  0.00  0.00    +0.000 A 
ENDBRANCH   1   9
BRANCH   1  10
ATOM     10  C   UNL     1       5.256   4.697  18.408  0.00  0.00    +0.000 C 
ATOM     11  C   UNL     1       6.430   4.260  17.572  0.00  0.00    +0.000 C 
ATOM     12  C   UNL     1       6.847   5.102  16.621  0.00  0.00    +0.000 C 
ATOM     13  S   UNL     1       5.914   6.552  16.615  0.00  0.00    +0.000 S 
ATOM     14  O   UNL     1       6.724   7.630  17.143  0.00  0.00    +0.000 OA
ATOM     15  O   UNL     1       5.225   6.673  15.346  0.00  0.00    +0.000 OA
ATOM     16  C   UNL     1       4.755   6.041  17.873  0.00  0.00    +0.000 C 
ENDBRANCH   1  10
TORSDOF 2
ENDMDL
MODEL 8
REMARK VINA RESULT:      -7.0      1.463      1.800
REMARK  Name = 
REMARK  3 active torsions:
REMARK  status: ('A' for Active; 'I' for Inactive)
REMARK    1  A    between atoms: C_1  and  C_2
REMARK    2  A    between atoms: C_7  and  N_8
REMARK    3  A    between atoms: N_8  and  C_9
REMARK                            x       y       z     vdW  Elec       q    Type
REMARK                         _______ _______ _______ _____ _____    ______ ____
ROOT
ATOM      1  N   UNL     1       4.436   4.215  18.723  0.00  0.00    +0.000 N 
ATOM      2  H   UNL     1       5.107   4.525  19.424  0.00  0.00    +0.000 HD
ENDROOT
BRANCH   1   9
ATOM      3  C   UNL     1       3.483   1.507  18.506  0.00  0.00    +0.000 C 
ATOM      4  C   UNL     1       2.707   2.589  19.212  0.00  0.00    +0.000 A 
ATOM      5  C   UNL     1       1.445   2.266  19.741  0.00  0.00    +0.000 A 
ATOM      6  C   UNL     1       0.696   3.218  20.423  0.00  0.00    +0.000 A 
ATOM      7  C   UNL     1       1.205   4.501  20.585  0.00  0.00    +0.000 A 
ATOM      8  C   UNL     1       2.446   4.842  20.034  0.00  0.00    +0.000 A 
ATOM      9  C   UNL     1       3.219   3.904  19.336  0.00  0.00    +0.000 A 
ENDBRANCH   1   9
BRANCH   1  10
ATOM     10  C   UNL     1       4.546   4.905  17.441  0.00  0.00    +0.000 C 
ATOM     11  C   UNL     1       5.305   6.178  17.704  0.00  0.00    +0.000 C 
ATOM     12  C   UNL     1       6.417   6.382  16.990  0.00  0.00    +0.000 C 
ATOM     13  S   UNL     1       6.692   5.095  15.877  0.00  0.00    +0.000 S 
ATOM     14  O   UNL     1       6.413   5.570  14.538  0.00  0.00    +0.000 OA
ATOM     15  O   UNL     1       7.942   4.439  16.203  0.00  0.00    +0.000 OA
ATOM     16  C   UNL     1       5.328   4.078  16.417  0.00  0.00    +0.000 C 
ENDBRANCH   1  10
TORSDOF 2
ENDMDL
MODEL 9
REMARK VINA RESULT:      -6.9      1.997      2.277
REMARK  Name = 
REMARK  3 active torsions:
REMARK  status: ('A' for Active; 'I' for Inactive)
REMARK    1  A    between atoms: C_1  and  C_2
REMARK    2  A    between atoms: C_7  and  N_8
REMARK    3  A    between atoms: N_8  and  C_9
REMARK                            x       y       z     vdW  Elec       q    Type
REMARK                         _______ _______ _______ _____ _____    ______ ____
ROOT
ATOM      1  N   UNL     1       4.883   5.518  18.921  0.00  0.00    +0.000 N 
ATOM      2  H   UNL     1       4.469   6.259  19.483  0.00  0.00    +0.000 HD
ENDROOT
BRANCH   1   9
ATOM      3  C   UNL     1       2.261   6.487  18.229  0.00  0.00    +0.000 C 
ATOM      4  C   UNL     1       2.600   5.019  18.282  0.00  0.00    +0.000 A 
ATOM      5  C   UNL     1       1.575   4.090  18.030  0.00  0.00    +0.000 A 
ATOM      6  C   UNL     1       1.834   2.725  18.042  0.00  0.00    +0.000 A 
ATOM      7  C   UNL     1       3.123   2.276  18.303  0.00  0.00    +0.000 A 
ATOM      8  C   UNL     1       4.144   3.191  18.587  0.00  0.00    +0.000 A 
ATOM      9  C   UNL     1       3.908   4.573  18.588  0.00  0.00    +0.000 A 
ENDBRANCH   1   9
BRANCH   1  10
ATOM     10  C   UNL     1       5.921   5.972  18.000  0.00  0.00    +0.000 C 
ATOM     11  C   UNL     1       7.136   5.126  18.275  0.00  0.00    +0.000 C 
ATOM     12  C   UNL     1       7.652   4.450  17.244  0.00  0.00    +0.000 C 
ATOM     13  S   UNL     1       6.777   4.757  15.791  0.00  0.00    +0.000 S 
ATOM     14  O   UNL     1       7.586   5.592  14.927  0.00  0.00    +0.000 OA
ATOM     15  O   UNL     1       6.188   3.522  15.316  0.00  0.00    +0.000 OA
ATOM     16  C   UNL     1       5.511   5.769  16.539  0.00  0.00    +0.000 C 
ENDBRANCH   1  10
TORSDOF 2
ENDMDL
