MODEL 1
REMARK VINA RESULT:      -7.5      0.000      0.000
REMARK  Name = 
REMARK  5 active torsions:
REMARK  status: ('A' for Active; 'I' for Inactive)
REMARK    1  A    between atoms: C_2  and  O_3
REMARK    2  A    between atoms: C_2  and  C_4
REMARK    3  A    between atoms: C_4  and  C_5
REMARK    4  A    between atoms: C_4  and  N_12
REMARK    5  A    between atoms: C_5  and  C_6
REMARK                            x       y       z     vdW  Elec       q    Type
REMARK                         _______ _______ _______ _____ _____    ______ ____
ROOT
ATOM      1  N   UNL     1       1.556   8.876  19.382  0.00  0.00    +0.000 N 
ATOM      2  C   UNL     1       2.182   8.566  18.205  0.00  0.00    +0.000 C 
ATOM      3  O   UNL     1       2.048   9.127  17.134  0.00  0.00    +0.000 OA
ATOM      4  C   UNL     1       2.895   7.314  18.409  0.00  0.00    +0.000 A 
ATOM      5  C   UNL     1       3.816   6.668  17.605  0.00  0.00    +0.000 A 
ATOM      6 CL   UNL     1       4.454   7.452  16.206  0.00  0.00    +0.000 Cl
ATOM      7  C   UNL     1       4.225   5.382  17.994  0.00  0.00    +0.000 A 
ATOM      8 CL   UNL     1       5.388   4.522  17.025  0.00  0.00    +0.000 Cl
ATOM      9  C   UNL     1       3.685   4.784  19.164  0.00  0.00    +0.000 A 
ATOM     10 CL   UNL     1       4.118   3.147  19.573  0.00  0.00    +0.000 Cl
ATOM     11  C   UNL     1       2.782   5.496  19.986  0.00  0.00    +0.000 A 
ATOM     12 CL   UNL     1       2.104   4.789  21.408  0.00  0.00    +0.000 Cl
ATOM     13  C   UNL     1       2.425   6.777  19.597  0.00  0.00    +0.000 A 
ATOM     14  C   UNL     1       1.526   7.783  20.194  0.00  0.00    +0.000 C 
ATOM     15  O   UNL     1       0.836   7.578  21.173  0.00  0.00    +0.000 OA
ENDROOT
BRANCH   1  16
ATOM     16  C   UNL     1       0.740  10.095  19.434  0.00  0.00    +0.000 C 
BRANCH  16  18
ATOM     17  O   UNL     1       1.789  12.092  20.384  0.00  0.00    +0.000 OA
ATOM     18  C   UNL     1       1.269  10.997  20.559  0.00  0.00    +0.000 C 
BRANCH  18  19
ATOM     19  O   UNL     1       1.107  10.480  21.801  0.00  0.00    +0.000 OA
ATOM     20  H   UNL     1       1.160  11.117  22.538  0.00  0.00    +0.000 HD
ENDBRANCH  18  19
ENDBRANCH  16  18
BRANCH  16  21
ATOM     21  C   UNL     1      -0.795   9.977  19.465  0.00  0.00    +0.000 C 
BRANCH  21  22
ATOM     22  C   UNL     1      -1.698  10.332  18.303  0.00  0.00    +0.000 A 
ATOM     23  C   UNL     1      -1.644   9.743  17.036  0.00  0.00    +0.000 A 
ATOM     24  C   UNL     1      -2.586  10.075  16.052  0.00  0.00    +0.000 A 
ATOM     25  C   UNL     1      -3.599  10.991  16.322  0.00  0.00    +0.000 A 
ATOM     26  C   UNL     1      -3.677  11.577  17.579  0.00  0.00    +0.000 A 
ATOM     27  C   UNL     1      -2.739  11.246  18.558  0.00  0.00    +0.000 A 
ENDBRANCH  21  22
ENDBRANCH  16  21
ENDBRANCH   1  16
TORSDOF 5
ENDMDL
MODEL 2
REMARK VINA RESULT:      -7.4      4.927      8.402
REMARK  Name = 
REMARK  5 active torsions:
REMARK  status: ('A' for Active; 'I' for Inactive)
REMARK    1  A    between atoms: C_2  and  O_3
REMARK    2  A    between atoms: C_2  and  C_4
REMARK    3  A    between atoms: C_4  and  C_5
REMARK    4  A    between atoms: C_4  and  N_12
REMARK    5  A    between atoms: C_5  and  C_6
REMARK                            x       y       z     vdW  Elec       q    Type
REMARK                         _______ _______ _______ _____ _____    ______ ____
ROOT
ATOM      1  N   UNL     1       5.113   4.606  16.651  0.00  0.00    +0.000 N 
ATOM      2  C   UNL     1       4.486   3.583  17.310  0.00  0.00    +0.000 C 
ATOM      3  O   UNL     1       4.445   2.414  16.977  0.00  0.00    +0.000 OA
ATOM      4  C   UNL     1       3.704   4.173  18.385  0.00  0.00    +0.000 A 
ATOM      5  C   UNL     1       3.039   3.576  19.440  0.00  0.00    +0.000 A 
ATOM      6 CL   UNL     1       3.247   1.892  19.760  0.00  0.00    +0.000 Cl
ATOM      7  C   UNL     1       2.229   4.396  20.243  0.00  0.00    +0.000 A 
ATOM      8 CL   UNL     1       1.373   3.700  21.590  0.00  0.00    +0.000 Cl
ATOM      9  C   UNL     1       2.103   5.781  19.950  0.00  0.00    +0.000 A 
ATOM     10 CL   UNL     1       1.010   6.762  20.887  0.00  0.00    +0.000 Cl
ATOM     11  C   UNL     1       2.837   6.363  18.893  0.00  0.00    +0.000 A 
ATOM     12 CL   UNL     1       2.695   8.041  18.511  0.00  0.00    +0.000 Cl
ATOM     13  C   UNL     1       3.656   5.536  18.141  0.00  0.00    +0.000 A 
ATOM     14  C   UNL     1       4.541   5.796  16.988  0.00  0.00    +0.000 C 
ATOM     15  O   UNL     1       4.623   6.868  16.425  0.00  0.00    +0.000 OA
ENDROOT
BRANCH   1  16
ATOM     16  C   UNL     1       5.956   4.274  15.495  0.00  0.00    +0.000 C 
BRANCH  16  18
ATOM     17  O   UNL     1       8.056   4.509  16.729  0.00  0.00    +0.000 OA
ATOM     18  C   UNL     1       7.376   4.799  15.752  0.00  0.00    +0.000 C 
BRANCH  18  19
ATOM     19  O   UNL     1       7.841   5.626  14.786  0.00  0.00    +0.000 OA
ATOM     20  H   UNL     1       8.682   5.364  14.367  0.00  0.00    +0.000 HD
ENDBRANCH  18  19
ENDBRANCH  16  18
BRANCH  16  21
ATOM     21  C   UNL     1       5.464   4.619  14.078  0.00  0.00    +0.000 C 
BRANCH  21  22
ATOM     22  C   UNL     1       5.625   3.708  12.878  0.00  0.00    +0.000 A 
ATOM     23  C   UNL     1       6.821   3.100  12.487  0.00  0.00    +0.000 A 
ATOM     24  C   UNL     1       6.849   2.199  11.415  0.00  0.00    +0.000 A 
ATOM     25  C   UNL     1       5.681   1.884  10.724  0.00  0.00    +0.000 A 
ATOM     26  C   UNL     1       4.480   2.469  11.105  0.00  0.00    +0.000 A 
ATOM     27  C   UNL     1       4.454   3.366  12.174  0.00  0.00    +0.000 A 
ENDBRANCH  21  22
ENDBRANCH  16  21
ENDBRANCH   1  16
TORSDOF 5
ENDMDL
MODEL 3
REMARK VINA RESULT:      -7.3      4.912      8.418
REMARK  Name = 
REMARK  5 active torsions:
REMARK  status: ('A' for Active; 'I' for Inactive)
REMARK    1  A    between atoms: C_2  and  O_3
REMARK    2  A    between atoms: C_2  and  C_4
REMARK    3  A    between atoms: C_4  and  C_5
REMARK    4  A    between atoms: C_4  and  N_12
REMARK    5  A    between atoms: C_5  and  C_6
REMARK                            x       y       z     vdW  Elec       q    Type
REMARK                         _______ _______ _______ _____ _____    ______ ____
ROOT
ATOM      1  N   UNL     1       5.160   4.699  16.508  0.00  0.00    +0.000 N 
ATOM      2  C   UNL     1       4.600   3.693  17.246  0.00  0.00    +0.000 C 
ATOM      3  O   UNL     1       4.577   2.508  16.971  0.00  0.00    +0.000 OA
ATOM      4  C   UNL     1       3.857   4.312  18.333  0.00  0.00    +0.000 A 
ATOM      5  C   UNL     1       3.266   3.747  19.449  0.00  0.00    +0.000 A 
ATOM      6 CL   UNL     1       3.541   2.087  19.835  0.00  0.00    +0.000 Cl
ATOM      7  C   UNL     1       2.475   4.582  20.255  0.00  0.00    +0.000 A 
ATOM      8 CL   UNL     1       1.712   3.928  21.676  0.00  0.00    +0.000 Cl
ATOM      9  C   UNL     1       2.292   5.947  19.905  0.00  0.00    +0.000 A 
ATOM     10 CL   UNL     1       1.220   6.941  20.853  0.00  0.00    +0.000 Cl
ATOM     11  C   UNL     1       2.952   6.498  18.785  0.00  0.00    +0.000 A 
ATOM     12 CL   UNL     1       2.740   8.151  18.333  0.00  0.00    +0.000 Cl
ATOM     13  C   UNL     1       3.756   5.659  18.029  0.00  0.00    +0.000 A 
ATOM     14  C   UNL     1       4.570   5.888  16.820  0.00  0.00    +0.000 C 
ATOM     15  O   UNL     1       4.590   6.934  16.204  0.00  0.00    +0.000 OA
ENDROOT
BRANCH   1  16
ATOM     16  C   UNL     1       5.951   4.336  15.326  0.00  0.00    +0.000 C 
BRANCH  16  18
ATOM     17  O   UNL     1       7.901   5.653  14.653  0.00  0.00    +0.000 OA
ATOM     18  C   UNL     1       7.363   4.922  15.476  0.00  0.00    +0.000 C 
BRANCH  18  19
ATOM     19  O   UNL     1       7.988   4.566  16.623  0.00  0.00    +0.000 OA
ATOM     20  H   UNL     1       8.959   4.489  16.574  0.00  0.00    +0.000 HD
ENDBRANCH  18  19
ENDBRANCH  16  18
BRANCH  16  21
ATOM     21  C   UNL     1       5.371   4.588  13.922  0.00  0.00    +0.000 C 
BRANCH  21  22
ATOM     22  C   UNL     1       5.386   3.570  12.801  0.00  0.00    +0.000 A 
ATOM     23  C   UNL     1       4.305   3.283  11.961  0.00  0.00    +0.000 A 
ATOM     24  C   UNL     1       4.447   2.390  10.892  0.00  0.00    +0.000 A 
ATOM     25  C   UNL     1       5.672   1.777  10.639  0.00  0.00    +0.000 A 
ATOM     26  C   UNL     1       6.761   2.058  11.454  0.00  0.00    +0.000 A 
ATOM     27  C   UNL     1       6.619   2.948  12.519  0.00  0.00    +0.000 A 
ENDBRANCH  21  22
ENDBRANCH  16  21
ENDBRANCH   1  16
TORSDOF 5
ENDMDL
MODEL 4
REMARK VINA RESULT:      -7.2      4.940      8.488
REMARK  Name = 
REMARK  5 active torsions:
REMARK  status: ('A' for Active; 'I' for Inactive)
REMARK    1  A    between atoms: C_2  and  O_3
REMARK    2  A    between atoms: C_2  and  C_4
REMARK    3  A    between atoms: C_4  and  C_5
REMARK    4  A    between atoms: C_4  and  N_12
REMARK    5  A    between atoms: C_5  and  C_6
REMARK                            x       y       z     vdW  Elec       q    Type
REMARK                         _______ _______ _______ _____ _____    ______ ____
ROOT
ATOM      1  N   UNL     1       4.981   4.521  16.189  0.00  0.00    +0.000 N 
ATOM      2  C   UNL     1       4.853   5.844  16.515  0.00  0.00    +0.000 C 
ATOM      3  O   UNL     1       5.561   6.761  16.145  0.00  0.00    +0.000 OA
ATOM      4  C   UNL     1       3.832   5.940  17.547  0.00  0.00    +0.000 A 
ATOM      5  C   UNL     1       3.205   7.050  18.085  0.00  0.00    +0.000 A 
ATOM      6 CL   UNL     1       3.434   8.608  17.378  0.00  0.00    +0.000 Cl
ATOM      7  C   UNL     1       2.363   6.845  19.190  0.00  0.00    +0.000 A 
ATOM      8 CL   UNL     1       1.541   8.203  19.904  0.00  0.00    +0.000 Cl
ATOM      9  C   UNL     1       2.192   5.540  19.725  0.00  0.00    +0.000 A 
ATOM     10 CL   UNL     1       1.232   5.319  21.162  0.00  0.00    +0.000 Cl
ATOM     11  C   UNL     1       2.811   4.425  19.118  0.00  0.00    +0.000 A 
ATOM     12 CL   UNL     1       2.627   2.831  19.754  0.00  0.00    +0.000 Cl
ATOM     13  C   UNL     1       3.608   4.653  18.007  0.00  0.00    +0.000 A 
ATOM     14  C   UNL     1       4.392   3.748  17.144  0.00  0.00    +0.000 C 
ATOM     15  O   UNL     1       4.531   2.561  17.357  0.00  0.00    +0.000 OA
ENDROOT
BRANCH   1  16
ATOM     16  C   UNL     1       5.977   4.149  15.176  0.00  0.00    +0.000 C 
BRANCH  16  18
ATOM     17  O   UNL     1       7.942   4.421  16.609  0.00  0.00    +0.000 OA
ATOM     18  C   UNL     1       7.340   4.725  15.587  0.00  0.00    +0.000 C 
BRANCH  18  19
ATOM     19  O   UNL     1       7.848   5.619  14.706  0.00  0.00    +0.000 OA
ATOM     20  H   UNL     1       7.608   5.481  13.770  0.00  0.00    +0.000 HD
ENDBRANCH  18  19
ENDBRANCH  16  18
BRANCH  16  21
ATOM     21  C   UNL     1       5.672   4.400  13.688  0.00  0.00    +0.000 C 
BRANCH  21  22
ATOM     22  C   UNL     1       6.059   3.455  12.570  0.00  0.00    +0.000 A 
ATOM     23  C   UNL     1       7.354   3.290  12.070  0.00  0.00    +0.000 A 
ATOM     24  C   UNL     1       7.628   2.321  11.096  0.00  0.00    +0.000 A 
ATOM     25  C   UNL     1       6.615   1.496  10.615  0.00  0.00    +0.000 A 
ATOM     26  C   UNL     1       5.324   1.635  11.108  0.00  0.00    +0.000 A 
ATOM     27  C   UNL     1       5.052   2.600  12.078  0.00  0.00    +0.000 A 
ENDBRANCH  21  22
ENDBRANCH  16  21
ENDBRANCH   1  16
TORSDOF 5
ENDMDL
MODEL 5
REMARK VINA RESULT:      -7.1      1.833      4.088
REMARK  Name = 
REMARK  5 active torsions:
REMARK  status: ('A' for Active; 'I' for Inactive)
REMARK    1  A    between atoms: C_2  and  O_3
REMARK    2  A    between atoms: C_2  and  C_4
REMARK    3  A    between atoms: C_4  and  C_5
REMARK    4  A    between atoms: C_4  and  N_12
REMARK    5  A    between atoms: C_5  and  C_6
REMARK                            x       y       z     vdW  Elec       q    Type
REMARK                         _______ _______ _______ _____ _____    ______ ____
ROOT
ATOM      1  N   UNL     1       1.462   8.379  19.192  0.00  0.00    +0.000 N 
ATOM      2  C   UNL     1       1.711   7.408  20.123  0.00  0.00    +0.000 C 
ATOM      3  O   UNL     1       1.414   7.432  21.303  0.00  0.00    +0.000 OA
ATOM      4  C   UNL     1       2.572   6.416  19.499  0.00  0.00    +0.000 A 
ATOM      5  C   UNL     1       2.962   5.165  19.941  0.00  0.00    +0.000 A 
ATOM      6 CL   UNL     1       2.235   4.469  21.343  0.00  0.00    +0.000 Cl
ATOM      7  C   UNL     1       3.935   4.487  19.188  0.00  0.00    +0.000 A 
ATOM      8 CL   UNL     1       4.461   2.905  19.691  0.00  0.00    +0.000 Cl
ATOM      9  C   UNL     1       4.492   5.093  18.030  0.00  0.00    +0.000 A 
ATOM     10 CL   UNL     1       5.776   4.288  17.170  0.00  0.00    +0.000 Cl
ATOM     11  C   UNL     1       4.032   6.352  17.583  0.00  0.00    +0.000 A 
ATOM     12 CL   UNL     1       4.698   7.115  16.185  0.00  0.00    +0.000 Cl
ATOM     13  C   UNL     1       3.045   6.981  18.326  0.00  0.00    +0.000 A 
ATOM     14  C   UNL     1       2.349   8.272  18.162  0.00  0.00    +0.000 C 
ATOM     15  O   UNL     1       2.629   9.090  17.309  0.00  0.00    +0.000 OA
ENDROOT
BRANCH   1  16
ATOM     16  C   UNL     1       0.628   9.521  19.584  0.00  0.00    +0.000 C 
BRANCH  16  18
ATOM     17  O   UNL     1      -0.816   9.786  17.626  0.00  0.00    +0.000 OA
ATOM     18  C   UNL     1       0.103  10.209  18.315  0.00  0.00    +0.000 C 
BRANCH  18  19
ATOM     19  O   UNL     1       0.748  11.360  18.006  0.00  0.00    +0.000 OA
ATOM     20  H   UNL     1       1.682  11.268  17.741  0.00  0.00    +0.000 HD
ENDBRANCH  18  19
ENDBRANCH  16  18
BRANCH  16  21
ATOM     21  C   UNL     1       1.168  10.537  20.607  0.00  0.00    +0.000 C 
BRANCH  21  22
ATOM     22  C   UNL     1       0.292  11.393  21.498  0.00  0.00    +0.000 A 
ATOM     23  C   UNL     1       0.211  12.788  21.442  0.00  0.00    +0.000 A 
ATOM     24  C   UNL     1      -0.700  13.485  22.247  0.00  0.00    +0.000 A 
ATOM     25  C   UNL     1      -1.550  12.799  23.110  0.00  0.00    +0.000 A 
ATOM     26  C   UNL     1      -1.494  11.413  23.171  0.00  0.00    +0.000 A 
ATOM     27  C   UNL     1      -0.587  10.719  22.369  0.00  0.00    +0.000 A 
ENDBRANCH  21  22
ENDBRANCH  16  21
ENDBRANCH   1  16
TORSDOF 5
ENDMDL
MODEL 6
REMARK VINA RESULT:      -6.8      1.919      2.471
REMARK  Name = 
REMARK  5 active torsions:
REMARK  status: ('A' for Active; 'I' for Inactive)
REMARK    1  A    between atoms: C_2  and  O_3
REMARK    2  A    between atoms: C_2  and  C_4
REMARK    3  A    between atoms: C_4  and  C_5
REMARK    4  A    between atoms: C_4  and  N_12
REMARK    5  A    between atoms: C_5  and  C_6
REMARK                            x       y       z     vdW  Elec       q    Type
REMARK                         _______ _______ _______ _____ _____    ______ ____
ROOT
ATOM      1  N   UNL     1       2.048   7.755  19.713  0.00  0.00    +0.000 N 
ATOM      2  C   UNL     1       2.681   7.690  18.502  0.00  0.00    +0.000 C 
ATOM      3  O   UNL     1       2.704   8.549  17.641  0.00  0.00    +0.000 OA
ATOM      4  C   UNL     1       3.165   6.328  18.336  0.00  0.00    +0.000 A 
ATOM      5  C   UNL     1       4.012   5.789  17.385  0.00  0.00    +0.000 A 
ATOM      6 CL   UNL     1       4.851   6.818  16.281  0.00  0.00    +0.000 Cl
ATOM      7  C   UNL     1       4.180   4.395  17.384  0.00  0.00    +0.000 A 
ATOM      8 CL   UNL     1       5.241   3.660  16.215  0.00  0.00    +0.000 Cl
ATOM      9  C   UNL     1       3.482   3.591  18.325  0.00  0.00    +0.000 A 
ATOM     10 CL   UNL     1       3.615   1.856  18.241  0.00  0.00    +0.000 Cl
ATOM     11  C   UNL     1       2.663   4.184  19.312  0.00  0.00    +0.000 A 
ATOM     12 CL   UNL     1       1.797   3.229  20.460  0.00  0.00    +0.000 Cl
ATOM     13  C   UNL     1       2.545   5.564  19.311  0.00  0.00    +0.000 A 
ATOM     14  C   UNL     1       1.790   6.498  20.170  0.00  0.00    +0.000 C 
ATOM     15  O   UNL     1       1.021   6.145  21.041  0.00  0.00    +0.000 OA
ENDROOT
BRANCH   1  16
ATOM     16  C   UNL     1       1.442   9.031  20.113  0.00  0.00    +0.000 C 
BRANCH  16  18
ATOM     17  O   UNL     1       1.824   9.196  22.524  0.00  0.00    +0.000 OA
ATOM     18  C   UNL     1       1.060   8.953  21.598  0.00  0.00    +0.000 C 
BRANCH  18  19
ATOM     19  O   UNL     1      -0.226   8.591  21.818  0.00  0.00    +0.000 OA
ATOM     20  H   UNL     1      -0.448   8.338  22.734  0.00  0.00    +0.000 HD
ENDBRANCH  18  19
ENDBRANCH  16  18
BRANCH  16  21
ATOM     21  C   UNL     1       0.310   9.631  19.259  0.00  0.00    +0.000 C 
BRANCH  21  22
ATOM     22  C   UNL     1       0.144  11.112  18.988  0.00  0.00    +0.000 A 
ATOM     23  C   UNL     1      -1.063  11.813  19.071  0.00  0.00    +0.000 A 
ATOM     24  C   UNL     1      -1.098  13.202  18.892  0.00  0.00    +0.000 A 
ATOM     25  C   UNL     1       0.073  13.913  18.638  0.00  0.00    +0.000 A 
ATOM     26  C   UNL     1       1.283  13.236  18.564  0.00  0.00    +0.000 A 
ATOM     27  C   UNL     1       1.317  11.853  18.743  0.00  0.00    +0.000 A 
ENDBRANCH  21  22
ENDBRANCH  16  21
ENDBRANCH   1  16
TORSDOF 5
ENDMDL
MODEL 7
REMARK VINA RESULT:      -6.8      1.978      2.469
REMARK  Name = 
REMARK  5 active torsions:
REMARK  status: ('A' for Active; 'I' for Inactive)
REMARK    1  A    between atoms: C_2  and  O_3
REMARK    2  A    between atoms: C_2  and  C_4
REMARK    3  A    between atoms: C_4  and  C_5
REMARK    4  A    between atoms: C_4  and  N_12
REMARK    5  A    between atoms: C_5  and  C_6
REMARK                            x       y       z     vdW  Elec       q    Type
REMARK                         _______ _______ _______ _____ _____    ______ ____
ROOT
ATOM      1  N   UNL     1       2.208   7.576  19.476  0.00  0.00    +0.000 N 
ATOM      2  C   UNL     1       2.841   7.527  18.264  0.00  0.00    +0.000 C 
ATOM      3  O   UNL     1       2.855   8.392  17.410  0.00  0.00    +0.000 OA
ATOM      4  C   UNL     1       3.340   6.171  18.089  0.00  0.00    +0.000 A 
ATOM      5  C   UNL     1       4.194   5.649  17.134  0.00  0.00    +0.000 A 
ATOM      6 CL   UNL     1       5.021   6.695  16.037  0.00  0.00    +0.000 Cl
ATOM      7  C   UNL     1       4.377   4.257  17.123  0.00  0.00    +0.000 A 
ATOM      8 CL   UNL     1       5.445   3.542  15.948  0.00  0.00    +0.000 Cl
ATOM      9  C   UNL     1       3.688   3.438  18.057  0.00  0.00    +0.000 A 
ATOM     10 CL   UNL     1       3.840   1.705  17.960  0.00  0.00    +0.000 Cl
ATOM     11  C   UNL     1       2.862   4.014  19.049  0.00  0.00    +0.000 A 
ATOM     12 CL   UNL     1       2.006   3.041  20.190  0.00  0.00    +0.000 Cl
ATOM     13  C   UNL     1       2.729   5.393  19.058  0.00  0.00    +0.000 A 
ATOM     14  C   UNL     1       1.964   6.312  19.924  0.00  0.00    +0.000 C 
ATOM     15  O   UNL     1       1.198   5.945  20.792  0.00  0.00    +0.000 OA
ENDROOT
BRANCH   1  16
ATOM     16  C   UNL     1       1.588   8.842  19.885  0.00  0.00    +0.000 C 
BRANCH  16  18
ATOM     17  O   UNL     1      -0.196   8.609  21.544  0.00  0.00    +0.000 OA
ATOM     18  C   UNL     1       1.001   8.673  21.294  0.00  0.00    +0.000 C 
BRANCH  18  19
ATOM     19  O   UNL     1       1.933   8.589  22.273  0.00  0.00    +0.000 OA
ATOM     20  H   UNL     1       2.860   8.511  21.976  0.00  0.00    +0.000 HD
ENDBRANCH  18  19
ENDBRANCH  16  18
BRANCH  16  21
ATOM     21  C   UNL     1       0.603   9.544  18.933  0.00  0.00    +0.000 C 
BRANCH  21  22
ATOM     22  C   UNL     1       0.390  11.043  18.886  0.00  0.00    +0.000 A 
ATOM     23  C   UNL     1       1.395  11.990  18.662  0.00  0.00    +0.000 A 
ATOM     24  C   UNL     1       1.082  13.350  18.544  0.00  0.00    +0.000 A 
ATOM     25  C   UNL     1      -0.239  13.784  18.636  0.00  0.00    +0.000 A 
ATOM     26  C   UNL     1      -1.252  12.857  18.846  0.00  0.00    +0.000 A 
ATOM     27  C   UNL     1      -0.940  11.503  18.963  0.00  0.00    +0.000 A 
ENDBRANCH  21  22
ENDBRANCH  16  21
ENDBRANCH   1  16
TORSDOF 5
ENDMDL
MODEL 8
REMARK VINA RESULT:      -6.8      4.688      7.953
REMARK  Name = 
REMARK  5 active torsions:
REMARK  status: ('A' for Active; 'I' for Inactive)
REMARK    1  A    between atoms: C_2  and  O_3
REMARK    2  A    between atoms: C_2  and  C_4
REMARK    3  A    between atoms: C_4  and  C_5
REMARK    4  A    between atoms: C_4  and  N_12
REMARK    5  A    between atoms: C_5  and  C_6
REMARK                            x       y       z     vdW  Elec       q    Type
REMARK                         _______ _______ _______ _____ _____    ______ ____
ROOT
ATOM      1  N   UNL     1      -0.044  11.496  19.414  0.00  0.00    +0.000 N 
ATOM      2  C   UNL     1      -0.254  11.740  20.743  0.00  0.00    +0.000 C 
ATOM      3  O   UNL     1       0.478  11.441  21.667  0.00  0.00    +0.000 OA
ATOM      4  C   UNL     1      -1.609  12.251  20.883  0.00  0.00    +0.000 A 
ATOM      5  C   UNL     1      -2.246  12.812  21.975  0.00  0.00    +0.000 A 
ATOM      6 CL   UNL     1      -1.352  13.204  23.399  0.00  0.00    +0.000 Cl
ATOM      7  C   UNL     1      -3.621  13.074  21.858  0.00  0.00    +0.000 A 
ATOM      8 CL   UNL     1      -4.474  13.787  23.198  0.00  0.00    +0.000 Cl
ATOM      9  C   UNL     1      -4.310  12.750  20.659  0.00  0.00    +0.000 A 
ATOM     10 CL   UNL     1      -6.035  12.979  20.569  0.00  0.00    +0.000 Cl
ATOM     11  C   UNL     1      -3.615  12.223  19.548  0.00  0.00    +0.000 A 
ATOM     12 CL   UNL     1      -4.430  11.813  18.082  0.00  0.00    +0.000 Cl
ATOM     13  C   UNL     1      -2.252  12.009  19.680  0.00  0.00    +0.000 A 
ATOM     14  C   UNL     1      -1.235  11.480  18.750  0.00  0.00    +0.000 C 
ATOM     15  O   UNL     1      -1.489  11.034  17.650  0.00  0.00    +0.000 OA
ENDROOT
BRANCH   1  16
ATOM     16  C   UNL     1       1.254  10.945  19.005  0.00  0.00    +0.000 C 
BRANCH  16  18
ATOM     17  O   UNL     1       2.305  13.154  18.925  0.00  0.00    +0.000 OA
ATOM     18  C   UNL     1       2.097  12.072  18.390  0.00  0.00    +0.000 C 
BRANCH  18  19
ATOM     19  O   UNL     1       2.618  11.771  17.177  0.00  0.00    +0.000 OA
ATOM     20  H   UNL     1       3.512  12.118  16.997  0.00  0.00    +0.000 HD
ENDBRANCH  18  19
ENDBRANCH  16  18
BRANCH  16  21
ATOM     21  C   UNL     1       1.298   9.664  18.152  0.00  0.00    +0.000 C 
BRANCH  21  22
ATOM     22  C   UNL     1       2.057   8.412  18.539  0.00  0.00    +0.000 A 
ATOM     23  C   UNL     1       1.852   7.679  19.712  0.00  0.00    +0.000 A 
ATOM     24  C   UNL     1       2.541   6.480  19.937  0.00  0.00    +0.000 A 
ATOM     25  C   UNL     1       3.437   5.991  18.989  0.00  0.00    +0.000 A 
ATOM     26  C   UNL     1       3.645   6.698  17.812  0.00  0.00    +0.000 A 
ATOM     27  C   UNL     1       2.958   7.892  17.589  0.00  0.00    +0.000 A 
ENDBRANCH  21  22
ENDBRANCH  16  21
ENDBRANCH   1  16
TORSDOF 5
ENDMDL
MODEL 9
REMARK VINA RESULT:      -6.7      4.859      8.226
REMARK  Name = 
REMARK  5 active torsions:
REMARK  status: ('A' for Active; 'I' for Inactive)
REMARK    1  A    between atoms: C_2  and  O_3
REMARK    2  A    between atoms: C_2  and  C_4
REMARK    3  A    between atoms: C_4  and  C_5
REMARK    4  A    between atoms: C_4  and  N_12
REMARK    5  A    between atoms: C_5  and  C_6
REMARK                            x       y       z     vdW  Elec       q    Type
REMARK                         _______ _______ _______ _____ _____    ______ ____
ROOT
ATOM      1  N   UNL     1       4.993   4.526  16.168  0.00  0.00    +0.000 N 
ATOM      2  C   UNL     1       4.821   5.837  16.521  0.00  0.00    +0.000 C 
ATOM      3  O   UNL     1       5.475   6.789  16.141  0.00  0.00    +0.000 OA
ATOM      4  C   UNL     1       3.837   5.874  17.591  0.00  0.00    +0.000 A 
ATOM      5  C   UNL     1       3.183   6.947  18.170  0.00  0.00    +0.000 A 
ATOM      6 CL   UNL     1       3.319   8.524  17.482  0.00  0.00    +0.000 Cl
ATOM      7  C   UNL     1       2.392   6.690  19.301  0.00  0.00    +0.000 A 
ATOM      8 CL   UNL     1       1.540   8.000  20.068  0.00  0.00    +0.000 Cl
ATOM      9  C   UNL     1       2.297   5.370  19.821  0.00  0.00    +0.000 A 
ATOM     10 CL   UNL     1       1.401   5.086  21.288  0.00  0.00    +0.000 Cl
ATOM     11  C   UNL     1       2.940   4.292  19.173  0.00  0.00    +0.000 A 
ATOM     12 CL   UNL     1       2.848   2.682  19.789  0.00  0.00    +0.000 Cl
ATOM     13  C   UNL     1       3.684   4.571  18.037  0.00  0.00    +0.000 A 
ATOM     14  C   UNL     1       4.474   3.714  17.132  0.00  0.00    +0.000 C 
ATOM     15  O   UNL     1       4.671   2.530  17.319  0.00  0.00    +0.000 OA
ENDROOT
BRANCH   1  16
ATOM     16  C   UNL     1       5.965   4.212  15.114  0.00  0.00    +0.000 C 
BRANCH  16  18
ATOM     17  O   UNL     1       7.924   4.418  16.566  0.00  0.00    +0.000 OA
ATOM     18  C   UNL     1       7.343   4.742  15.537  0.00  0.00    +0.000 C 
BRANCH  18  19
ATOM     19  O   UNL     1       7.891   5.617  14.661  0.00  0.00    +0.000 OA
ATOM     20  H   UNL     1       7.268   6.224  14.217  0.00  0.00    +0.000 HD
ENDBRANCH  18  19
ENDBRANCH  16  18
BRANCH  16  21
ATOM     21  C   UNL     1       5.637   4.569  13.653  0.00  0.00    +0.000 C 
BRANCH  21  22
ATOM     22  C   UNL     1       5.357   3.547  12.571  0.00  0.00    +0.000 A 
ATOM     23  C   UNL     1       4.205   3.511  11.779  0.00  0.00    +0.000 A 
ATOM     24  C   UNL     1       4.080   2.580  10.740  0.00  0.00    +0.000 A 
ATOM     25  C   UNL     1       5.107   1.679  10.469  0.00  0.00    +0.000 A 
ATOM     26  C   UNL     1       6.264   1.707  11.236  0.00  0.00    +0.000 A 
ATOM     27  C   UNL     1       6.388   2.635  12.271  0.00  0.00    +0.000 A 
ENDBRANCH  21  22
ENDBRANCH  16  21
ENDBRANCH   1  16
TORSDOF 5
ENDMDL
