MODEL 1
REMARK VINA RESULT:      -7.8      0.000      0.000
REMARK  Name = 
REMARK  1 active torsions:
REMARK  status: ('A' for Active; 'I' for Inactive)
REMARK    1  A    between atoms: C_1  and  N_2
REMARK                            x       y       z     vdW  Elec       q    Type
REMARK                         _______ _______ _______ _____ _____    ______ ____
ROOT
ATOM      1  C   UNL     1       1.372   3.033  21.133  0.00  0.00    +0.000 C 
ATOM      2  N   UNL     1       2.103   3.614  19.995  0.00  0.00    +0.000 NA
ATOM      3  C   UNL     1       3.019   2.544  19.451  0.00  0.00    +0.000 C 
ATOM      4  C   UNL     1       4.499   2.972  19.457  0.00  0.00    +0.000 C 
ATOM      5  C   UNL     1       4.495   4.200  18.622  0.00  0.00    +0.000 A 
ATOM      6  C   UNL     1       5.240   4.277  17.445  0.00  0.00    +0.000 A 
ATOM      7  C   UNL     1       5.080   5.368  16.608  0.00  0.00    +0.000 A 
ATOM      8  C   UNL     1       4.198   6.393  16.954  0.00  0.00    +0.000 A 
ATOM      9  C   UNL     1       3.453   6.356  18.159  0.00  0.00    +0.000 A 
ATOM     10  C   UNL     1       3.606   5.225  18.987  0.00  0.00    +0.000 A 
ATOM     11  C   UNL     1       2.793   4.943  20.237  0.00  0.00    +0.000 C 
ATOM     12  C   UNL     1       1.884   6.141  20.679  0.00  0.00    +0.000 C 
ATOM     13  C   UNL     1       1.863   7.378  19.788  0.00  0.00    +0.000 A 
ATOM     14  C   UNL     1       1.118   8.507  20.226  0.00  0.00    +0.000 A 
ATOM     15  C   UNL     1       1.061   9.680  19.461  0.00  0.00    +0.000 A 
ATOM     16  C   UNL     1       1.708   9.738  18.234  0.00  0.00    +0.000 A 
ATOM     17  C   UNL     1       2.448   8.648  17.790  0.00  0.00    +0.000 A 
ATOM     18  C   UNL     1       2.556   7.461  18.566  0.00  0.00    +0.000 A 
ENDROOT
TORSDOF 0
ENDMDL
MODEL 2
REMARK VINA RESULT:      -7.5      1.341      3.392
REMARK  Name = 
REMARK  1 active torsions:
REMARK  status: ('A' for Active; 'I' for Inactive)
REMARK    1  A    between atoms: C_1  and  N_2
REMARK                            x       y       z     vdW  Elec       q    Type
REMARK                         _______ _______ _______ _____ _____    ______ ____
ROOT
ATOM      1  C   UNL     1       5.697   6.199  16.530  0.00  0.00    +0.000 C 
ATOM      2  N   UNL     1       4.964   5.715  17.710  0.00  0.00    +0.000 NA
ATOM      3  C   UNL     1       5.329   4.263  17.907  0.00  0.00    +0.000 C 
ATOM      4  C   UNL     1       4.100   3.334  17.884  0.00  0.00    +0.000 C 
ATOM      5  C   UNL     1       3.258   3.866  18.986  0.00  0.00    +0.000 A 
ATOM      6  C   UNL     1       2.917   3.075  20.082  0.00  0.00    +0.000 A 
ATOM      7  C   UNL     1       2.278   3.652  21.167  0.00  0.00    +0.000 A 
ATOM      8  C   UNL     1       1.956   5.009  21.148  0.00  0.00    +0.000 A 
ATOM      9  C   UNL     1       2.261   5.830  20.034  0.00  0.00    +0.000 A 
ATOM     10  C   UNL     1       2.938   5.234  18.950  0.00  0.00    +0.000 A 
ATOM     11  C   UNL     1       3.470   5.977  17.739  0.00  0.00    +0.000 C 
ATOM     12  C   UNL     1       3.015   7.476  17.672  0.00  0.00    +0.000 C 
ATOM     13  C   UNL     1       2.185   8.015  18.831  0.00  0.00    +0.000 A 
ATOM     14  C   UNL     1       1.686   9.343  18.738  0.00  0.00    +0.000 A 
ATOM     15  C   UNL     1       0.909   9.899  19.763  0.00  0.00    +0.000 A 
ATOM     16  C   UNL     1       0.650   9.164  20.912  0.00  0.00    +0.000 A 
ATOM     17  C   UNL     1       1.123   7.861  21.021  0.00  0.00    +0.000 A 
ATOM     18  C   UNL     1       1.877   7.258  19.977  0.00  0.00    +0.000 A 
ENDROOT
TORSDOF 0
ENDMDL
MODEL 3
REMARK VINA RESULT:      -7.4      1.521      4.211
REMARK  Name = 
REMARK  1 active torsions:
REMARK  status: ('A' for Active; 'I' for Inactive)
REMARK    1  A    between atoms: C_1  and  N_2
REMARK                            x       y       z     vdW  Elec       q    Type
REMARK                         _______ _______ _______ _____ _____    ______ ____
ROOT
ATOM      1  C   UNL     1       4.277   1.131  20.089  0.00  0.00    +0.000 C 
ATOM      2  N   UNL     1       3.878   2.547  20.097  0.00  0.00    +0.000 NA
ATOM      3  C   UNL     1       3.000   2.765  21.307  0.00  0.00    +0.000 C 
ATOM      4  C   UNL     1       1.607   3.308  20.939  0.00  0.00    +0.000 C 
ATOM      5  C   UNL     1       1.919   4.572  20.225  0.00  0.00    +0.000 A 
ATOM      6  C   UNL     1       1.464   5.803  20.700  0.00  0.00    +0.000 A 
ATOM      7  C   UNL     1       1.914   6.970  20.107  0.00  0.00    +0.000 A 
ATOM      8  C   UNL     1       2.797   6.912  19.028  0.00  0.00    +0.000 A 
ATOM      9  C   UNL     1       3.250   5.676  18.505  0.00  0.00    +0.000 A 
ATOM     10  C   UNL     1       2.805   4.496  19.137  0.00  0.00    +0.000 A 
ATOM     11  C   UNL     1       3.289   3.096  18.811  0.00  0.00    +0.000 C 
ATOM     12  C   UNL     1       4.195   3.026  17.534  0.00  0.00    +0.000 C 
ATOM     13  C   UNL     1       4.537   4.338  16.837  0.00  0.00    +0.000 A 
ATOM     14  C   UNL     1       5.277   4.280  15.624  0.00  0.00    +0.000 A 
ATOM     15  C   UNL     1       5.619   5.446  14.927  0.00  0.00    +0.000 A 
ATOM     16  C   UNL     1       5.268   6.688  15.441  0.00  0.00    +0.000 A 
ATOM     17  C   UNL     1       4.539   6.767  16.621  0.00  0.00    +0.000 A 
ATOM     18  C   UNL     1       4.142   5.598  17.326  0.00  0.00    +0.000 A 
ENDROOT
TORSDOF 0
ENDMDL
MODEL 4
REMARK VINA RESULT:      -7.4      1.661      4.857
REMARK  Name = 
REMARK  1 active torsions:
REMARK  status: ('A' for Active; 'I' for Inactive)
REMARK    1  A    between atoms: C_1  and  N_2
REMARK                            x       y       z     vdW  Elec       q    Type
REMARK                         _______ _______ _______ _____ _____    ______ ____
ROOT
ATOM      1  C   UNL     1       6.147   3.637  15.893  0.00  0.00    +0.000 C 
ATOM      2  N   UNL     1       5.117   4.559  16.397  0.00  0.00    +0.000 NA
ATOM      3  C   UNL     1       5.217   5.834  15.593  0.00  0.00    +0.000 C 
ATOM      4  C   UNL     1       5.471   7.072  16.475  0.00  0.00    +0.000 C 
ATOM      5  C   UNL     1       4.309   7.068  17.399  0.00  0.00    +0.000 A 
ATOM      6  C   UNL     1       3.413   8.137  17.437  0.00  0.00    +0.000 A 
ATOM      7  C   UNL     1       2.252   8.026  18.184  0.00  0.00    +0.000 A 
ATOM      8  C   UNL     1       1.995   6.862  18.910  0.00  0.00    +0.000 A 
ATOM      9  C   UNL     1       2.904   5.774  18.915  0.00  0.00    +0.000 A 
ATOM     10  C   UNL     1       4.068   5.891  18.128  0.00  0.00    +0.000 A 
ATOM     11  C   UNL     1       5.079   4.785  17.897  0.00  0.00    +0.000 C 
ATOM     12  C   UNL     1       4.846   3.522  18.795  0.00  0.00    +0.000 C 
ATOM     13  C   UNL     1       3.625   3.521  19.708  0.00  0.00    +0.000 A 
ATOM     14  C   UNL     1       3.454   2.424  20.597  0.00  0.00    +0.000 A 
ATOM     15  C   UNL     1       2.359   2.362  21.469  0.00  0.00    +0.000 A 
ATOM     16  C   UNL     1       1.398   3.364  21.446  0.00  0.00    +0.000 A 
ATOM     17  C   UNL     1       1.549   4.448  20.590  0.00  0.00    +0.000 A 
ATOM     18  C   UNL     1       2.672   4.557  19.725  0.00  0.00    +0.000 A 
ENDROOT
TORSDOF 0
ENDMDL
MODEL 5
REMARK VINA RESULT:      -7.3      1.511      4.702
REMARK  Name = 
REMARK  1 active torsions:
REMARK  status: ('A' for Active; 'I' for Inactive)
REMARK    1  A    between atoms: C_1  and  N_2
REMARK                            x       y       z     vdW  Elec       q    Type
REMARK                         _______ _______ _______ _____ _____    ______ ____
ROOT
ATOM      1  C   UNL     1       2.104   7.745  19.782  0.00  0.00    +0.000 C 
ATOM      2  N   UNL     1       2.219   6.322  19.429  0.00  0.00    +0.000 NA
ATOM      3  C   UNL     1       1.427   5.535  20.446  0.00  0.00    +0.000 C 
ATOM      4  C   UNL     1       2.285   4.492  21.187  0.00  0.00    +0.000 C 
ATOM      5  C   UNL     1       2.803   3.642  20.084  0.00  0.00    +0.000 A 
ATOM      6  C   UNL     1       2.511   2.279  20.025  0.00  0.00    +0.000 A 
ATOM      7  C   UNL     1       2.866   1.555  18.898  0.00  0.00    +0.000 A 
ATOM      8  C   UNL     1       3.531   2.183  17.844  0.00  0.00    +0.000 A 
ATOM      9  C   UNL     1       3.868   3.558  17.892  0.00  0.00    +0.000 A 
ATOM     10  C   UNL     1       3.475   4.288  19.033  0.00  0.00    +0.000 A 
ATOM     11  C   UNL     1       3.621   5.788  19.202  0.00  0.00    +0.000 C 
ATOM     12  C   UNL     1       4.461   6.469  18.068  0.00  0.00    +0.000 C 
ATOM     13  C   UNL     1       4.950   5.588  16.924  0.00  0.00    +0.000 A 
ATOM     14  C   UNL     1       5.793   6.173  15.939  0.00  0.00    +0.000 A 
ATOM     15  C   UNL     1       6.285   5.419  14.866  0.00  0.00    +0.000 A 
ATOM     16  C   UNL     1       5.918   4.087  14.729  0.00  0.00    +0.000 A 
ATOM     17  C   UNL     1       5.101   3.493  15.684  0.00  0.00    +0.000 A 
ATOM     18  C   UNL     1       4.622   4.224  16.806  0.00  0.00    +0.000 A 
ENDROOT
TORSDOF 0
ENDMDL
MODEL 6
REMARK VINA RESULT:      -7.3      1.390      4.544
REMARK  Name = 
REMARK  1 active torsions:
REMARK  status: ('A' for Active; 'I' for Inactive)
REMARK    1  A    between atoms: C_1  and  N_2
REMARK                            x       y       z     vdW  Elec       q    Type
REMARK                         _______ _______ _______ _____ _____    ______ ____
ROOT
ATOM      1  C   UNL     1       3.513   2.223  20.719  0.00  0.00    +0.000 C 
ATOM      2  N   UNL     1       3.478   3.596  20.192  0.00  0.00    +0.000 NA
ATOM      3  C   UNL     1       2.611   4.415  21.118  0.00  0.00    +0.000 C 
ATOM      4  C   UNL     1       1.420   5.069  20.391  0.00  0.00    +0.000 C 
ATOM      5  C   UNL     1       2.078   5.893  19.345  0.00  0.00    +0.000 A 
ATOM      6  C   UNL     1       1.914   7.278  19.307  0.00  0.00    +0.000 A 
ATOM      7  C   UNL     1       2.675   8.030  18.427  0.00  0.00    +0.000 A 
ATOM      8  C   UNL     1       3.579   7.402  17.570  0.00  0.00    +0.000 A 
ATOM      9  C   UNL     1       3.743   5.994  17.565  0.00  0.00    +0.000 A 
ATOM     10  C   UNL     1       2.982   5.245  18.486  0.00  0.00    +0.000 A 
ATOM     11  C   UNL     1       3.122   3.753  18.725  0.00  0.00    +0.000 C 
ATOM     12  C   UNL     1       4.058   3.037  17.691  0.00  0.00    +0.000 C 
ATOM     13  C   UNL     1       4.756   3.905  16.650  0.00  0.00    +0.000 A 
ATOM     14  C   UNL     1       5.531   3.258  15.649  0.00  0.00    +0.000 A 
ATOM     15  C   UNL     1       6.193   3.994  14.657  0.00  0.00    +0.000 A 
ATOM     16  C   UNL     1       6.130   5.381  14.665  0.00  0.00    +0.000 A 
ATOM     17  C   UNL     1       5.373   6.033  15.632  0.00  0.00    +0.000 A 
ATOM     18  C   UNL     1       4.657   5.309  16.624  0.00  0.00    +0.000 A 
ENDROOT
TORSDOF 0
ENDMDL
MODEL 7
REMARK VINA RESULT:      -7.2      1.338      3.481
REMARK  Name = 
REMARK  1 active torsions:
REMARK  status: ('A' for Active; 'I' for Inactive)
REMARK    1  A    between atoms: C_1  and  N_2
REMARK                            x       y       z     vdW  Elec       q    Type
REMARK                         _______ _______ _______ _____ _____    ______ ____
ROOT
ATOM      1  C   UNL     1       5.163   4.562  16.378  0.00  0.00    +0.000 C 
ATOM      2  N   UNL     1       4.394   4.263  17.596  0.00  0.00    +0.000 NA
ATOM      3  C   UNL     1       4.437   2.768  17.805  0.00  0.00    +0.000 C 
ATOM      4  C   UNL     1       3.034   2.136  17.848  0.00  0.00    +0.000 C 
ATOM      5  C   UNL     1       2.379   2.851  18.974  0.00  0.00    +0.000 A 
ATOM      6  C   UNL     1       1.921   2.164  20.098  0.00  0.00    +0.000 A 
ATOM      7  C   UNL     1       1.473   2.879  21.197  0.00  0.00    +0.000 A 
ATOM      8  C   UNL     1       1.459   4.274  21.167  0.00  0.00    +0.000 A 
ATOM      9  C   UNL     1       1.889   4.996  20.026  0.00  0.00    +0.000 A 
ATOM     10  C   UNL     1       2.368   4.255  18.926  0.00  0.00    +0.000 A 
ATOM     11  C   UNL     1       2.998   4.851  17.681  0.00  0.00    +0.000 C 
ATOM     12  C   UNL     1       2.883   6.412  17.604  0.00  0.00    +0.000 C 
ATOM     13  C   UNL     1       2.245   7.133  18.787  0.00  0.00    +0.000 A 
ATOM     14  C   UNL     1       2.048   8.538  18.689  0.00  0.00    +0.000 A 
ATOM     15  C   UNL     1       1.460   9.261  19.735  0.00  0.00    +0.000 A 
ATOM     16  C   UNL     1       1.095   8.613  20.907  0.00  0.00    +0.000 A 
ATOM     17  C   UNL     1       1.272   7.238  21.021  0.00  0.00    +0.000 A 
ATOM     18  C   UNL     1       1.828   6.474  19.959  0.00  0.00    +0.000 A 
ENDROOT
TORSDOF 0
ENDMDL
MODEL 8
REMARK VINA RESULT:      -6.9      2.030      5.072
REMARK  Name = 
REMARK  1 active torsions:
REMARK  status: ('A' for Active; 'I' for Inactive)
REMARK    1  A    between atoms: C_1  and  N_2
REMARK                            x       y       z     vdW  Elec       q    Type
REMARK                         _______ _______ _______ _____ _____    ______ ____
ROOT
ATOM      1  C   UNL     1       6.097   3.635  14.980  0.00  0.00    +0.000 C 
ATOM      2  N   UNL     1       5.165   4.578  15.619  0.00  0.00    +0.000 NA
ATOM      3  C   UNL     1       5.564   5.971  15.192  0.00  0.00    +0.000 C 
ATOM      4  C   UNL     1       5.891   6.886  16.387  0.00  0.00    +0.000 C 
ATOM      5  C   UNL     1       4.632   6.869  17.175  0.00  0.00    +0.000 A 
ATOM      6  C   UNL     1       3.914   8.040  17.418  0.00  0.00    +0.000 A 
ATOM      7  C   UNL     1       2.663   7.963  18.007  0.00  0.00    +0.000 A 
ATOM      8  C   UNL     1       2.139   6.724  18.376  0.00  0.00    +0.000 A 
ATOM      9  C   UNL     1       2.860   5.521  18.171  0.00  0.00    +0.000 A 
ATOM     10  C   UNL     1       4.120   5.613  17.545  0.00  0.00    +0.000 A 
ATOM     11  C   UNL     1       4.970   4.432  17.117  0.00  0.00    +0.000 C 
ATOM     12  C   UNL     1       4.430   3.052  17.627  0.00  0.00    +0.000 C 
ATOM     13  C   UNL     1       3.116   3.050  18.400  0.00  0.00    +0.000 A 
ATOM     14  C   UNL     1       2.664   1.819  18.951  0.00  0.00    +0.000 A 
ATOM     15  C   UNL     1       1.470   1.746  19.679  0.00  0.00    +0.000 A 
ATOM     16  C   UNL     1       0.686   2.880  19.839  0.00  0.00    +0.000 A 
ATOM     17  C   UNL     1       1.112   4.095  19.315  0.00  0.00    +0.000 A 
ATOM     18  C   UNL     1       2.340   4.206  18.608  0.00  0.00    +0.000 A 
ENDROOT
TORSDOF 0
ENDMDL
MODEL 9
REMARK VINA RESULT:      -6.8      3.134      7.233
REMARK  Name = 
REMARK  1 active torsions:
REMARK  status: ('A' for Active; 'I' for Inactive)
REMARK    1  A    between atoms: C_1  and  N_2
REMARK                            x       y       z     vdW  Elec       q    Type
REMARK                         _______ _______ _______ _____ _____    ______ ____
ROOT
ATOM      1  C   UNL     1      -1.693  11.949  17.552  0.00  0.00    +0.000 C 
ATOM      2  N   UNL     1      -1.418  11.274  18.829  0.00  0.00    +0.000 NA
ATOM      3  C   UNL     1      -2.194  11.999  19.903  0.00  0.00    +0.000 C 
ATOM      4  C   UNL     1      -1.290  12.537  21.027  0.00  0.00    +0.000 C 
ATOM      5  C   UNL     1      -0.622  11.311  21.534  0.00  0.00    +0.000 A 
ATOM      6  C   UNL     1      -0.775  10.899  22.858  0.00  0.00    +0.000 A 
ATOM      7  C   UNL     1      -0.280   9.666  23.250  0.00  0.00    +0.000 A 
ATOM      8  C   UNL     1       0.389   8.857  22.331  0.00  0.00    +0.000 A 
ATOM      9  C   UNL     1       0.587   9.265  20.988  0.00  0.00    +0.000 A 
ATOM     10  C   UNL     1       0.052  10.510  20.597  0.00  0.00    +0.000 A 
ATOM     11  C   UNL     1       0.041  11.048  19.180  0.00  0.00    +0.000 C 
ATOM     12  C   UNL     1       0.883  10.189  18.175  0.00  0.00    +0.000 C 
ATOM     13  C   UNL     1       1.529   8.913  18.704  0.00  0.00    +0.000 A 
ATOM     14  C   UNL     1       2.373   8.176  17.829  0.00  0.00    +0.000 A 
ATOM     15  C   UNL     1       3.004   6.999  18.252  0.00  0.00    +0.000 A 
ATOM     16  C   UNL     1       2.778   6.514  19.533  0.00  0.00    +0.000 A 
ATOM     17  C   UNL     1       1.962   7.222  20.407  0.00  0.00    +0.000 A 
ATOM     18  C   UNL     1       1.342   8.441  20.017  0.00  0.00    +0.000 A 
ENDROOT
TORSDOF 0
ENDMDL
