MODEL 1
REMARK VINA RESULT:      -9.0      0.000      0.000
REMARK  Name = 
REMARK  5 active torsions:
REMARK  status: ('A' for Active; 'I' for Inactive)
REMARK    1  A    between atoms: C_2  and  O_5
REMARK    2  A    between atoms: O_5  and  C_6
REMARK    3  A    between atoms: C_9  and  N_10
REMARK    4  A    between atoms: N_10  and  C_11
REMARK    5  A    between atoms: C_12  and  C_13
REMARK                            x       y       z     vdW  Elec       q    Type
REMARK                         _______ _______ _______ _____ _____    ______ ____
ROOT
ATOM      1  C   UNL     1       3.323   5.211  19.388  0.00  0.00    +0.000 A 
ATOM      2  C   UNL     1       4.442   4.846  18.650  0.00  0.00    +0.000 A 
ATOM      3  N   UNL     1       4.289   3.584  18.105  0.00  0.00    +0.000 NA
ATOM      4  C   UNL     1       3.093   3.185  18.481  0.00  0.00    +0.000 A 
ATOM      5  C   UNL     1       2.416   1.949  18.269  0.00  0.00    +0.000 A 
ATOM      6  C   UNL     1       1.172   1.772  18.756  0.00  0.00    +0.000 A 
ATOM      7  C   UNL     1       0.480   2.826  19.467  0.00  0.00    +0.000 A 
ATOM      8  C   UNL     1       1.105   3.998  19.658  0.00  0.00    +0.000 A 
ATOM      9  N   UNL     1       2.424   4.164  19.214  0.00  0.00    +0.000 N 
ENDROOT
BRANCH   2  10
ATOM     10  C   UNL     1       5.665   5.635  18.497  0.00  0.00    +0.000 A 
ATOM     11  C   UNL     1       5.725   6.647  17.541  0.00  0.00    +0.000 A 
ATOM     12  C   UNL     1       6.909   7.366  17.391  0.00  0.00    +0.000 A 
ATOM     13  C   UNL     1       7.998   7.056  18.195  0.00  0.00    +0.000 A 
ATOM     14  C   UNL     1       7.857   6.039  19.124  0.00  0.00    +0.000 A 
ATOM     15  N   UNL     1       6.721   5.325  19.300  0.00  0.00    +0.000 NA
ENDBRANCH   2  10
BRANCH   1  16
ATOM     16  N   UNL     1       3.069   6.346  20.109  0.00  0.00    +0.000 N 
ATOM     17  H   UNL     1       2.898   6.175  21.107  0.00  0.00    +0.000 HD
BRANCH  16  21
ATOM     18  C   UNL     1       0.865   9.752  18.919  0.00  0.00    +0.000 A 
ATOM     19  C   UNL     1       1.651   9.078  17.984  0.00  0.00    +0.000 A 
ATOM     20  C   UNL     1       2.344   7.921  18.346  0.00  0.00    +0.000 A 
ATOM     21  C   UNL     1       2.309   7.451  19.665  0.00  0.00    +0.000 A 
ATOM     22  C   UNL     1       1.513   8.129  20.593  0.00  0.00    +0.000 A 
ATOM     23  C   UNL     1       0.817   9.288  20.232  0.00  0.00    +0.000 A 
BRANCH  18  24
ATOM     24  O   UNL     1       0.270  10.889  18.467  0.00  0.00    +0.000 OA
BRANCH  24  26
ATOM     25  F   UNL     1      -1.792  11.094  19.540  0.00  0.00    +0.000 F 
ATOM     26  C   UNL     1      -1.148  10.916  18.368  0.00  0.00    +0.000 C 
ATOM     27  F   UNL     1      -1.568   9.746  17.837  0.00  0.00    +0.000 F 
ATOM     28  F   UNL     1      -1.507  11.911  17.527  0.00  0.00    +0.000 F 
ENDBRANCH  24  26
ENDBRANCH  18  24
ENDBRANCH  16  21
ENDBRANCH   1  16
TORSDOF 5
ENDMDL
MODEL 2
REMARK VINA RESULT:      -8.9      0.431      1.282
REMARK  Name = 
REMARK  5 active torsions:
REMARK  status: ('A' for Active; 'I' for Inactive)
REMARK    1  A    between atoms: C_2  and  O_5
REMARK    2  A    between atoms: O_5  and  C_6
REMARK    3  A    between atoms: C_9  and  N_10
REMARK    4  A    between atoms: N_10  and  C_11
REMARK    5  A    between atoms: C_12  and  C_13
REMARK                            x       y       z     vdW  Elec       q    Type
REMARK                         _______ _______ _______ _____ _____    ______ ____
ROOT
ATOM      1  C   UNL     1       3.341   5.126  19.384  0.00  0.00    +0.000 A 
ATOM      2  C   UNL     1       4.467   4.770  18.653  0.00  0.00    +0.000 A 
ATOM      3  N   UNL     1       4.299   3.535  18.052  0.00  0.00    +0.000 NA
ATOM      4  C   UNL     1       3.087   3.146  18.388  0.00  0.00    +0.000 A 
ATOM      5  C   UNL     1       2.389   1.935  18.109  0.00  0.00    +0.000 A 
ATOM      6  C   UNL     1       1.132   1.764  18.564  0.00  0.00    +0.000 A 
ATOM      7  C   UNL     1       0.448   2.802  19.307  0.00  0.00    +0.000 A 
ATOM      8  C   UNL     1       1.093   3.951  19.560  0.00  0.00    +0.000 A 
ATOM      9  N   UNL     1       2.424   4.108  19.149  0.00  0.00    +0.000 N 
ENDROOT
BRANCH   2  10
ATOM     10  C   UNL     1       5.708   5.538  18.558  0.00  0.00    +0.000 A 
ATOM     11  C   UNL     1       5.861   6.492  17.554  0.00  0.00    +0.000 A 
ATOM     12  C   UNL     1       7.062   7.191  17.462  0.00  0.00    +0.000 A 
ATOM     13  C   UNL     1       8.077   6.919  18.370  0.00  0.00    +0.000 A 
ATOM     14  C   UNL     1       7.845   5.959  19.341  0.00  0.00    +0.000 A 
ATOM     15  N   UNL     1       6.689   5.266  19.463  0.00  0.00    +0.000 NA
ENDBRANCH   2  10
BRANCH   1  16
ATOM     16  N   UNL     1       3.096   6.235  20.148  0.00  0.00    +0.000 N 
ATOM     17  H   UNL     1       2.869   6.024  21.128  0.00  0.00    +0.000 HD
BRANCH  16  21
ATOM     18  C   UNL     1       0.940   9.593  18.751  0.00  0.00    +0.000 A 
ATOM     19  C   UNL     1       0.886   9.253  20.103  0.00  0.00    +0.000 A 
ATOM     20  C   UNL     1       1.633   8.178  20.592  0.00  0.00    +0.000 A 
ATOM     21  C   UNL     1       2.402   7.391  19.725  0.00  0.00    +0.000 A 
ATOM     22  C   UNL     1       2.456   7.744  18.374  0.00  0.00    +0.000 A 
ATOM     23  C   UNL     1       1.708   8.821  17.882  0.00  0.00    +0.000 A 
BRANCH  18  24
ATOM     24  O   UNL     1       0.140  10.629  18.380  0.00  0.00    +0.000 OA
BRANCH  24  26
ATOM     25  F   UNL     1      -1.319   9.640  16.852  0.00  0.00    +0.000 F 
ATOM     26  C   UNL     1      -1.198  10.345  17.996  0.00  0.00    +0.000 C 
ATOM     27  F   UNL     1      -1.861  11.512  17.837  0.00  0.00    +0.000 F 
ATOM     28  F   UNL     1      -1.799   9.653  18.990  0.00  0.00    +0.000 F 
ENDBRANCH  24  26
ENDBRANCH  18  24
ENDBRANCH  16  21
ENDBRANCH   1  16
TORSDOF 5
ENDMDL
MODEL 3
REMARK VINA RESULT:      -8.7      1.121      1.297
REMARK  Name = 
REMARK  5 active torsions:
REMARK  status: ('A' for Active; 'I' for Inactive)
REMARK    1  A    between atoms: C_2  and  O_5
REMARK    2  A    between atoms: O_5  and  C_6
REMARK    3  A    between atoms: C_9  and  N_10
REMARK    4  A    between atoms: N_10  and  C_11
REMARK    5  A    between atoms: C_12  and  C_13
REMARK                            x       y       z     vdW  Elec       q    Type
REMARK                         _______ _______ _______ _____ _____    ______ ____
ROOT
ATOM      1  C   UNL     1       3.357   5.194  19.363  0.00  0.00    +0.000 A 
ATOM      2  C   UNL     1       4.475   4.847  18.614  0.00  0.00    +0.000 A 
ATOM      3  N   UNL     1       4.326   3.592  18.051  0.00  0.00    +0.000 NA
ATOM      4  C   UNL     1       3.134   3.181  18.427  0.00  0.00    +0.000 A 
ATOM      5  C   UNL     1       2.463   1.944  18.200  0.00  0.00    +0.000 A 
ATOM      6  C   UNL     1       1.223   1.752  18.690  0.00  0.00    +0.000 A 
ATOM      7  C   UNL     1       0.529   2.791  19.421  0.00  0.00    +0.000 A 
ATOM      8  C   UNL     1       1.148   3.964  19.627  0.00  0.00    +0.000 A 
ATOM      9  N   UNL     1       2.463   4.145  19.178  0.00  0.00    +0.000 N 
ENDROOT
BRANCH   2  10
ATOM     10  C   UNL     1       5.692   5.646  18.467  0.00  0.00    +0.000 A 
ATOM     11  C   UNL     1       5.759   6.639  17.491  0.00  0.00    +0.000 A 
ATOM     12  C   UNL     1       6.938   7.367  17.347  0.00  0.00    +0.000 A 
ATOM     13  C   UNL     1       8.016   7.084  18.177  0.00  0.00    +0.000 A 
ATOM     14  C   UNL     1       7.868   6.085  19.124  0.00  0.00    +0.000 A 
ATOM     15  N   UNL     1       6.736   5.363  19.294  0.00  0.00    +0.000 NA
ENDBRANCH   2  10
BRANCH   1  16
ATOM     16  N   UNL     1       3.101   6.316  20.102  0.00  0.00    +0.000 N 
ATOM     17  H   UNL     1       2.933   6.129  21.099  0.00  0.00    +0.000 HD
BRANCH  16  21
ATOM     18  C   UNL     1       0.879   9.732  18.972  0.00  0.00    +0.000 A 
ATOM     19  C   UNL     1       1.662   9.073  18.024  0.00  0.00    +0.000 A 
ATOM     20  C   UNL     1       2.361   7.914  18.366  0.00  0.00    +0.000 A 
ATOM     21  C   UNL     1       2.335   7.425  19.679  0.00  0.00    +0.000 A 
ATOM     22  C   UNL     1       1.542   8.088  20.620  0.00  0.00    +0.000 A 
ATOM     23  C   UNL     1       0.840   9.250  20.279  0.00  0.00    +0.000 A 
BRANCH  18  24
ATOM     24  O   UNL     1       0.278  10.873  18.539  0.00  0.00    +0.000 OA
BRANCH  24  26
ATOM     25  F   UNL     1       2.212  12.133  18.881  0.00  0.00    +0.000 F 
ATOM     26  C   UNL     1       0.863  12.119  18.891  0.00  0.00    +0.000 C 
ATOM     27  F   UNL     1       0.453  12.456  20.135  0.00  0.00    +0.000 F 
ATOM     28  F   UNL     1       0.420  13.066  18.034  0.00  0.00    +0.000 F 
ENDBRANCH  24  26
ENDBRANCH  18  24
ENDBRANCH  16  21
ENDBRANCH   1  16
TORSDOF 5
ENDMDL
MODEL 4
REMARK VINA RESULT:      -8.5      1.238      1.610
REMARK  Name = 
REMARK  5 active torsions:
REMARK  status: ('A' for Active; 'I' for Inactive)
REMARK    1  A    between atoms: C_2  and  O_5
REMARK    2  A    between atoms: O_5  and  C_6
REMARK    3  A    between atoms: C_9  and  N_10
REMARK    4  A    between atoms: N_10  and  C_11
REMARK    5  A    between atoms: C_12  and  C_13
REMARK                            x       y       z     vdW  Elec       q    Type
REMARK                         _______ _______ _______ _____ _____    ______ ____
ROOT
ATOM      1  C   UNL     1       3.395   5.234  19.282  0.00  0.00    +0.000 A 
ATOM      2  C   UNL     1       4.499   4.900  18.507  0.00  0.00    +0.000 A 
ATOM      3  N   UNL     1       4.355   3.640  17.955  0.00  0.00    +0.000 NA
ATOM      4  C   UNL     1       3.180   3.213  18.363  0.00  0.00    +0.000 A 
ATOM      5  C   UNL     1       2.522   1.964  18.160  0.00  0.00    +0.000 A 
ATOM      6  C   UNL     1       1.297   1.757  18.682  0.00  0.00    +0.000 A 
ATOM      7  C   UNL     1       0.606   2.790  19.424  0.00  0.00    +0.000 A 
ATOM      8  C   UNL     1       1.212   3.973  19.607  0.00  0.00    +0.000 A 
ATOM      9  N   UNL     1       2.513   4.171  19.125  0.00  0.00    +0.000 N 
ENDROOT
BRANCH   2  10
ATOM     10  C   UNL     1       5.699   5.716  18.325  0.00  0.00    +0.000 A 
ATOM     11  C   UNL     1       6.824   5.485  19.116  0.00  0.00    +0.000 A 
ATOM     12  C   UNL     1       7.946   6.293  18.949  0.00  0.00    +0.000 A 
ATOM     13  C   UNL     1       7.916   7.309  18.002  0.00  0.00    +0.000 A 
ATOM     14  C   UNL     1       6.762   7.472  17.254  0.00  0.00    +0.000 A 
ATOM     15  N   UNL     1       5.657   6.702  17.386  0.00  0.00    +0.000 NA
ENDBRANCH   2  10
BRANCH   1  16
ATOM     16  N   UNL     1       3.140   6.358  20.021  0.00  0.00    +0.000 N 
ATOM     17  H   UNL     1       3.002   6.174  21.023  0.00  0.00    +0.000 HD
BRANCH  16  21
ATOM     18  C   UNL     1       0.832   9.728  18.931  0.00  0.00    +0.000 A 
ATOM     19  C   UNL     1       1.610   9.085  17.969  0.00  0.00    +0.000 A 
ATOM     20  C   UNL     1       2.338   7.939  18.298  0.00  0.00    +0.000 A 
ATOM     21  C   UNL     1       2.345   7.451  19.611  0.00  0.00    +0.000 A 
ATOM     22  C   UNL     1       1.556   8.098  20.567  0.00  0.00    +0.000 A 
ATOM     23  C   UNL     1       0.826   9.246  20.239  0.00  0.00    +0.000 A 
BRANCH  18  24
ATOM     24  O   UNL     1       0.201  10.857  18.509  0.00  0.00    +0.000 OA
BRANCH  24  26
ATOM     25  F   UNL     1       0.436  13.138  18.081  0.00  0.00    +0.000 F 
ATOM     26  C   UNL     1       0.727  12.115  18.910  0.00  0.00    +0.000 C 
ATOM     27  F   UNL     1       2.073  12.017  18.992  0.00  0.00    +0.000 F 
ATOM     28  F   UNL     1       0.254  12.414  20.141  0.00  0.00    +0.000 F 
ENDBRANCH  24  26
ENDBRANCH  18  24
ENDBRANCH  16  21
ENDBRANCH   1  16
TORSDOF 5
ENDMDL
MODEL 5
REMARK VINA RESULT:      -8.3      1.092      1.706
REMARK  Name = 
REMARK  5 active torsions:
REMARK  status: ('A' for Active; 'I' for Inactive)
REMARK    1  A    between atoms: C_2  and  O_5
REMARK    2  A    between atoms: O_5  and  C_6
REMARK    3  A    between atoms: C_9  and  N_10
REMARK    4  A    between atoms: N_10  and  C_11
REMARK    5  A    between atoms: C_12  and  C_13
REMARK                            x       y       z     vdW  Elec       q    Type
REMARK                         _______ _______ _______ _____ _____    ______ ____
ROOT
ATOM      1  C   UNL     1       3.387   5.189  19.270  0.00  0.00    +0.000 A 
ATOM      2  C   UNL     1       4.487   4.872  18.483  0.00  0.00    +0.000 A 
ATOM      3  N   UNL     1       4.332   3.634  17.887  0.00  0.00    +0.000 NA
ATOM      4  C   UNL     1       3.152   3.203  18.281  0.00  0.00    +0.000 A 
ATOM      5  C   UNL     1       2.483   1.969  18.034  0.00  0.00    +0.000 A 
ATOM      6  C   UNL     1       1.257   1.754  18.549  0.00  0.00    +0.000 A 
ATOM      7  C   UNL     1       0.575   2.766  19.329  0.00  0.00    +0.000 A 
ATOM      8  C   UNL     1       1.192   3.937  19.553  0.00  0.00    +0.000 A 
ATOM      9  N   UNL     1       2.495   4.140  19.077  0.00  0.00    +0.000 N 
ENDROOT
BRANCH   2  10
ATOM     10  C   UNL     1       5.694   5.683  18.330  0.00  0.00    +0.000 A 
ATOM     11  C   UNL     1       6.806   5.435  19.134  0.00  0.00    +0.000 A 
ATOM     12  C   UNL     1       7.935   6.240  18.994  0.00  0.00    +0.000 A 
ATOM     13  C   UNL     1       7.924   7.267  18.059  0.00  0.00    +0.000 A 
ATOM     14  C   UNL     1       6.783   7.446  17.296  0.00  0.00    +0.000 A 
ATOM     15  N   UNL     1       5.672   6.681  17.403  0.00  0.00    +0.000 NA
ENDBRANCH   2  10
BRANCH   1  16
ATOM     16  N   UNL     1       3.142   6.287  20.049  0.00  0.00    +0.000 N 
ATOM     17  H   UNL     1       2.949   6.065  21.034  0.00  0.00    +0.000 HD
BRANCH  16  21
ATOM     18  C   UNL     1       0.890   9.613  18.730  0.00  0.00    +0.000 A 
ATOM     19  C   UNL     1       0.786   9.192  20.056  0.00  0.00    +0.000 A 
ATOM     20  C   UNL     1       1.561   8.129  20.522  0.00  0.00    +0.000 A 
ATOM     21  C   UNL     1       2.412   7.431  19.655  0.00  0.00    +0.000 A 
ATOM     22  C   UNL     1       2.514   7.865  18.330  0.00  0.00    +0.000 A 
ATOM     23  C   UNL     1       1.738   8.931  17.861  0.00  0.00    +0.000 A 
BRANCH  18  24
ATOM     24  O   UNL     1       0.057  10.629  18.376  0.00  0.00    +0.000 OA
BRANCH  24  26
ATOM     25  F   UNL     1       0.427  12.223  20.039  0.00  0.00    +0.000 F 
ATOM     26  C   UNL     1       0.429  11.958  18.716  0.00  0.00    +0.000 C 
ATOM     27  F   UNL     1      -0.429  12.815  18.119  0.00  0.00    +0.000 F 
ATOM     28  F   UNL     1       1.668  12.201  18.233  0.00  0.00    +0.000 F 
ENDBRANCH  24  26
ENDBRANCH  18  24
ENDBRANCH  16  21
ENDBRANCH   1  16
TORSDOF 5
ENDMDL
MODEL 6
REMARK VINA RESULT:      -8.3      1.209      1.851
REMARK  Name = 
REMARK  5 active torsions:
REMARK  status: ('A' for Active; 'I' for Inactive)
REMARK    1  A    between atoms: C_2  and  O_5
REMARK    2  A    between atoms: O_5  and  C_6
REMARK    3  A    between atoms: C_9  and  N_10
REMARK    4  A    between atoms: N_10  and  C_11
REMARK    5  A    between atoms: C_12  and  C_13
REMARK                            x       y       z     vdW  Elec       q    Type
REMARK                         _______ _______ _______ _____ _____    ______ ____
ROOT
ATOM      1  C   UNL     1       3.496   5.303  18.143  0.00  0.00    +0.000 A 
ATOM      2  C   UNL     1       4.796   4.946  18.476  0.00  0.00    +0.000 A 
ATOM      3  N   UNL     1       4.841   3.672  19.011  0.00  0.00    +0.000 NA
ATOM      4  C   UNL     1       3.597   3.242  18.990  0.00  0.00    +0.000 A 
ATOM      5  C   UNL     1       3.026   2.025  19.465  0.00  0.00    +0.000 A 
ATOM      6  C   UNL     1       1.704   1.804  19.326  0.00  0.00    +0.000 A 
ATOM      7  C   UNL     1       0.841   2.763  18.670  0.00  0.00    +0.000 A 
ATOM      8  C   UNL     1       1.374   3.905  18.207  0.00  0.00    +0.000 A 
ATOM      9  N   UNL     1       2.735   4.170  18.408  0.00  0.00    +0.000 N 
ENDROOT
BRANCH   2  10
ATOM     10  C   UNL     1       5.979   5.799  18.353  0.00  0.00    +0.000 A 
ATOM     11  C   UNL     1       7.070   5.601  19.197  0.00  0.00    +0.000 A 
ATOM     12  C   UNL     1       8.173   6.444  19.085  0.00  0.00    +0.000 A 
ATOM     13  C   UNL     1       8.158   7.460  18.137  0.00  0.00    +0.000 A 
ATOM     14  C   UNL     1       7.037   7.588  17.334  0.00  0.00    +0.000 A 
ATOM     15  N   UNL     1       5.952   6.784  17.413  0.00  0.00    +0.000 NA
ENDBRANCH   2  10
BRANCH   1  16
ATOM     16  N   UNL     1       3.003   6.469  17.622  0.00  0.00    +0.000 N 
ATOM     17  H   UNL     1       3.559   6.844  16.843  0.00  0.00    +0.000 HD
BRANCH  16  21
ATOM     18  C   UNL     1       1.155   9.646  19.712  0.00  0.00    +0.000 A 
ATOM     19  C   UNL     1       1.415   8.445  20.372  0.00  0.00    +0.000 A 
ATOM     20  C   UNL     1       2.071   7.404  19.713  0.00  0.00    +0.000 A 
ATOM     21  C   UNL     1       2.428   7.525  18.364  0.00  0.00    +0.000 A 
ATOM     22  C   UNL     1       2.170   8.735  17.713  0.00  0.00    +0.000 A 
ATOM     23  C   UNL     1       1.512   9.780  18.371  0.00  0.00    +0.000 A 
BRANCH  18  24
ATOM     24  O   UNL     1       0.473  10.573  20.437  0.00  0.00    +0.000 OA
BRANCH  24  26
ATOM     25  F   UNL     1      -0.704  12.036  19.051  0.00  0.00    +0.000 F 
ATOM     26  C   UNL     1      -0.781  11.028  19.945  0.00  0.00    +0.000 C 
ATOM     27  F   UNL     1      -1.528  11.453  20.988  0.00  0.00    +0.000 F 
ATOM     28  F   UNL     1      -1.423   9.990  19.364  0.00  0.00    +0.000 F 
ENDBRANCH  24  26
ENDBRANCH  18  24
ENDBRANCH  16  21
ENDBRANCH   1  16
TORSDOF 5
ENDMDL
MODEL 7
REMARK VINA RESULT:      -8.2      1.255      1.742
REMARK  Name = 
REMARK  5 active torsions:
REMARK  status: ('A' for Active; 'I' for Inactive)
REMARK    1  A    between atoms: C_2  and  O_5
REMARK    2  A    between atoms: O_5  and  C_6
REMARK    3  A    between atoms: C_9  and  N_10
REMARK    4  A    between atoms: N_10  and  C_11
REMARK    5  A    between atoms: C_12  and  C_13
REMARK                            x       y       z     vdW  Elec       q    Type
REMARK                         _______ _______ _______ _____ _____    ______ ____
ROOT
ATOM      1  C   UNL     1       3.514   5.327  18.115  0.00  0.00    +0.000 A 
ATOM      2  C   UNL     1       4.811   4.966  18.459  0.00  0.00    +0.000 A 
ATOM      3  N   UNL     1       4.848   3.690  18.991  0.00  0.00    +0.000 NA
ATOM      4  C   UNL     1       3.604   3.263  18.958  0.00  0.00    +0.000 A 
ATOM      5  C   UNL     1       3.027   2.046  19.424  0.00  0.00    +0.000 A 
ATOM      6  C   UNL     1       1.706   1.828  19.273  0.00  0.00    +0.000 A 
ATOM      7  C   UNL     1       0.850   2.790  18.611  0.00  0.00    +0.000 A 
ATOM      8  C   UNL     1       1.389   3.932  18.156  0.00  0.00    +0.000 A 
ATOM      9  N   UNL     1       2.749   4.194  18.370  0.00  0.00    +0.000 N 
ENDROOT
BRANCH   2  10
ATOM     10  C   UNL     1       5.996   5.817  18.349  0.00  0.00    +0.000 A 
ATOM     11  C   UNL     1       7.076   5.621  19.208  0.00  0.00    +0.000 A 
ATOM     12  C   UNL     1       8.182   6.462  19.107  0.00  0.00    +0.000 A 
ATOM     13  C   UNL     1       8.180   7.475  18.157  0.00  0.00    +0.000 A 
ATOM     14  C   UNL     1       7.071   7.602  17.339  0.00  0.00    +0.000 A 
ATOM     15  N   UNL     1       5.983   6.800  17.406  0.00  0.00    +0.000 NA
ENDBRANCH   2  10
BRANCH   1  16
ATOM     16  N   UNL     1       3.029   6.495  17.593  0.00  0.00    +0.000 N 
ATOM     17  H   UNL     1       3.637   6.916  16.879  0.00  0.00    +0.000 HD
BRANCH  16  21
ATOM     18  C   UNL     1       1.145   9.509  19.883  0.00  0.00    +0.000 A 
ATOM     19  C   UNL     1       1.382   9.721  18.525  0.00  0.00    +0.000 A 
ATOM     20  C   UNL     1       1.956   8.717  17.742  0.00  0.00    +0.000 A 
ATOM     21  C   UNL     1       2.355   7.504  18.316  0.00  0.00    +0.000 A 
ATOM     22  C   UNL     1       2.107   7.297  19.677  0.00  0.00    +0.000 A 
ATOM     23  C   UNL     1       1.532   8.302  20.463  0.00  0.00    +0.000 A 
BRANCH  18  24
ATOM     24  O   UNL     1       0.623  10.570  20.555  0.00  0.00    +0.000 OA
BRANCH  24  26
ATOM     25  F   UNL     1      -1.404  10.138  19.485  0.00  0.00    +0.000 F 
ATOM     26  C   UNL     1      -0.678  11.020  20.202  0.00  0.00    +0.000 C 
ATOM     27  F   UNL     1      -0.562  12.153  19.473  0.00  0.00    +0.000 F 
ATOM     28  F   UNL     1      -1.358  11.317  21.332  0.00  0.00    +0.000 F 
ENDBRANCH  24  26
ENDBRANCH  18  24
ENDBRANCH  16  21
ENDBRANCH   1  16
TORSDOF 5
ENDMDL
MODEL 8
REMARK VINA RESULT:      -8.1      4.609      6.297
REMARK  Name = 
REMARK  5 active torsions:
REMARK  status: ('A' for Active; 'I' for Inactive)
REMARK    1  A    between atoms: C_2  and  O_5
REMARK    2  A    between atoms: O_5  and  C_6
REMARK    3  A    between atoms: C_9  and  N_10
REMARK    4  A    between atoms: N_10  and  C_11
REMARK    5  A    between atoms: C_12  and  C_13
REMARK                            x       y       z     vdW  Elec       q    Type
REMARK                         _______ _______ _______ _____ _____    ______ ____
ROOT
ATOM      1  C   UNL     1       5.523   4.745  15.109  0.00  0.00    +0.000 A 
ATOM      2  C   UNL     1       6.836   5.073  15.420  0.00  0.00    +0.000 A 
ATOM      3  N   UNL     1       7.700   4.669  14.418  0.00  0.00    +0.000 NA
ATOM      4  C   UNL     1       6.934   4.122  13.498  0.00  0.00    +0.000 A 
ATOM      5  C   UNL     1       7.270   3.481  12.270  0.00  0.00    +0.000 A 
ATOM      6  C   UNL     1       6.295   2.994  11.477  0.00  0.00    +0.000 A 
ATOM      7  C   UNL     1       4.897   3.134  11.824  0.00  0.00    +0.000 A 
ATOM      8  C   UNL     1       4.572   3.749  12.972  0.00  0.00    +0.000 A 
ATOM      9  N   UNL     1       5.583   4.198  13.832  0.00  0.00    +0.000 N 
ENDROOT
BRANCH   2  10
ATOM     10  C   UNL     1       7.294   5.702  16.658  0.00  0.00    +0.000 A 
ATOM     11  C   UNL     1       7.526   4.923  17.790  0.00  0.00    +0.000 A 
ATOM     12  C   UNL     1       7.932   5.546  18.969  0.00  0.00    +0.000 A 
ATOM     13  C   UNL     1       8.092   6.926  18.987  0.00  0.00    +0.000 A 
ATOM     14  C   UNL     1       7.845   7.628  17.820  0.00  0.00    +0.000 A 
ATOM     15  N   UNL     1       7.456   7.055  16.657  0.00  0.00    +0.000 NA
ENDBRANCH   2  10
BRANCH   1  16
ATOM     16  N   UNL     1       4.371   4.932  15.824  0.00  0.00    +0.000 N 
ATOM     17  H   UNL     1       3.974   5.875  15.735  0.00  0.00    +0.000 HD
BRANCH  16  21
ATOM     18  C   UNL     1       3.429   3.477  19.681  0.00  0.00    +0.000 A 
ATOM     19  C   UNL     1       3.671   2.576  18.644  0.00  0.00    +0.000 A 
ATOM     20  C   UNL     1       4.035   3.037  17.377  0.00  0.00    +0.000 A 
ATOM     21  C   UNL     1       4.106   4.410  17.110  0.00  0.00    +0.000 A 
ATOM     22  C   UNL     1       3.869   5.306  18.157  0.00  0.00    +0.000 A 
ATOM     23  C   UNL     1       3.504   4.845  19.428  0.00  0.00    +0.000 A 
BRANCH  18  24
ATOM     24  O   UNL     1       3.041   2.918  20.858  0.00  0.00    +0.000 OA
BRANCH  24  26
ATOM     25  F   UNL     1       1.345   2.213  22.297  0.00  0.00    +0.000 F 
ATOM     26  C   UNL     1       1.651   2.852  21.149  0.00  0.00    +0.000 C 
ATOM     27  F   UNL     1       1.025   2.210  20.137  0.00  0.00    +0.000 F 
ATOM     28  F   UNL     1       1.159   4.109  21.216  0.00  0.00    +0.000 F 
ENDBRANCH  24  26
ENDBRANCH  18  24
ENDBRANCH  16  21
ENDBRANCH   1  16
TORSDOF 5
ENDMDL
MODEL 9
REMARK VINA RESULT:      -8.0      1.928      2.324
REMARK  Name = 
REMARK  5 active torsions:
REMARK  status: ('A' for Active; 'I' for Inactive)
REMARK    1  A    between atoms: C_2  and  O_5
REMARK    2  A    between atoms: O_5  and  C_6
REMARK    3  A    between atoms: C_9  and  N_10
REMARK    4  A    between atoms: N_10  and  C_11
REMARK    5  A    between atoms: C_12  and  C_13
REMARK                            x       y       z     vdW  Elec       q    Type
REMARK                         _______ _______ _______ _____ _____    ______ ____
ROOT
ATOM      1  C   UNL     1       3.458   5.293  18.350  0.00  0.00    +0.000 A 
ATOM      2  C   UNL     1       4.744   4.840  18.613  0.00  0.00    +0.000 A 
ATOM      3  N   UNL     1       4.736   3.508  18.987  0.00  0.00    +0.000 NA
ATOM      4  C   UNL     1       3.473   3.140  18.936  0.00  0.00    +0.000 A 
ATOM      5  C   UNL     1       2.852   1.901  19.269  0.00  0.00    +0.000 A 
ATOM      6  C   UNL     1       1.520   1.759  19.128  0.00  0.00    +0.000 A 
ATOM      7  C   UNL     1       0.694   2.829  18.610  0.00  0.00    +0.000 A 
ATOM      8  C   UNL     1       1.274   3.994  18.280  0.00  0.00    +0.000 A 
ATOM      9  N   UNL     1       2.648   4.171  18.488  0.00  0.00    +0.000 N 
ENDROOT
BRANCH   2  10
ATOM     10  C   UNL     1       5.964   5.647  18.574  0.00  0.00    +0.000 A 
ATOM     11  C   UNL     1       6.158   6.564  17.542  0.00  0.00    +0.000 A 
ATOM     12  C   UNL     1       7.340   7.301  17.506  0.00  0.00    +0.000 A 
ATOM     13  C   UNL     1       8.294   7.102  18.496  0.00  0.00    +0.000 A 
ATOM     14  C   UNL     1       8.024   6.175  19.488  0.00  0.00    +0.000 A 
ATOM     15  N   UNL     1       6.886   5.447  19.556  0.00  0.00    +0.000 NA
ENDBRANCH   2  10
BRANCH   1  16
ATOM     16  N   UNL     1       3.014   6.535  17.984  0.00  0.00    +0.000 N 
ATOM     17  H   UNL     1       3.647   7.032  17.346  0.00  0.00    +0.000 HD
BRANCH  16  21
ATOM     18  C   UNL     1       0.896   9.294  20.388  0.00  0.00    +0.000 A 
ATOM     19  C   UNL     1       1.359   8.104  20.949  0.00  0.00    +0.000 A 
ATOM     20  C   UNL     1       2.105   7.205  20.184  0.00  0.00    +0.000 A 
ATOM     21  C   UNL     1       2.352   7.455  18.828  0.00  0.00    +0.000 A 
ATOM     22  C   UNL     1       1.891   8.654  18.276  0.00  0.00    +0.000 A 
ATOM     23  C   UNL     1       1.143   9.556  19.041  0.00  0.00    +0.000 A 
BRANCH  18  24
ATOM     24  O   UNL     1       0.145  10.073  21.212  0.00  0.00    +0.000 OA
BRANCH  24  26
ATOM     25  F   UNL     1       0.878   9.300  23.288  0.00  0.00    +0.000 F 
ATOM     26  C   UNL     1      -0.184   9.571  22.501  0.00  0.00    +0.000 C 
ATOM     27  F   UNL     1      -0.894   8.431  22.355  0.00  0.00    +0.000 F 
ATOM     28  F   UNL     1      -0.966  10.474  23.134  0.00  0.00    +0.000 F 
ENDBRANCH  24  26
ENDBRANCH  18  24
ENDBRANCH  16  21
ENDBRANCH   1  16
TORSDOF 5
ENDMDL
