MODEL 1
REMARK VINA RESULT:      -8.0      0.000      0.000
REMARK  Name = 
REMARK  7 active torsions:
REMARK  status: ('A' for Active; 'I' for Inactive)
REMARK    1  A    between atoms: C_1  and  O_2
REMARK    2  A    between atoms: O_2  and  C_3
REMARK    3  A    between atoms: C_8  and  O_9
REMARK    4  A    between atoms: C_15  and  O_16
REMARK    5  A    between atoms: O_16  and  C_17
REMARK    6  A    between atoms: C_18  and  O_19
REMARK    7  A    between atoms: O_19  and  C_20
REMARK                            x       y       z     vdW  Elec       q    Type
REMARK                         _______ _______ _______ _____ _____    ______ ____
ROOT
ATOM      1  C   UNL     1       3.548   3.908  19.277  0.00  0.00    +0.000 A 
ATOM      2  C   UNL     1       3.804   5.059  18.523  0.00  0.00    +0.000 A 
ATOM      3  C   UNL     1       3.181   6.283  18.816  0.00  0.00    +0.000 A 
ATOM      4  C   UNL     1       2.305   6.395  19.908  0.00  0.00    +0.000 A 
ATOM      5  C   UNL     1       2.085   5.245  20.679  0.00  0.00    +0.000 A 
ATOM      6  C   UNL     1       2.700   4.027  20.372  0.00  0.00    +0.000 A 
ATOM      7  C   UNL     1       1.634   7.670  20.197  0.00  0.00    +0.000 A 
ATOM      8  C   UNL     1       1.080   7.995  21.436  0.00  0.00    +0.000 A 
ATOM      9  C   UNL     1       0.400   9.196  21.615  0.00  0.00    +0.000 A 
ATOM     10  C   UNL     1      -0.163   9.476  22.858  0.00  0.00    +0.000 A 
ATOM     11  C   UNL     1      -0.858  10.664  23.062  0.00  0.00    +0.000 A 
ATOM     12  C   UNL     1      -1.017  11.599  22.032  0.00  0.00    +0.000 A 
ATOM     13  C   UNL     1      -0.436  11.331  20.771  0.00  0.00    +0.000 A 
ATOM     14  C   UNL     1       0.281  10.110  20.558  0.00  0.00    +0.000 A 
ATOM     15  C   UNL     1       0.882   9.747  19.341  0.00  0.00    +0.000 A 
ATOM     16  N   UNL     1       1.541   8.568  19.178  0.00  0.00    +0.000 N 
ATOM     17  C   UNL     1       2.103   8.237  17.835  0.00  0.00    +0.000 C 
ATOM     18  C   UNL     1       3.423   7.500  17.972  0.00  0.00    +0.000 C 
ENDROOT
BRANCH   1  20
ATOM     19  C   UNL     1       3.407   1.838  18.074  0.00  0.00    +0.000 C 
ATOM     20  O   UNL     1       4.170   2.805  18.777  0.00  0.00    +0.000 OA
ENDBRANCH   1  20
BRANCH   6  21
ATOM     21  O   UNL     1       2.389   3.012  21.228  0.00  0.00    +0.000 OA
ATOM     22  H   UNL     1       3.230   2.525  21.376  0.00  0.00    +0.000 HD
ENDBRANCH   6  21
BRANCH  12  23
ATOM     23  O   UNL     1      -1.653  12.793  22.249  0.00  0.00    +0.000 OA
ATOM     24  C   UNL     1      -3.072  12.726  22.425  0.00  0.00    +0.000 C 
ENDBRANCH  12  23
BRANCH  13  25
ATOM     25  O   UNL     1      -0.490  12.138  19.650  0.00  0.00    +0.000 OA
ATOM     26  C   UNL     1      -1.696  12.181  18.889  0.00  0.00    +0.000 C 
ENDBRANCH  13  25
TORSDOF 4
ENDMDL
MODEL 2
REMARK VINA RESULT:      -7.7      1.218      7.769
REMARK  Name = 
REMARK  7 active torsions:
REMARK  status: ('A' for Active; 'I' for Inactive)
REMARK    1  A    between atoms: C_1  and  O_2
REMARK    2  A    between atoms: O_2  and  C_3
REMARK    3  A    between atoms: C_8  and  O_9
REMARK    4  A    between atoms: C_15  and  O_16
REMARK    5  A    between atoms: O_16  and  C_17
REMARK    6  A    between atoms: C_18  and  O_19
REMARK    7  A    between atoms: O_19  and  C_20
REMARK                            x       y       z     vdW  Elec       q    Type
REMARK                         _______ _______ _______ _____ _____    ______ ____
ROOT
ATOM      1  C   UNL     1      -0.376  11.554  21.164  0.00  0.00    +0.000 A 
ATOM      2  C   UNL     1      -0.064  11.273  19.830  0.00  0.00    +0.000 A 
ATOM      3  C   UNL     1       0.550  10.068  19.456  0.00  0.00    +0.000 A 
ATOM      4  C   UNL     1       0.836   9.084  20.417  0.00  0.00    +0.000 A 
ATOM      5  C   UNL     1       0.486   9.360  21.746  0.00  0.00    +0.000 A 
ATOM      6  C   UNL     1      -0.115  10.569  22.111  0.00  0.00    +0.000 A 
ATOM      7  C   UNL     1       1.504   7.834  20.027  0.00  0.00    +0.000 A 
ATOM      8  C   UNL     1       1.476   6.667  20.792  0.00  0.00    +0.000 A 
ATOM      9  C   UNL     1       2.190   5.540  20.391  0.00  0.00    +0.000 A 
ATOM     10  C   UNL     1       2.162   4.401  21.191  0.00  0.00    +0.000 A 
ATOM     11  C   UNL     1       2.873   3.264  20.820  0.00  0.00    +0.000 A 
ATOM     12  C   UNL     1       3.638   3.237  19.647  0.00  0.00    +0.000 A 
ATOM     13  C   UNL     1       3.661   4.384  18.820  0.00  0.00    +0.000 A 
ATOM     14  C   UNL     1       2.928   5.554  19.198  0.00  0.00    +0.000 A 
ATOM     15  C   UNL     1       2.897   6.744  18.452  0.00  0.00    +0.000 A 
ATOM     16  N   UNL     1       2.200   7.839  18.857  0.00  0.00    +0.000 N 
ATOM     17  C   UNL     1       2.266   9.081  18.031  0.00  0.00    +0.000 C 
ATOM     18  C   UNL     1       0.927   9.796  18.029  0.00  0.00    +0.000 C 
ENDROOT
BRANCH   1  20
ATOM     19  C   UNL     1      -2.159  13.120  20.816  0.00  0.00    +0.000 C 
ATOM     20  O   UNL     1      -0.875  12.809  21.334  0.00  0.00    +0.000 OA
ENDBRANCH   1  20
BRANCH   6  21
ATOM     21  O   UNL     1      -0.402  10.671  23.440  0.00  0.00    +0.000 OA
ATOM     22  H   UNL     1      -0.520  11.633  23.610  0.00  0.00    +0.000 HD
ENDBRANCH   6  21
BRANCH  12  23
ATOM     23  O   UNL     1       4.294   2.099  19.254  0.00  0.00    +0.000 OA
ATOM     24  C   UNL     1       3.584   1.244  18.353  0.00  0.00    +0.000 C 
ENDBRANCH  12  23
BRANCH  13  25
ATOM     25  O   UNL     1       4.354   4.530  17.633  0.00  0.00    +0.000 OA
ATOM     26  C   UNL     1       5.772   4.680  17.676  0.00  0.00    +0.000 C 
ENDBRANCH  13  25
TORSDOF 4
ENDMDL
MODEL 3
REMARK VINA RESULT:      -7.5      1.311      8.153
REMARK  Name = 
REMARK  7 active torsions:
REMARK  status: ('A' for Active; 'I' for Inactive)
REMARK    1  A    between atoms: C_1  and  O_2
REMARK    2  A    between atoms: O_2  and  C_3
REMARK    3  A    between atoms: C_8  and  O_9
REMARK    4  A    between atoms: C_15  and  O_16
REMARK    5  A    between atoms: O_16  and  C_17
REMARK    6  A    between atoms: C_18  and  O_19
REMARK    7  A    between atoms: O_19  and  C_20
REMARK                            x       y       z     vdW  Elec       q    Type
REMARK                         _______ _______ _______ _____ _____    ______ ____
ROOT
ATOM      1  C   UNL     1      -1.463  12.848  19.922  0.00  0.00    +0.000 A 
ATOM      2  C   UNL     1      -1.174  12.140  21.094  0.00  0.00    +0.000 A 
ATOM      3  C   UNL     1      -0.413  10.961  21.071  0.00  0.00    +0.000 A 
ATOM      4  C   UNL     1       0.116  10.475  19.864  0.00  0.00    +0.000 A 
ATOM      5  C   UNL     1      -0.149  11.212  18.701  0.00  0.00    +0.000 A 
ATOM      6  C   UNL     1      -0.918  12.380  18.732  0.00  0.00    +0.000 A 
ATOM      7  C   UNL     1       0.889   9.226  19.839  0.00  0.00    +0.000 A 
ATOM      8  C   UNL     1       1.765   8.874  18.811  0.00  0.00    +0.000 A 
ATOM      9  C   UNL     1       2.413   7.642  18.823  0.00  0.00    +0.000 A 
ATOM     10  C   UNL     1       3.259   7.312  17.767  0.00  0.00    +0.000 A 
ATOM     11  C   UNL     1       3.912   6.083  17.748  0.00  0.00    +0.000 A 
ATOM     12  C   UNL     1       3.730   5.148  18.774  0.00  0.00    +0.000 A 
ATOM     13  C   UNL     1       2.883   5.479  19.858  0.00  0.00    +0.000 A 
ATOM     14  C   UNL     1       2.213   6.743  19.882  0.00  0.00    +0.000 A 
ATOM     15  C   UNL     1       1.344   7.161  20.905  0.00  0.00    +0.000 A 
ATOM     16  N   UNL     1       0.714   8.365  20.879  0.00  0.00    +0.000 N 
ATOM     17  C   UNL     1      -0.235   8.706  21.980  0.00  0.00    +0.000 C 
ATOM     18  C   UNL     1      -0.149  10.181  22.326  0.00  0.00    +0.000 C 
ENDROOT
BRANCH   1  20
ATOM     19  C   UNL     1      -3.523  13.695  20.813  0.00  0.00    +0.000 C 
ATOM     20  O   UNL     1      -2.292  13.906  20.140  0.00  0.00    +0.000 OA
ENDBRANCH   1  20
BRANCH   6  21
ATOM     21  O   UNL     1      -1.070  12.981  17.517  0.00  0.00    +0.000 OA
ATOM     22  H   UNL     1      -0.308  12.677  16.975  0.00  0.00    +0.000 HD
ENDBRANCH   6  21
BRANCH  12  23
ATOM     23  O   UNL     1       4.415   3.961  18.782  0.00  0.00    +0.000 OA
ATOM     24  C   UNL     1       3.863   2.912  17.981  0.00  0.00    +0.000 C 
ENDBRANCH  12  23
BRANCH  13  25
ATOM     25  O   UNL     1       2.594   4.684  20.951  0.00  0.00    +0.000 OA
ATOM     26  C   UNL     1       1.579   3.689  20.830  0.00  0.00    +0.000 C 
ENDBRANCH  13  25
TORSDOF 4
ENDMDL
MODEL 4
REMARK VINA RESULT:      -7.4      1.645      8.293
REMARK  Name = 
REMARK  7 active torsions:
REMARK  status: ('A' for Active; 'I' for Inactive)
REMARK    1  A    between atoms: C_1  and  O_2
REMARK    2  A    between atoms: O_2  and  C_3
REMARK    3  A    between atoms: C_8  and  O_9
REMARK    4  A    between atoms: C_15  and  O_16
REMARK    5  A    between atoms: O_16  and  C_17
REMARK    6  A    between atoms: C_18  and  O_19
REMARK    7  A    between atoms: O_19  and  C_20
REMARK                            x       y       z     vdW  Elec       q    Type
REMARK                         _______ _______ _______ _____ _____    ______ ____
ROOT
ATOM      1  C   UNL     1      -1.192  11.477  19.819  0.00  0.00    +0.000 A 
ATOM      2  C   UNL     1      -0.605  10.743  20.855  0.00  0.00    +0.000 A 
ATOM      3  C   UNL     1       0.366   9.762  20.602  0.00  0.00    +0.000 A 
ATOM      4  C   UNL     1       0.807   9.514  19.292  0.00  0.00    +0.000 A 
ATOM      5  C   UNL     1       0.239  10.281  18.264  0.00  0.00    +0.000 A 
ATOM      6  C   UNL     1      -0.737  11.248  18.525  0.00  0.00    +0.000 A 
ATOM      7  C   UNL     1       1.804   8.468  19.026  0.00  0.00    +0.000 A 
ATOM      8  C   UNL     1       2.581   8.409  17.868  0.00  0.00    +0.000 A 
ATOM      9  C   UNL     1       3.458   7.348  17.656  0.00  0.00    +0.000 A 
ATOM     10  C   UNL     1       4.196   7.307  16.477  0.00  0.00    +0.000 A 
ATOM     11  C   UNL     1       5.073   6.254  16.234  0.00  0.00    +0.000 A 
ATOM     12  C   UNL     1       5.229   5.211  17.156  0.00  0.00    +0.000 A 
ATOM     13  C   UNL     1       4.494   5.251  18.363  0.00  0.00    +0.000 A 
ATOM     14  C   UNL     1       3.593   6.334  18.617  0.00  0.00    +0.000 A 
ATOM     15  C   UNL     1       2.811   6.460  19.777  0.00  0.00    +0.000 A 
ATOM     16  N   UNL     1       1.954   7.498  19.970  0.00  0.00    +0.000 N 
ATOM     17  C   UNL     1       1.120   7.523  21.208  0.00  0.00    +0.000 C 
ATOM     18  C   UNL     1       0.955   8.944  21.715  0.00  0.00    +0.000 C 
ENDROOT
BRANCH   1  20
ATOM     19  C   UNL     1      -1.858  13.651  20.583  0.00  0.00    +0.000 C 
ATOM     20  O   UNL     1      -2.178  12.307  20.257  0.00  0.00    +0.000 OA
ENDBRANCH   1  20
BRANCH   6  21
ATOM     21  O   UNL     1      -1.175  11.912  17.417  0.00  0.00    +0.000 OA
ATOM     22  H   UNL     1      -1.193  11.241  16.698  0.00  0.00    +0.000 HD
ENDBRANCH   6  21
BRANCH  12  23
ATOM     23  O   UNL     1       6.133   4.203  16.941  0.00  0.00    +0.000 OA
ATOM     24  C   UNL     1       7.496   4.506  17.250  0.00  0.00    +0.000 C 
ENDBRANCH  12  23
BRANCH  13  25
ATOM     25  O   UNL     1       4.526   4.316  19.380  0.00  0.00    +0.000 OA
ATOM     26  C   UNL     1       3.856   3.071  19.192  0.00  0.00    +0.000 C 
ENDBRANCH  13  25
TORSDOF 4
ENDMDL
MODEL 5
REMARK VINA RESULT:      -7.3      2.160      3.568
REMARK  Name = 
REMARK  7 active torsions:
REMARK  status: ('A' for Active; 'I' for Inactive)
REMARK    1  A    between atoms: C_1  and  O_2
REMARK    2  A    between atoms: O_2  and  C_3
REMARK    3  A    between atoms: C_8  and  O_9
REMARK    4  A    between atoms: C_15  and  O_16
REMARK    5  A    between atoms: O_16  and  C_17
REMARK    6  A    between atoms: C_18  and  O_19
REMARK    7  A    between atoms: O_19  and  C_20
REMARK                            x       y       z     vdW  Elec       q    Type
REMARK                         _______ _______ _______ _____ _____    ______ ____
ROOT
ATOM      1  C   UNL     1       5.073   4.680  16.504  0.00  0.00    +0.000 A 
ATOM      2  C   UNL     1       4.146   4.162  17.415  0.00  0.00    +0.000 A 
ATOM      3  C   UNL     1       3.285   4.998  18.144  0.00  0.00    +0.000 A 
ATOM      4  C   UNL     1       3.305   6.388  17.948  0.00  0.00    +0.000 A 
ATOM      5  C   UNL     1       4.213   6.894  17.006  0.00  0.00    +0.000 A 
ATOM      6  C   UNL     1       5.074   6.054  16.294  0.00  0.00    +0.000 A 
ATOM      7  C   UNL     1       2.422   7.264  18.731  0.00  0.00    +0.000 A 
ATOM      8  C   UNL     1       2.082   8.564  18.354  0.00  0.00    +0.000 A 
ATOM      9  C   UNL     1       1.294   9.358  19.182  0.00  0.00    +0.000 A 
ATOM     10  C   UNL     1       0.996  10.660  18.787  0.00  0.00    +0.000 A 
ATOM     11  C   UNL     1       0.219  11.480  19.599  0.00  0.00    +0.000 A 
ATOM     12  C   UNL     1      -0.274  11.027  20.829  0.00  0.00    +0.000 A 
ATOM     13  C   UNL     1       0.010   9.701  21.233  0.00  0.00    +0.000 A 
ATOM     14  C   UNL     1       0.808   8.855  20.398  0.00  0.00    +0.000 A 
ATOM     15  C   UNL     1       1.155   7.531  20.714  0.00  0.00    +0.000 A 
ATOM     16  N   UNL     1       1.930   6.766  19.899  0.00  0.00    +0.000 N 
ATOM     17  C   UNL     1       2.296   5.387  20.338  0.00  0.00    +0.000 C 
ATOM     18  C   UNL     1       2.328   4.437  19.155  0.00  0.00    +0.000 C 
ENDROOT
BRANCH   1  20
ATOM     19  C   UNL     1       6.117   3.710  14.575  0.00  0.00    +0.000 C 
ATOM     20  O   UNL     1       5.879   3.720  15.974  0.00  0.00    +0.000 OA
ENDBRANCH   1  20
BRANCH   6  21
ATOM     21  O   UNL     1       5.883   6.704  15.409  0.00  0.00    +0.000 OA
ATOM     22  H   UNL     1       6.308   7.428  15.922  0.00  0.00    +0.000 HD
ENDBRANCH   6  21
BRANCH  12  23
ATOM     23  O   UNL     1      -1.085  11.816  21.603  0.00  0.00    +0.000 OA
ATOM     24  C   UNL     1      -0.496  13.018  22.107  0.00  0.00    +0.000 C 
ENDBRANCH  12  23
BRANCH  13  25
ATOM     25  O   UNL     1      -0.395   9.091  22.405  0.00  0.00    +0.000 OA
ATOM     26  C   UNL     1       0.220   9.479  23.632  0.00  0.00    +0.000 C 
ENDBRANCH  13  25
TORSDOF 4
ENDMDL
MODEL 6
REMARK VINA RESULT:      -7.2      2.013      7.747
REMARK  Name = 
REMARK  7 active torsions:
REMARK  status: ('A' for Active; 'I' for Inactive)
REMARK    1  A    between atoms: C_1  and  O_2
REMARK    2  A    between atoms: O_2  and  C_3
REMARK    3  A    between atoms: C_8  and  O_9
REMARK    4  A    between atoms: C_15  and  O_16
REMARK    5  A    between atoms: O_16  and  C_17
REMARK    6  A    between atoms: C_18  and  O_19
REMARK    7  A    between atoms: O_19  and  C_20
REMARK                            x       y       z     vdW  Elec       q    Type
REMARK                         _______ _______ _______ _____ _____    ______ ____
ROOT
ATOM      1  C   UNL     1      -0.853  10.665  21.996  0.00  0.00    +0.000 A 
ATOM      2  C   UNL     1      -0.767  10.787  20.605  0.00  0.00    +0.000 A 
ATOM      3  C   UNL     1       0.102   9.983  19.849  0.00  0.00    +0.000 A 
ATOM      4  C   UNL     1       0.887   8.999  20.471  0.00  0.00    +0.000 A 
ATOM      5  C   UNL     1       0.766   8.861  21.861  0.00  0.00    +0.000 A 
ATOM      6  C   UNL     1      -0.093   9.674  22.607  0.00  0.00    +0.000 A 
ATOM      7  C   UNL     1       1.816   8.178  19.681  0.00  0.00    +0.000 A 
ATOM      8  C   UNL     1       2.328   6.953  20.111  0.00  0.00    +0.000 A 
ATOM      9  C   UNL     1       3.256   6.263  19.336  0.00  0.00    +0.000 A 
ATOM     10  C   UNL     1       3.767   5.056  19.807  0.00  0.00    +0.000 A 
ATOM     11  C   UNL     1       4.704   4.350  19.058  0.00  0.00    +0.000 A 
ATOM     12  C   UNL     1       5.163   4.833  17.826  0.00  0.00    +0.000 A 
ATOM     13  C   UNL     1       4.639   6.051  17.332  0.00  0.00    +0.000 A 
ATOM     14  C   UNL     1       3.674   6.778  18.099  0.00  0.00    +0.000 A 
ATOM     15  C   UNL     1       3.104   8.000  17.702  0.00  0.00    +0.000 A 
ATOM     16  N   UNL     1       2.201   8.666  18.470  0.00  0.00    +0.000 N 
ATOM     17  C   UNL     1       1.687   9.986  17.997  0.00  0.00    +0.000 C 
ATOM     18  C   UNL     1       0.224  10.155  18.363  0.00  0.00    +0.000 C 
ENDROOT
BRANCH   1  20
ATOM     19  C   UNL     1      -1.138  12.847  22.950  0.00  0.00    +0.000 C 
ATOM     20  O   UNL     1      -1.676  11.595  22.554  0.00  0.00    +0.000 OA
ENDBRANCH   1  20
BRANCH   6  21
ATOM     21  O   UNL     1      -0.101   9.400  23.943  0.00  0.00    +0.000 OA
ATOM     22  H   UNL     1      -0.749   8.670  24.059  0.00  0.00    +0.000 HD
ENDBRANCH   6  21
BRANCH  12  23
ATOM     23  O   UNL     1       6.044   4.111  17.064  0.00  0.00    +0.000 OA
ATOM     24  C   UNL     1       7.432   4.375  17.290  0.00  0.00    +0.000 C 
ENDBRANCH  12  23
BRANCH  13  25
ATOM     25  O   UNL     1       4.973   6.670  16.143  0.00  0.00    +0.000 OA
ATOM     26  C   UNL     1       5.304   5.861  15.015  0.00  0.00    +0.000 C 
ENDBRANCH  13  25
TORSDOF 4
ENDMDL
MODEL 7
REMARK VINA RESULT:      -6.9      1.345      8.230
REMARK  Name = 
REMARK  7 active torsions:
REMARK  status: ('A' for Active; 'I' for Inactive)
REMARK    1  A    between atoms: C_1  and  O_2
REMARK    2  A    between atoms: O_2  and  C_3
REMARK    3  A    between atoms: C_8  and  O_9
REMARK    4  A    between atoms: C_15  and  O_16
REMARK    5  A    between atoms: O_16  and  C_17
REMARK    6  A    between atoms: C_18  and  O_19
REMARK    7  A    between atoms: O_19  and  C_20
REMARK                            x       y       z     vdW  Elec       q    Type
REMARK                         _______ _______ _______ _____ _____    ______ ____
ROOT
ATOM      1  C   UNL     1      -1.907  12.742  21.188  0.00  0.00    +0.000 A 
ATOM      2  C   UNL     1      -1.465  11.886  22.203  0.00  0.00    +0.000 A 
ATOM      3  C   UNL     1      -0.634  10.789  21.929  0.00  0.00    +0.000 A 
ATOM      4  C   UNL     1      -0.188  10.539  20.620  0.00  0.00    +0.000 A 
ATOM      5  C   UNL     1      -0.607  11.424  19.617  0.00  0.00    +0.000 A 
ATOM      6  C   UNL     1      -1.445  12.508  19.897  0.00  0.00    +0.000 A 
ATOM      7  C   UNL     1       0.659   9.374  20.332  0.00  0.00    +0.000 A 
ATOM      8  C   UNL     1       1.458   9.256  19.193  0.00  0.00    +0.000 A 
ATOM      9  C   UNL     1       2.183   8.092  18.954  0.00  0.00    +0.000 A 
ATOM     10  C   UNL     1       2.948   7.998  17.795  0.00  0.00    +0.000 A 
ATOM     11  C   UNL     1       3.675   6.842  17.525  0.00  0.00    +0.000 A 
ATOM     12  C   UNL     1       3.650   5.748  18.398  0.00  0.00    +0.000 A 
ATOM     13  C   UNL     1       2.887   5.839  19.586  0.00  0.00    +0.000 A 
ATOM     14  C   UNL     1       2.141   7.027  19.867  0.00  0.00    +0.000 A 
ATOM     15  C   UNL     1       1.345   7.211  21.011  0.00  0.00    +0.000 A 
ATOM     16  N   UNL     1       0.638   8.352  21.231  0.00  0.00    +0.000 N 
ATOM     17  C   UNL     1      -0.225   8.441  22.446  0.00  0.00    +0.000 C 
ATOM     18  C   UNL     1      -0.205   9.847  23.016  0.00  0.00    +0.000 C 
ENDROOT
BRANCH   1  20
ATOM     19  C   UNL     1      -2.309  14.707  22.503  0.00  0.00    +0.000 C 
ATOM     20  O   UNL     1      -2.779  13.685  21.639  0.00  0.00    +0.000 OA
ENDBRANCH   1  20
BRANCH   6  21
ATOM     21  O   UNL     1      -1.747  13.276  18.812  0.00  0.00    +0.000 OA
ATOM     22  H   UNL     1      -2.713  13.449  18.872  0.00  0.00    +0.000 HD
ENDBRANCH   6  21
BRANCH  12  23
ATOM     23  O   UNL     1       4.409   4.632  18.160  0.00  0.00    +0.000 OA
ATOM     24  C   UNL     1       4.214   3.999  16.891  0.00  0.00    +0.000 C 
ENDBRANCH  12  23
BRANCH  13  25
ATOM     25  O   UNL     1       2.753   4.864  20.557  0.00  0.00    +0.000 OA
ATOM     26  C   UNL     1       2.032   3.674  20.242  0.00  0.00    +0.000 C 
ENDBRANCH  13  25
TORSDOF 4
ENDMDL
