MODEL 1
REMARK VINA RESULT:      -8.9      0.000      0.000
REMARK  Name = 
REMARK  9 active torsions:
REMARK  status: ('A' for Active; 'I' for Inactive)
REMARK    1  A    between atoms: C_2  and  C_4
REMARK    2  A    between atoms: C_6  and  C_7
REMARK    3  A    between atoms: C_7  and  O_8
REMARK    4  A    between atoms: C_7  and  C_9
REMARK    5  A    between atoms: C_9  and  O_10
REMARK    6  A    between atoms: C_12  and  C_13
REMARK    7  A    between atoms: C_16  and  O_17
REMARK    8  A    between atoms: O_17  and  C_18
REMARK    9  A    between atoms: C_21  and  C_22
REMARK                            x       y       z     vdW  Elec       q    Type
REMARK                         _______ _______ _______ _____ _____    ______ ____
ROOT
ATOM      1  C   UNL     1       5.570   4.968  17.416  0.00  0.00    +0.000 A 
ATOM      2  C   UNL     1       5.018   3.706  17.468  0.00  0.00    +0.000 A 
ATOM      3  C   UNL     1       3.688   3.636  17.831  0.00  0.00    +0.000 A 
ATOM      4  N   UNL     1       2.980   4.746  18.128  0.00  0.00    +0.000 NA
ATOM      5  C   UNL     1       3.610   5.936  18.063  0.00  0.00    +0.000 A 
ATOM      6  N   UNL     1       4.894   6.101  17.710  0.00  0.00    +0.000 NA
ENDROOT
BRANCH   5   7
ATOM      7  C   UNL     1       2.840   7.139  18.418  0.00  0.00    +0.000 A 
ATOM      8  C   UNL     1       2.735   8.239  17.544  0.00  0.00    +0.000 A 
ATOM      9  C   UNL     1       1.997   9.375  17.893  0.00  0.00    +0.000 A 
ATOM     10  C   UNL     1       1.347   9.434  19.124  0.00  0.00    +0.000 A 
ATOM     11  C   UNL     1       1.473   8.373  20.019  0.00  0.00    +0.000 A 
ATOM     12  C   UNL     1       2.183   7.230  19.656  0.00  0.00    +0.000 A 
BRANCH  10  13
ATOM     13  O   UNL     1       0.658  10.595  19.392  0.00  0.00    +0.000 OA
BRANCH  13  14
ATOM     14  C   UNL     1      -0.637  10.740  18.949  0.00  0.00    +0.000 A 
ATOM     15  C   UNL     1      -1.399  11.718  19.586  0.00  0.00    +0.000 A 
ATOM     16  C   UNL     1      -2.722  11.941  19.200  0.00  0.00    +0.000 A 
ATOM     17  C   UNL     1      -3.298  11.189  18.161  0.00  0.00    +0.000 A 
ATOM     18  C   UNL     1      -2.524  10.217  17.518  0.00  0.00    +0.000 A 
ATOM     19  C   UNL     1      -1.194  10.015  17.890  0.00  0.00    +0.000 A 
BRANCH  17  20
ATOM     20  C   UNL     1      -4.716  11.433  17.712  0.00  0.00    +0.000 C 
ATOM     21  F   UNL     1      -5.242  12.599  18.180  0.00  0.00    +0.000 F 
ATOM     22  F   UNL     1      -4.825  11.494  16.356  0.00  0.00    +0.000 F 
ATOM     23  F   UNL     1      -5.567  10.451  18.113  0.00  0.00    +0.000 F 
ENDBRANCH  17  20
ENDBRANCH  13  14
ENDBRANCH  10  13
ENDBRANCH   5   7
BRANCH   1  25
ATOM     24  N   UNL     1       7.920   4.377  17.696  0.00  0.00    +0.000 N 
ATOM     25  C   UNL     1       7.001   5.140  17.030  0.00  0.00    +0.000 C 
ATOM     26  O   UNL     1       7.339   5.919  16.141  0.00  0.00    +0.000 OA
ATOM     27  H   UNL     1       8.891   4.437  17.416  0.00  0.00    +0.000 HD
ATOM     28  H   UNL     1       7.626   3.674  18.363  0.00  0.00    +0.000 HD
ENDBRANCH   1  25
BRANCH   3  29
ATOM     29  C   UNL     1       2.981   2.287  17.902  0.00  0.00    +0.000 C 
BRANCH  29  30
ATOM     30  O   UNL     1       3.951   1.248  18.070  0.00  0.00    +0.000 OA
ATOM     31  H   UNL     1       4.203   1.230  19.010  0.00  0.00    +0.000 HD
ENDBRANCH  29  30
BRANCH  29  32
ATOM     32  C   UNL     1       1.942   2.191  19.039  0.00  0.00    +0.000 C 
BRANCH  32  33
ATOM     33  O   UNL     1       2.436   2.692  20.280  0.00  0.00    +0.000 OA
ATOM     34  H   UNL     1       1.651   2.858  20.838  0.00  0.00    +0.000 HD
ENDBRANCH  32  33
ENDBRANCH  29  32
ENDBRANCH   3  29
TORSDOF 9
ENDMDL
MODEL 2
REMARK VINA RESULT:      -8.8      0.099      1.126
REMARK  Name = 
REMARK  9 active torsions:
REMARK  status: ('A' for Active; 'I' for Inactive)
REMARK    1  A    between atoms: C_2  and  C_4
REMARK    2  A    between atoms: C_6  and  C_7
REMARK    3  A    between atoms: C_7  and  O_8
REMARK    4  A    between atoms: C_7  and  C_9
REMARK    5  A    between atoms: C_9  and  O_10
REMARK    6  A    between atoms: C_12  and  C_13
REMARK    7  A    between atoms: C_16  and  O_17
REMARK    8  A    between atoms: O_17  and  C_18
REMARK    9  A    between atoms: C_21  and  C_22
REMARK                            x       y       z     vdW  Elec       q    Type
REMARK                         _______ _______ _______ _____ _____    ______ ____
ROOT
ATOM      1  C   UNL     1       5.541   4.976  17.435  0.00  0.00    +0.000 A 
ATOM      2  C   UNL     1       4.979   3.718  17.455  0.00  0.00    +0.000 A 
ATOM      3  C   UNL     1       3.643   3.653  17.796  0.00  0.00    +0.000 A 
ATOM      4  N   UNL     1       2.939   4.763  18.104  0.00  0.00    +0.000 NA
ATOM      5  C   UNL     1       3.580   5.949  18.072  0.00  0.00    +0.000 A 
ATOM      6  N   UNL     1       4.871   6.109  17.742  0.00  0.00    +0.000 NA
ENDROOT
BRANCH   5   7
ATOM      7  C   UNL     1       2.815   7.151  18.438  0.00  0.00    +0.000 A 
ATOM      8  C   UNL     1       2.175   7.273  19.687  0.00  0.00    +0.000 A 
ATOM      9  C   UNL     1       1.453   8.423  20.023  0.00  0.00    +0.000 A 
ATOM     10  C   UNL     1       1.357   9.477  19.117  0.00  0.00    +0.000 A 
ATOM     11  C   UNL     1       1.950   9.358  17.861  0.00  0.00    +0.000 A 
ATOM     12  C   UNL     1       2.694   8.224  17.541  0.00  0.00    +0.000 A 
BRANCH  10  13
ATOM     13  O   UNL     1       0.615  10.562  19.523  0.00  0.00    +0.000 OA
BRANCH  13  14
ATOM     14  C   UNL     1      -0.665  10.733  19.047  0.00  0.00    +0.000 A 
ATOM     15  C   UNL     1      -1.431  11.710  19.680  0.00  0.00    +0.000 A 
ATOM     16  C   UNL     1      -2.740  11.958  19.262  0.00  0.00    +0.000 A 
ATOM     17  C   UNL     1      -3.297  11.232  18.194  0.00  0.00    +0.000 A 
ATOM     18  C   UNL     1      -2.518  10.260  17.556  0.00  0.00    +0.000 A 
ATOM     19  C   UNL     1      -1.201  10.033  17.960  0.00  0.00    +0.000 A 
BRANCH  17  20
ATOM     20  C   UNL     1      -4.698  11.503  17.711  0.00  0.00    +0.000 C 
ATOM     21  F   UNL     1      -5.584  10.519  18.029  0.00  0.00    +0.000 F 
ATOM     22  F   UNL     1      -5.212  12.650  18.236  0.00  0.00    +0.000 F 
ATOM     23  F   UNL     1      -4.766  11.646  16.359  0.00  0.00    +0.000 F 
ENDBRANCH  17  20
ENDBRANCH  13  14
ENDBRANCH  10  13
ENDBRANCH   5   7
BRANCH   1  25
ATOM     24  N   UNL     1       7.883   4.360  17.739  0.00  0.00    +0.000 N 
ATOM     25  C   UNL     1       6.980   5.142  17.074  0.00  0.00    +0.000 C 
ATOM     26  O   UNL     1       7.338   5.935  16.205  0.00  0.00    +0.000 OA
ATOM     27  H   UNL     1       8.857   4.416  17.475  0.00  0.00    +0.000 HD
ATOM     28  H   UNL     1       7.572   3.647  18.389  0.00  0.00    +0.000 HD
ENDBRANCH   1  25
BRANCH   3  29
ATOM     29  C   UNL     1       2.923   2.309  17.831  0.00  0.00    +0.000 C 
BRANCH  29  30
ATOM     30  O   UNL     1       3.871   1.266  18.079  0.00  0.00    +0.000 OA
ATOM     31  H   UNL     1       4.433   1.549  18.822  0.00  0.00    +0.000 HD
ENDBRANCH  29  30
BRANCH  29  32
ATOM     32  C   UNL     1       1.804   2.232  18.891  0.00  0.00    +0.000 C 
BRANCH  32  33
ATOM     33  O   UNL     1       2.191   2.801  20.141  0.00  0.00    +0.000 OA
ATOM     34  H   UNL     1       2.486   3.712  19.945  0.00  0.00    +0.000 HD
ENDBRANCH  32  33
ENDBRANCH  29  32
ENDBRANCH   3  29
TORSDOF 9
ENDMDL
MODEL 3
REMARK VINA RESULT:      -8.7      1.519      2.066
REMARK  Name = 
REMARK  9 active torsions:
REMARK  status: ('A' for Active; 'I' for Inactive)
REMARK    1  A    between atoms: C_2  and  C_4
REMARK    2  A    between atoms: C_6  and  C_7
REMARK    3  A    between atoms: C_7  and  O_8
REMARK    4  A    between atoms: C_7  and  C_9
REMARK    5  A    between atoms: C_9  and  O_10
REMARK    6  A    between atoms: C_12  and  C_13
REMARK    7  A    between atoms: C_16  and  O_17
REMARK    8  A    between atoms: O_17  and  C_18
REMARK    9  A    between atoms: C_21  and  C_22
REMARK                            x       y       z     vdW  Elec       q    Type
REMARK                         _______ _______ _______ _____ _____    ______ ____
ROOT
ATOM      1  C   UNL     1       4.820   4.895  19.305  0.00  0.00    +0.000 A 
ATOM      2  C   UNL     1       4.114   3.752  19.609  0.00  0.00    +0.000 A 
ATOM      3  C   UNL     1       2.747   3.897  19.743  0.00  0.00    +0.000 A 
ATOM      4  N   UNL     1       2.149   5.097  19.597  0.00  0.00    +0.000 NA
ATOM      5  C   UNL     1       2.925   6.163  19.316  0.00  0.00    +0.000 A 
ATOM      6  N   UNL     1       4.256   6.115  19.156  0.00  0.00    +0.000 NA
ENDROOT
BRANCH   5   7
ATOM      7  C   UNL     1       2.269   7.474  19.188  0.00  0.00    +0.000 A 
ATOM      8  C   UNL     1       2.332   8.224  17.997  0.00  0.00    +0.000 A 
ATOM      9  C   UNL     1       1.701   9.467  17.888  0.00  0.00    +0.000 A 
ATOM     10  C   UNL     1       0.993   9.988  18.970  0.00  0.00    +0.000 A 
ATOM     11  C   UNL     1       0.955   9.279  20.170  0.00  0.00    +0.000 A 
ATOM     12  C   UNL     1       1.557   8.027  20.265  0.00  0.00    +0.000 A 
BRANCH  10  13
ATOM     13  O   UNL     1       0.418  11.223  18.782  0.00  0.00    +0.000 OA
BRANCH  13  14
ATOM     14  C   UNL     1      -0.950  11.333  18.674  0.00  0.00    +0.000 A 
ATOM     15  C   UNL     1      -1.556  10.538  17.702  0.00  0.00    +0.000 A 
ATOM     16  C   UNL     1      -2.940  10.578  17.525  0.00  0.00    +0.000 A 
ATOM     17  C   UNL     1      -3.739  11.412  18.327  0.00  0.00    +0.000 A 
ATOM     18  C   UNL     1      -3.124  12.199  19.309  0.00  0.00    +0.000 A 
ATOM     19  C   UNL     1      -1.743  12.137  19.500  0.00  0.00    +0.000 A 
BRANCH  17  20
ATOM     20  C   UNL     1      -5.236  11.450  18.169  0.00  0.00    +0.000 C 
ATOM     21  F   UNL     1      -5.854  10.298  18.552  0.00  0.00    +0.000 F 
ATOM     22  F   UNL     1      -5.809  12.442  18.906  0.00  0.00    +0.000 F 
ATOM     23  F   UNL     1      -5.620  11.670  16.882  0.00  0.00    +0.000 F 
ENDBRANCH  17  20
ENDBRANCH  13  14
ENDBRANCH  10  13
ENDBRANCH   5   7
BRANCH   1  25
ATOM     24  N   UNL     1       6.776   4.194  18.026  0.00  0.00    +0.000 N 
ATOM     25  C   UNL     1       6.302   4.833  19.138  0.00  0.00    +0.000 C 
ATOM     26  O   UNL     1       7.064   5.349  19.954  0.00  0.00    +0.000 OA
ATOM     27  H   UNL     1       7.774   4.185  17.863  0.00  0.00    +0.000 HD
ATOM     28  H   UNL     1       6.141   3.851  17.315  0.00  0.00    +0.000 HD
ENDBRANCH   1  25
BRANCH   3  29
ATOM     29  C   UNL     1       1.874   2.688  20.062  0.00  0.00    +0.000 C 
BRANCH  29  30
ATOM     30  O   UNL     1       0.997   3.006  21.147  0.00  0.00    +0.000 OA
ATOM     31  H   UNL     1       1.188   2.384  21.872  0.00  0.00    +0.000 HD
ENDBRANCH  29  30
BRANCH  29  32
ATOM     32  C   UNL     1       1.034   2.197  18.865  0.00  0.00    +0.000 C 
BRANCH  32  33
ATOM     33  O   UNL     1       1.026   3.125  17.781  0.00  0.00    +0.000 OA
ATOM     34  H   UNL     1       1.483   3.926  18.106  0.00  0.00    +0.000 HD
ENDBRANCH  32  33
ENDBRANCH  29  32
ENDBRANCH   3  29
TORSDOF 9
ENDMDL
MODEL 4
REMARK VINA RESULT:      -8.6      1.389      1.504
REMARK  Name = 
REMARK  9 active torsions:
REMARK  status: ('A' for Active; 'I' for Inactive)
REMARK    1  A    between atoms: C_2  and  C_4
REMARK    2  A    between atoms: C_6  and  C_7
REMARK    3  A    between atoms: C_7  and  O_8
REMARK    4  A    between atoms: C_7  and  C_9
REMARK    5  A    between atoms: C_9  and  O_10
REMARK    6  A    between atoms: C_12  and  C_13
REMARK    7  A    between atoms: C_16  and  O_17
REMARK    8  A    between atoms: O_17  and  C_18
REMARK    9  A    between atoms: C_21  and  C_22
REMARK                            x       y       z     vdW  Elec       q    Type
REMARK                         _______ _______ _______ _____ _____    ______ ____
ROOT
ATOM      1  C   UNL     1       5.277   4.856  19.203  0.00  0.00    +0.000 A 
ATOM      2  C   UNL     1       4.631   3.661  19.433  0.00  0.00    +0.000 A 
ATOM      3  C   UNL     1       3.253   3.717  19.507  0.00  0.00    +0.000 A 
ATOM      4  N   UNL     1       2.588   4.884  19.374  0.00  0.00    +0.000 NA
ATOM      5  C   UNL     1       3.308   6.004  19.167  0.00  0.00    +0.000 A 
ATOM      6  N   UNL     1       4.645   6.044  19.069  0.00  0.00    +0.000 NA
ENDROOT
BRANCH   5   7
ATOM      7  C   UNL     1       2.577   7.277  19.054  0.00  0.00    +0.000 A 
ATOM      8  C   UNL     1       2.620   8.057  17.882  0.00  0.00    +0.000 A 
ATOM      9  C   UNL     1       1.918   9.263  17.786  0.00  0.00    +0.000 A 
ATOM     10  C   UNL     1       1.157   9.715  18.862  0.00  0.00    +0.000 A 
ATOM     11  C   UNL     1       1.135   8.977  20.045  0.00  0.00    +0.000 A 
ATOM     12  C   UNL     1       1.810   7.761  20.126  0.00  0.00    +0.000 A 
BRANCH  10  13
ATOM     13  O   UNL     1       0.513  10.918  18.688  0.00  0.00    +0.000 OA
BRANCH  13  14
ATOM     14  C   UNL     1      -0.852  10.945  18.510  0.00  0.00    +0.000 A 
ATOM     15  C   UNL     1      -1.545  11.925  19.218  0.00  0.00    +0.000 A 
ATOM     16  C   UNL     1      -2.932  12.032  19.095  0.00  0.00    +0.000 A 
ATOM     17  C   UNL     1      -3.643  11.160  18.252  0.00  0.00    +0.000 A 
ATOM     18  C   UNL     1      -2.938  10.186  17.535  0.00  0.00    +0.000 A 
ATOM     19  C   UNL     1      -1.549  10.099  17.641  0.00  0.00    +0.000 A 
BRANCH  17  20
ATOM     20  C   UNL     1      -5.136  11.277  18.085  0.00  0.00    +0.000 C 
ATOM     21  F   UNL     1      -5.662  12.392  18.664  0.00  0.00    +0.000 F 
ATOM     22  F   UNL     1      -5.507  11.327  16.776  0.00  0.00    +0.000 F 
ATOM     23  F   UNL     1      -5.806  10.223  18.625  0.00  0.00    +0.000 F 
ENDBRANCH  17  20
ENDBRANCH  13  14
ENDBRANCH  10  13
ENDBRANCH   5   7
BRANCH   1  25
ATOM     24  N   UNL     1       7.329   4.318  17.998  0.00  0.00    +0.000 N 
ATOM     25  C   UNL     1       6.765   4.891  19.104  0.00  0.00    +0.000 C 
ATOM     26  O   UNL     1       7.456   5.427  19.968  0.00  0.00    +0.000 OA
ATOM     27  H   UNL     1       8.332   4.375  17.882  0.00  0.00    +0.000 HD
ATOM     28  H   UNL     1       6.750   3.958  17.248  0.00  0.00    +0.000 HD
ENDBRANCH   1  25
BRANCH   3  29
ATOM     29  C   UNL     1       2.444   2.447  19.742  0.00  0.00    +0.000 C 
BRANCH  29  30
ATOM     30  O   UNL     1       1.598   2.624  20.882  0.00  0.00    +0.000 OA
ATOM     31  H   UNL     1       1.969   3.350  21.415  0.00  0.00    +0.000 HD
ENDBRANCH  29  30
BRANCH  29  32
ATOM     32  C   UNL     1       1.579   2.030  18.535  0.00  0.00    +0.000 C 
BRANCH  32  33
ATOM     33  O   UNL     1       0.760   3.094  18.053  0.00  0.00    +0.000 OA
ATOM     34  H   UNL     1       0.897   3.842  18.666  0.00  0.00    +0.000 HD
ENDBRANCH  32  33
ENDBRANCH  29  32
ENDBRANCH   3  29
TORSDOF 9
ENDMDL
MODEL 5
REMARK VINA RESULT:      -8.6      1.554      3.468
REMARK  Name = 
REMARK  9 active torsions:
REMARK  status: ('A' for Active; 'I' for Inactive)
REMARK    1  A    between atoms: C_2  and  C_4
REMARK    2  A    between atoms: C_6  and  C_7
REMARK    3  A    between atoms: C_7  and  O_8
REMARK    4  A    between atoms: C_7  and  C_9
REMARK    5  A    between atoms: C_9  and  O_10
REMARK    6  A    between atoms: C_12  and  C_13
REMARK    7  A    between atoms: C_16  and  O_17
REMARK    8  A    between atoms: O_17  and  C_18
REMARK    9  A    between atoms: C_21  and  C_22
REMARK                            x       y       z     vdW  Elec       q    Type
REMARK                         _______ _______ _______ _____ _____    ______ ____
ROOT
ATOM      1  C   UNL     1       2.968   3.974  20.191  0.00  0.00    +0.000 A 
ATOM      2  C   UNL     1       4.030   3.596  19.399  0.00  0.00    +0.000 A 
ATOM      3  C   UNL     1       4.514   4.553  18.530  0.00  0.00    +0.000 A 
ATOM      4  N   UNL     1       3.961   5.782  18.457  0.00  0.00    +0.000 NA
ATOM      5  C   UNL     1       2.914   6.055  19.261  0.00  0.00    +0.000 A 
ATOM      6  N   UNL     1       2.386   5.193  20.143  0.00  0.00    +0.000 NA
ENDROOT
BRANCH   5   7
ATOM      7  C   UNL     1       2.297   7.387  19.154  0.00  0.00    +0.000 A 
ATOM      8  C   UNL     1       1.588   7.965  20.225  0.00  0.00    +0.000 A 
ATOM      9  C   UNL     1       1.009   9.234  20.111  0.00  0.00    +0.000 A 
ATOM     10  C   UNL     1       1.128   9.951  18.923  0.00  0.00    +0.000 A 
ATOM     11  C   UNL     1       1.792   9.378  17.838  0.00  0.00    +0.000 A 
ATOM     12  C   UNL     1       2.394   8.128  17.965  0.00  0.00    +0.000 A 
BRANCH  10  13
ATOM     13  O   UNL     1       0.515  11.182  18.892  0.00  0.00    +0.000 OA
BRANCH  13  14
ATOM     14  C   UNL     1      -0.846  11.265  18.698  0.00  0.00    +0.000 A 
ATOM     15  C   UNL     1      -1.542  12.097  19.574  0.00  0.00    +0.000 A 
ATOM     16  C   UNL     1      -2.924  12.248  19.450  0.00  0.00    +0.000 A 
ATOM     17  C   UNL     1      -3.628  11.570  18.439  0.00  0.00    +0.000 A 
ATOM     18  C   UNL     1      -2.920  10.746  17.556  0.00  0.00    +0.000 A 
ATOM     19  C   UNL     1      -1.535  10.618  17.667  0.00  0.00    +0.000 A 
BRANCH  17  20
ATOM     20  C   UNL     1      -5.115  11.741  18.272  0.00  0.00    +0.000 C 
ATOM     21  F   UNL     1      -5.794  10.563  18.194  0.00  0.00    +0.000 F 
ATOM     22  F   UNL     1      -5.676  12.425  19.309  0.00  0.00    +0.000 F 
ATOM     23  F   UNL     1      -5.440  12.436  17.148  0.00  0.00    +0.000 F 
ENDBRANCH  17  20
ENDBRANCH  13  14
ENDBRANCH  10  13
ENDBRANCH   5   7
BRANCH   1  25
ATOM     24  N   UNL     1       1.022   2.865  21.159  0.00  0.00    +0.000 N 
ATOM     25  C   UNL     1       2.382   3.006  21.163  0.00  0.00    +0.000 C 
ATOM     26  O   UNL     1       3.091   2.348  21.924  0.00  0.00    +0.000 OA
ATOM     27  H   UNL     1       0.606   2.176  21.772  0.00  0.00    +0.000 HD
ATOM     28  H   UNL     1       0.454   3.342  20.470  0.00  0.00    +0.000 HD
ENDBRANCH   1  25
BRANCH   3  29
ATOM     29  C   UNL     1       5.698   4.239  17.622  0.00  0.00    +0.000 C 
BRANCH  29  30
ATOM     30  O   UNL     1       5.444   4.752  16.311  0.00  0.00    +0.000 OA
ATOM     31  H   UNL     1       4.523   4.533  16.082  0.00  0.00    +0.000 HD
ENDBRANCH  29  30
BRANCH  29  32
ATOM     32  C   UNL     1       7.038   4.808  18.132  0.00  0.00    +0.000 C 
BRANCH  32  33
ATOM     33  O   UNL     1       8.166   4.086  17.638  0.00  0.00    +0.000 OA
ATOM     34  H   UNL     1       8.943   4.659  17.790  0.00  0.00    +0.000 HD
ENDBRANCH  32  33
ENDBRANCH  29  32
ENDBRANCH   3  29
TORSDOF 9
ENDMDL
MODEL 6
REMARK VINA RESULT:      -8.6      1.431      3.216
REMARK  Name = 
REMARK  9 active torsions:
REMARK  status: ('A' for Active; 'I' for Inactive)
REMARK    1  A    between atoms: C_2  and  C_4
REMARK    2  A    between atoms: C_6  and  C_7
REMARK    3  A    between atoms: C_7  and  O_8
REMARK    4  A    between atoms: C_7  and  C_9
REMARK    5  A    between atoms: C_9  and  O_10
REMARK    6  A    between atoms: C_12  and  C_13
REMARK    7  A    between atoms: C_16  and  O_17
REMARK    8  A    between atoms: O_17  and  C_18
REMARK    9  A    between atoms: C_21  and  C_22
REMARK                            x       y       z     vdW  Elec       q    Type
REMARK                         _______ _______ _______ _____ _____    ______ ____
ROOT
ATOM      1  C   UNL     1       3.068   3.659  19.428  0.00  0.00    +0.000 A 
ATOM      2  C   UNL     1       4.408   3.509  19.144  0.00  0.00    +0.000 A 
ATOM      3  C   UNL     1       5.100   4.664  18.841  0.00  0.00    +0.000 A 
ATOM      4  N   UNL     1       4.487   5.866  18.814  0.00  0.00    +0.000 NA
ATOM      5  C   UNL     1       3.168   5.911  19.090  0.00  0.00    +0.000 A 
ATOM      6  N   UNL     1       2.419   4.844  19.406  0.00  0.00    +0.000 NA
ENDROOT
BRANCH   5   7
ATOM      7  C   UNL     1       2.500   7.221  19.029  0.00  0.00    +0.000 A 
ATOM      8  C   UNL     1       2.568   8.037  17.883  0.00  0.00    +0.000 A 
ATOM      9  C   UNL     1       1.925   9.278  17.836  0.00  0.00    +0.000 A 
ATOM     10  C   UNL     1       1.200   9.730  18.937  0.00  0.00    +0.000 A 
ATOM     11  C   UNL     1       1.155   8.955  20.095  0.00  0.00    +0.000 A 
ATOM     12  C   UNL     1       1.770   7.705  20.126  0.00  0.00    +0.000 A 
BRANCH  10  13
ATOM     13  O   UNL     1       0.614  10.969  18.811  0.00  0.00    +0.000 OA
BRANCH  13  14
ATOM     14  C   UNL     1      -0.750  11.069  18.657  0.00  0.00    +0.000 A 
ATOM     15  C   UNL     1      -1.376  12.090  19.370  0.00  0.00    +0.000 A 
ATOM     16  C   UNL     1      -2.757  12.272  19.271  0.00  0.00    +0.000 A 
ATOM     17  C   UNL     1      -3.529  11.434  18.447  0.00  0.00    +0.000 A 
ATOM     18  C   UNL     1      -2.892  10.418  17.725  0.00  0.00    +0.000 A 
ATOM     19  C   UNL     1      -1.508  10.256  17.807  0.00  0.00    +0.000 A 
BRANCH  17  20
ATOM     20  C   UNL     1      -5.017  11.631  18.306  0.00  0.00    +0.000 C 
ATOM     21  F   UNL     1      -5.607  12.140  19.424  0.00  0.00    +0.000 F 
ATOM     22  F   UNL     1      -5.330  12.490  17.296  0.00  0.00    +0.000 F 
ATOM     23  F   UNL     1      -5.674  10.472  18.030  0.00  0.00    +0.000 F 
ENDBRANCH  17  20
ENDBRANCH  13  14
ENDBRANCH  10  13
ENDBRANCH   5   7
BRANCH   1  25
ATOM     24  N   UNL     1       2.045   1.540  18.781  0.00  0.00    +0.000 N 
ATOM     25  C   UNL     1       2.241   2.465  19.769  0.00  0.00    +0.000 C 
ATOM     26  O   UNL     1       1.769   2.308  20.894  0.00  0.00    +0.000 OA
ATOM     27  H   UNL     1       1.533   0.696  19.004  0.00  0.00    +0.000 HD
ATOM     28  H   UNL     1       2.510   1.631  17.886  0.00  0.00    +0.000 HD
ENDBRANCH   1  25
BRANCH   3  29
ATOM     29  C   UNL     1       6.591   4.607  18.529  0.00  0.00    +0.000 C 
BRANCH  29  30
ATOM     30  O   UNL     1       6.783   4.616  17.111  0.00  0.00    +0.000 OA
ATOM     31  H   UNL     1       5.904   4.665  16.695  0.00  0.00    +0.000 HD
ENDBRANCH  29  30
BRANCH  29  32
ATOM     32  C   UNL     1       7.401   5.763  19.152  0.00  0.00    +0.000 C 
BRANCH  32  33
ATOM     33  O   UNL     1       7.937   5.433  20.432  0.00  0.00    +0.000 OA
ATOM     34  H   UNL     1       8.840   5.806  20.453  0.00  0.00    +0.000 HD
ENDBRANCH  32  33
ENDBRANCH  29  32
ENDBRANCH   3  29
TORSDOF 9
ENDMDL
MODEL 7
REMARK VINA RESULT:      -8.6      1.143      3.051
REMARK  Name = 
REMARK  9 active torsions:
REMARK  status: ('A' for Active; 'I' for Inactive)
REMARK    1  A    between atoms: C_2  and  C_4
REMARK    2  A    between atoms: C_6  and  C_7
REMARK    3  A    between atoms: C_7  and  O_8
REMARK    4  A    between atoms: C_7  and  C_9
REMARK    5  A    between atoms: C_9  and  O_10
REMARK    6  A    between atoms: C_12  and  C_13
REMARK    7  A    between atoms: C_16  and  O_17
REMARK    8  A    between atoms: O_17  and  C_18
REMARK    9  A    between atoms: C_21  and  C_22
REMARK                            x       y       z     vdW  Elec       q    Type
REMARK                         _______ _______ _______ _____ _____    ______ ____
ROOT
ATOM      1  C   UNL     1       3.367   3.813  17.982  0.00  0.00    +0.000 A 
ATOM      2  C   UNL     1       4.693   3.848  17.608  0.00  0.00    +0.000 A 
ATOM      3  C   UNL     1       5.302   5.087  17.634  0.00  0.00    +0.000 A 
ATOM      4  N   UNL     1       4.624   6.197  17.994  0.00  0.00    +0.000 NA
ATOM      5  C   UNL     1       3.324   6.066  18.328  0.00  0.00    +0.000 A 
ATOM      6  N   UNL     1       2.655   4.903  18.343  0.00  0.00    +0.000 NA
ENDROOT
BRANCH   5   7
ATOM      7  C   UNL     1       2.583   7.285  18.689  0.00  0.00    +0.000 A 
ATOM      8  C   UNL     1       2.512   8.395  17.825  0.00  0.00    +0.000 A 
ATOM      9  C   UNL     1       1.802   9.546  18.179  0.00  0.00    +0.000 A 
ATOM     10  C   UNL     1       1.146   9.612  19.407  0.00  0.00    +0.000 A 
ATOM     11  C   UNL     1       1.240   8.539  20.293  0.00  0.00    +0.000 A 
ATOM     12  C   UNL     1       1.922   7.382  19.924  0.00  0.00    +0.000 A 
BRANCH  10  13
ATOM     13  O   UNL     1       0.486  10.787  19.682  0.00  0.00    +0.000 OA
BRANCH  13  14
ATOM     14  C   UNL     1      -0.805  10.967  19.238  0.00  0.00    +0.000 A 
ATOM     15  C   UNL     1      -1.538  11.971  19.870  0.00  0.00    +0.000 A 
ATOM     16  C   UNL     1      -2.854  12.230  19.483  0.00  0.00    +0.000 A 
ATOM     17  C   UNL     1      -3.452  11.489  18.448  0.00  0.00    +0.000 A 
ATOM     18  C   UNL     1      -2.706  10.491  17.811  0.00  0.00    +0.000 A 
ATOM     19  C   UNL     1      -1.382  10.253  18.183  0.00  0.00    +0.000 A 
BRANCH  17  20
ATOM     20  C   UNL     1      -4.862  11.772  17.999  0.00  0.00    +0.000 C 
ATOM     21  F   UNL     1      -4.950  12.171  16.700  0.00  0.00    +0.000 F 
ATOM     22  F   UNL     1      -5.667  10.678  18.107  0.00  0.00    +0.000 F 
ATOM     23  F   UNL     1      -5.458  12.750  18.733  0.00  0.00    +0.000 F 
ENDBRANCH  17  20
ENDBRANCH  13  14
ENDBRANCH  10  13
ENDBRANCH   5   7
BRANCH   1  25
ATOM     24  N   UNL     1       3.364   1.383  18.200  0.00  0.00    +0.000 N 
ATOM     25  C   UNL     1       2.629   2.516  17.987  0.00  0.00    +0.000 C 
ATOM     26  O   UNL     1       1.411   2.468  17.825  0.00  0.00    +0.000 OA
ATOM     27  H   UNL     1       2.879   0.497  18.260  0.00  0.00    +0.000 HD
ATOM     28  H   UNL     1       4.351   1.438  18.421  0.00  0.00    +0.000 HD
ENDBRANCH   1  25
BRANCH   3  29
ATOM     29  C   UNL     1       6.771   5.229  17.255  0.00  0.00    +0.000 C 
BRANCH  29  30
ATOM     30  O   UNL     1       6.922   6.306  16.325  0.00  0.00    +0.000 OA
ATOM     31  H   UNL     1       6.705   7.132  16.793  0.00  0.00    +0.000 HD
ENDBRANCH  29  30
BRANCH  29  32
ATOM     32  C   UNL     1       7.703   5.474  18.460  0.00  0.00    +0.000 C 
BRANCH  32  33
ATOM     33  O   UNL     1       6.999   5.506  19.701  0.00  0.00    +0.000 OA
ATOM     34  H   UNL     1       6.094   5.189  19.509  0.00  0.00    +0.000 HD
ENDBRANCH  32  33
ENDBRANCH  29  32
ENDBRANCH   3  29
TORSDOF 9
ENDMDL
MODEL 8
REMARK VINA RESULT:      -8.6      0.919      1.311
REMARK  Name = 
REMARK  9 active torsions:
REMARK  status: ('A' for Active; 'I' for Inactive)
REMARK    1  A    between atoms: C_2  and  C_4
REMARK    2  A    between atoms: C_6  and  C_7
REMARK    3  A    between atoms: C_7  and  O_8
REMARK    4  A    between atoms: C_7  and  C_9
REMARK    5  A    between atoms: C_9  and  O_10
REMARK    6  A    between atoms: C_12  and  C_13
REMARK    7  A    between atoms: C_16  and  O_17
REMARK    8  A    between atoms: O_17  and  C_18
REMARK    9  A    between atoms: C_21  and  C_22
REMARK                            x       y       z     vdW  Elec       q    Type
REMARK                         _______ _______ _______ _____ _____    ______ ____
ROOT
ATOM      1  C   UNL     1       5.194   4.940  18.096  0.00  0.00    +0.000 A 
ATOM      2  C   UNL     1       4.734   3.779  18.679  0.00  0.00    +0.000 A 
ATOM      3  C   UNL     1       3.505   3.856  19.303  0.00  0.00    +0.000 A 
ATOM      4  N   UNL     1       2.808   5.011  19.346  0.00  0.00    +0.000 NA
ATOM      5  C   UNL     1       3.347   6.099  18.761  0.00  0.00    +0.000 A 
ATOM      6  N   UNL     1       4.527   6.115  18.123  0.00  0.00    +0.000 NA
ENDROOT
BRANCH   5   7
ATOM      7  C   UNL     1       2.596   7.362  18.838  0.00  0.00    +0.000 A 
ATOM      8  C   UNL     1       2.572   8.279  17.769  0.00  0.00    +0.000 A 
ATOM      9  C   UNL     1       1.851   9.475  17.855  0.00  0.00    +0.000 A 
ATOM     10  C   UNL     1       1.137   9.778  19.012  0.00  0.00    +0.000 A 
ATOM     11  C   UNL     1       1.182   8.902  20.096  0.00  0.00    +0.000 A 
ATOM     12  C   UNL     1       1.875   7.697  19.996  0.00  0.00    +0.000 A 
BRANCH  10  13
ATOM     13  O   UNL     1       0.470  10.981  19.017  0.00  0.00    +0.000 OA
BRANCH  13  14
ATOM     14  C   UNL     1      -0.876  11.020  18.728  0.00  0.00    +0.000 A 
ATOM     15  C   UNL     1      -1.629  11.957  19.433  0.00  0.00    +0.000 A 
ATOM     16  C   UNL     1      -3.002  12.072  19.203  0.00  0.00    +0.000 A 
ATOM     17  C   UNL     1      -3.637  11.252  18.253  0.00  0.00    +0.000 A 
ATOM     18  C   UNL     1      -2.871  10.322  17.541  0.00  0.00    +0.000 A 
ATOM     19  C   UNL     1      -1.496  10.227  17.756  0.00  0.00    +0.000 A 
BRANCH  17  20
ATOM     20  C   UNL     1      -5.111  11.380  17.972  0.00  0.00    +0.000 C 
ATOM     21  F   UNL     1      -5.860  10.386  18.525  0.00  0.00    +0.000 F 
ATOM     22  F   UNL     1      -5.629  12.546  18.450  0.00  0.00    +0.000 F 
ATOM     23  F   UNL     1      -5.392  11.364  16.640  0.00  0.00    +0.000 F 
ENDBRANCH  17  20
ENDBRANCH  13  14
ENDBRANCH  10  13
ENDBRANCH   5   7
BRANCH   1  25
ATOM     24  N   UNL     1       7.540   4.277  17.997  0.00  0.00    +0.000 N 
ATOM     25  C   UNL     1       6.512   4.950  17.397  0.00  0.00    +0.000 C 
ATOM     26  O   UNL     1       6.665   5.521  16.319  0.00  0.00    +0.000 OA
ATOM     27  H   UNL     1       8.429   4.224  17.516  0.00  0.00    +0.000 HD
ATOM     28  H   UNL     1       7.384   3.734  18.838  0.00  0.00    +0.000 HD
ENDBRANCH   1  25
BRANCH   3  29
ATOM     29  C   UNL     1       2.900   2.623  19.964  0.00  0.00    +0.000 C 
BRANCH  29  30
ATOM     30  O   UNL     1       2.423   2.965  21.269  0.00  0.00    +0.000 OA
ATOM     31  H   UNL     1       1.777   3.686  21.166  0.00  0.00    +0.000 HD
ENDBRANCH  29  30
BRANCH  29  32
ATOM     32  C   UNL     1       1.745   1.991  19.159  0.00  0.00    +0.000 C 
BRANCH  32  33
ATOM     33  O   UNL     1       1.292   2.829  18.097  0.00  0.00    +0.000 OA
ATOM     34  H   UNL     1       0.847   2.239  17.456  0.00  0.00    +0.000 HD
ENDBRANCH  32  33
ENDBRANCH  29  32
ENDBRANCH   3  29
TORSDOF 9
ENDMDL
MODEL 9
REMARK VINA RESULT:      -8.6      1.475      3.636
REMARK  Name = 
REMARK  9 active torsions:
REMARK  status: ('A' for Active; 'I' for Inactive)
REMARK    1  A    between atoms: C_2  and  C_4
REMARK    2  A    between atoms: C_6  and  C_7
REMARK    3  A    between atoms: C_7  and  O_8
REMARK    4  A    between atoms: C_7  and  C_9
REMARK    5  A    between atoms: C_9  and  O_10
REMARK    6  A    between atoms: C_12  and  C_13
REMARK    7  A    between atoms: C_16  and  O_17
REMARK    8  A    between atoms: O_17  and  C_18
REMARK    9  A    between atoms: C_21  and  C_22
REMARK                            x       y       z     vdW  Elec       q    Type
REMARK                         _______ _______ _______ _____ _____    ______ ____
ROOT
ATOM      1  C   UNL     1       2.887   4.037  20.329  0.00  0.00    +0.000 A 
ATOM      2  C   UNL     1       4.065   3.679  19.710  0.00  0.00    +0.000 A 
ATOM      3  C   UNL     1       4.663   4.647  18.929  0.00  0.00    +0.000 A 
ATOM      4  N   UNL     1       4.110   5.869  18.775  0.00  0.00    +0.000 NA
ATOM      5  C   UNL     1       2.947   6.122  19.408  0.00  0.00    +0.000 A 
ATOM      6  N   UNL     1       2.301   5.248  20.195  0.00  0.00    +0.000 NA
ENDROOT
BRANCH   5   7
ATOM      7  C   UNL     1       2.334   7.445  19.211  0.00  0.00    +0.000 A 
ATOM      8  C   UNL     1       1.593   8.080  20.227  0.00  0.00    +0.000 A 
ATOM      9  C   UNL     1       1.018   9.339  20.027  0.00  0.00    +0.000 A 
ATOM     10  C   UNL     1       1.174   9.992  18.806  0.00  0.00    +0.000 A 
ATOM     11  C   UNL     1       1.869   9.362  17.775  0.00  0.00    +0.000 A 
ATOM     12  C   UNL     1       2.467   8.122  17.987  0.00  0.00    +0.000 A 
BRANCH  10  13
ATOM     13  O   UNL     1       0.562  11.219  18.691  0.00  0.00    +0.000 OA
BRANCH  13  14
ATOM     14  C   UNL     1      -0.810  11.295  18.605  0.00  0.00    +0.000 A 
ATOM     15  C   UNL     1      -1.411  10.487  17.641  0.00  0.00    +0.000 A 
ATOM     16  C   UNL     1      -2.799  10.493  17.486  0.00  0.00    +0.000 A 
ATOM     17  C   UNL     1      -3.605  11.306  18.302  0.00  0.00    +0.000 A 
ATOM     18  C   UNL     1      -2.994  12.106  19.275  0.00  0.00    +0.000 A 
ATOM     19  C   UNL     1      -1.610  12.077  19.445  0.00  0.00    +0.000 A 
BRANCH  17  20
ATOM     20  C   UNL     1      -5.105  11.306  18.167  0.00  0.00    +0.000 C 
ATOM     21  F   UNL     1      -5.690  10.150  18.586  0.00  0.00    +0.000 F 
ATOM     22  F   UNL     1      -5.688  12.302  18.890  0.00  0.00    +0.000 F 
ATOM     23  F   UNL     1      -5.514  11.488  16.882  0.00  0.00    +0.000 F 
ENDBRANCH  17  20
ENDBRANCH  13  14
ENDBRANCH  10  13
ENDBRANCH   5   7
BRANCH   1  25
ATOM     24  N   UNL     1       0.831   2.899  20.983  0.00  0.00    +0.000 N 
ATOM     25  C   UNL     1       2.172   3.055  21.195  0.00  0.00    +0.000 C 
ATOM     26  O   UNL     1       2.765   2.401  22.051  0.00  0.00    +0.000 OA
ATOM     27  H   UNL     1       0.335   2.201  21.522  0.00  0.00    +0.000 HD
ATOM     28  H   UNL     1       0.368   3.375  20.218  0.00  0.00    +0.000 HD
ENDBRANCH   1  25
BRANCH   3  29
ATOM     29  C   UNL     1       5.978   4.355  18.216  0.00  0.00    +0.000 C 
BRANCH  29  30
ATOM     30  O   UNL     1       5.709   3.757  16.944  0.00  0.00    +0.000 OA
ATOM     31  H   UNL     1       5.221   4.409  16.409  0.00  0.00    +0.000 HD
ENDBRANCH  29  30
BRANCH  29  32
ATOM     32  C   UNL     1       6.861   5.603  18.006  0.00  0.00    +0.000 C 
BRANCH  32  33
ATOM     33  O   UNL     1       7.456   5.644  16.710  0.00  0.00    +0.000 OA
ATOM     34  H   UNL     1       7.251   4.786  16.289  0.00  0.00    +0.000 HD
ENDBRANCH  32  33
ENDBRANCH  29  32
ENDBRANCH   3  29
TORSDOF 9
ENDMDL
