MODEL 1
REMARK VINA RESULT:      -7.4      0.000      0.000
REMARK  Name = 
REMARK  5 active torsions:
REMARK  status: ('A' for Active; 'I' for Inactive)
REMARK    1  A    between atoms: C_1  and  C_2
REMARK    2  A    between atoms: N_4  and  C_5
REMARK    3  A    between atoms: C_8  and  C_9
REMARK    4  A    between atoms: C_8  and  C_10
REMARK    5  A    between atoms: C_10  and  O_11
REMARK                            x       y       z     vdW  Elec       q    Type
REMARK                         _______ _______ _______ _____ _____    ______ ____
ROOT
ATOM      1  C   UNL     1       5.654   4.509  14.501  0.00  0.00    +0.000 C 
ATOM      2  C   UNL     1       5.434   4.303  15.963  0.00  0.00    +0.000 A 
ATOM      3  C   UNL     1       4.255   4.024  16.532  0.00  0.00    +0.000 A 
ATOM      4  N   UNL     1       4.110   3.849  17.896  0.00  0.00    +0.000 N 
ATOM      5  C   UNL     1       5.211   3.774  18.734  0.00  0.00    +0.000 A 
ATOM      6  O   UNL     1       5.162   3.522  19.937  0.00  0.00    +0.000 OA
ATOM      7  N   UNL     1       6.422   4.042  18.146  0.00  0.00    +0.000 N 
ATOM      8  C   UNL     1       6.615   4.423  16.851  0.00  0.00    +0.000 A 
ATOM      9  O   UNL     1       7.692   4.843  16.446  0.00  0.00    +0.000 OA
ATOM     10  H   UNL     1       7.219   4.087  18.762  0.00  0.00    +0.000 HD
ENDROOT
BRANCH   4  11
ATOM     11  C   UNL     1       2.780   3.602  18.397  0.00  0.00    +0.000 C 
ATOM     12  F   UNL     1       2.537   2.249  18.649  0.00  0.00    +0.000 F 
ATOM     13  C   UNL     1       1.605   4.304  17.742  0.00  0.00    +0.000 C 
ATOM     14  C   UNL     1       1.909   4.575  19.193  0.00  0.00    +0.000 C 
ATOM     15  C   UNL     1       1.007   3.962  20.238  0.00  0.00    +0.000 C 
BRANCH  14  16
ATOM     16  C   UNL     1       2.383   5.961  19.552  0.00  0.00    +0.000 C 
BRANCH  16  17
ATOM     17  O   UNL     1       2.112   6.207  20.930  0.00  0.00    +0.000 OA
ATOM     18  H   UNL     1       2.195   7.165  21.071  0.00  0.00    +0.000 HD
ENDBRANCH  16  17
ENDBRANCH  14  16
ENDBRANCH   4  11
TORSDOF 3
ENDMDL
MODEL 2
REMARK VINA RESULT:      -6.9      1.200      1.242
REMARK  Name = 
REMARK  5 active torsions:
REMARK  status: ('A' for Active; 'I' for Inactive)
REMARK    1  A    between atoms: C_1  and  C_2
REMARK    2  A    between atoms: N_4  and  C_5
REMARK    3  A    between atoms: C_8  and  C_9
REMARK    4  A    between atoms: C_8  and  C_10
REMARK    5  A    between atoms: C_10  and  O_11
REMARK                            x       y       z     vdW  Elec       q    Type
REMARK                         _______ _______ _______ _____ _____    ______ ____
ROOT
ATOM      1  C   UNL     1       5.791   4.019  14.302  0.00  0.00    +0.000 C 
ATOM      2  C   UNL     1       5.819   4.332  15.761  0.00  0.00    +0.000 A 
ATOM      3  C   UNL     1       4.922   3.902  16.657  0.00  0.00    +0.000 A 
ATOM      4  N   UNL     1       4.995   4.231  17.999  0.00  0.00    +0.000 N 
ATOM      5  C   UNL     1       6.104   4.876  18.524  0.00  0.00    +0.000 A 
ATOM      6  O   UNL     1       6.281   5.109  19.718  0.00  0.00    +0.000 OA
ATOM      7  N   UNL     1       7.033   5.299  17.606  0.00  0.00    +0.000 N 
ATOM      8  C   UNL     1       6.924   5.190  16.250  0.00  0.00    +0.000 A 
ATOM      9  O   UNL     1       7.686   5.768  15.485  0.00  0.00    +0.000 OA
ATOM     10  H   UNL     1       7.794   5.855  17.963  0.00  0.00    +0.000 HD
ENDROOT
BRANCH   4  11
ATOM     11  C   UNL     1       3.942   3.751  18.859  0.00  0.00    +0.000 C 
ATOM     12  F   UNL     1       4.343   2.679  19.662  0.00  0.00    +0.000 F 
ATOM     13  C   UNL     1       2.548   3.574  18.288  0.00  0.00    +0.000 C 
ATOM     14  C   UNL     1       2.767   4.562  19.405  0.00  0.00    +0.000 C 
ATOM     15  C   UNL     1       2.285   4.194  20.788  0.00  0.00    +0.000 C 
BRANCH  14  16
ATOM     16  C   UNL     1       2.585   6.024  19.078  0.00  0.00    +0.000 C 
BRANCH  16  17
ATOM     17  O   UNL     1       2.626   6.783  20.284  0.00  0.00    +0.000 OA
ATOM     18  H   UNL     1       3.049   6.225  20.958  0.00  0.00    +0.000 HD
ENDBRANCH  16  17
ENDBRANCH  14  16
ENDBRANCH   4  11
TORSDOF 3
ENDMDL
MODEL 3
REMARK VINA RESULT:      -6.8      1.688      1.772
REMARK  Name = 
REMARK  5 active torsions:
REMARK  status: ('A' for Active; 'I' for Inactive)
REMARK    1  A    between atoms: C_1  and  C_2
REMARK    2  A    between atoms: N_4  and  C_5
REMARK    3  A    between atoms: C_8  and  C_9
REMARK    4  A    between atoms: C_8  and  C_10
REMARK    5  A    between atoms: C_10  and  O_11
REMARK                            x       y       z     vdW  Elec       q    Type
REMARK                         _______ _______ _______ _____ _____    ______ ____
ROOT
ATOM      1  C   UNL     1       5.865   6.945  16.668  0.00  0.00    +0.000 C 
ATOM      2  C   UNL     1       5.449   5.817  17.554  0.00  0.00    +0.000 A 
ATOM      3  C   UNL     1       4.305   5.133  17.441  0.00  0.00    +0.000 A 
ATOM      4  N   UNL     1       3.969   4.099  18.297  0.00  0.00    +0.000 N 
ATOM      5  C   UNL     1       4.881   3.594  19.210  0.00  0.00    +0.000 A 
ATOM      6  O   UNL     1       4.686   2.616  19.929  0.00  0.00    +0.000 OA
ATOM      7  N   UNL     1       6.062   4.286  19.311  0.00  0.00    +0.000 N 
ATOM      8  C   UNL     1       6.376   5.434  18.645  0.00  0.00    +0.000 A 
ATOM      9  O   UNL     1       7.357   6.109  18.932  0.00  0.00    +0.000 OA
ATOM     10  H   UNL     1       6.694   3.989  20.038  0.00  0.00    +0.000 HD
ENDROOT
BRANCH   4  11
ATOM     11  C   UNL     1       2.685   3.470  18.107  0.00  0.00    +0.000 C 
ATOM     12  F   UNL     1       2.768   2.273  17.390  0.00  0.00    +0.000 F 
ATOM     13  C   UNL     1       1.499   4.324  17.700  0.00  0.00    +0.000 C 
ATOM     14  C   UNL     1       1.464   3.594  19.018  0.00  0.00    +0.000 C 
ATOM     15  C   UNL     1       0.587   2.369  19.132  0.00  0.00    +0.000 C 
BRANCH  14  16
ATOM     16  C   UNL     1       1.484   4.432  20.273  0.00  0.00    +0.000 C 
BRANCH  16  17
ATOM     17  O   UNL     1       1.987   3.649  21.352  0.00  0.00    +0.000 OA
ATOM     18  H   UNL     1       2.850   3.300  21.073  0.00  0.00    +0.000 HD
ENDBRANCH  16  17
ENDBRANCH  14  16
ENDBRANCH   4  11
TORSDOF 3
ENDMDL
MODEL 4
REMARK VINA RESULT:      -6.8      2.247      2.917
REMARK  Name = 
REMARK  5 active torsions:
REMARK  status: ('A' for Active; 'I' for Inactive)
REMARK    1  A    between atoms: C_1  and  C_2
REMARK    2  A    between atoms: N_4  and  C_5
REMARK    3  A    between atoms: C_8  and  C_9
REMARK    4  A    between atoms: C_8  and  C_10
REMARK    5  A    between atoms: C_10  and  O_11
REMARK                            x       y       z     vdW  Elec       q    Type
REMARK                         _______ _______ _______ _____ _____    ______ ____
ROOT
ATOM      1  C   UNL     1       7.830   6.018  19.155  0.00  0.00    +0.000 C 
ATOM      2  C   UNL     1       6.674   5.299  18.543  0.00  0.00    +0.000 A 
ATOM      3  C   UNL     1       5.415   5.341  18.996  0.00  0.00    +0.000 A 
ATOM      4  N   UNL     1       4.383   4.647  18.390  0.00  0.00    +0.000 N 
ATOM      5  C   UNL     1       4.559   4.013  17.171  0.00  0.00    +0.000 A 
ATOM      6  O   UNL     1       3.665   3.465  16.529  0.00  0.00    +0.000 OA
ATOM      7  N   UNL     1       5.847   3.987  16.697  0.00  0.00    +0.000 N 
ATOM      8  C   UNL     1       6.946   4.472  17.344  0.00  0.00    +0.000 A 
ATOM      9  O   UNL     1       8.086   4.236  16.962  0.00  0.00    +0.000 OA
ATOM     10  H   UNL     1       6.006   3.446  15.862  0.00  0.00    +0.000 HD
ENDROOT
BRANCH   4  11
ATOM     11  C   UNL     1       3.079   4.729  19.001  0.00  0.00    +0.000 C 
ATOM     12  F   UNL     1       2.265   5.703  18.416  0.00  0.00    +0.000 F 
ATOM     13  C   UNL     1       2.970   4.697  20.514  0.00  0.00    +0.000 C 
ATOM     14  C   UNL     1       2.328   3.599  19.706  0.00  0.00    +0.000 C 
ATOM     15  C   UNL     1       0.824   3.605  19.563  0.00  0.00    +0.000 C 
BRANCH  14  16
ATOM     16  C   UNL     1       2.910   2.213  19.838  0.00  0.00    +0.000 C 
BRANCH  16  17
ATOM     17  O   UNL     1       2.605   1.462  18.666  0.00  0.00    +0.000 OA
ATOM     18  H   UNL     1       2.659   0.523  18.907  0.00  0.00    +0.000 HD
ENDBRANCH  16  17
ENDBRANCH  14  16
ENDBRANCH   4  11
TORSDOF 3
ENDMDL
MODEL 5
REMARK VINA RESULT:      -6.8      1.592      1.734
REMARK  Name = 
REMARK  5 active torsions:
REMARK  status: ('A' for Active; 'I' for Inactive)
REMARK    1  A    between atoms: C_1  and  C_2
REMARK    2  A    between atoms: N_4  and  C_5
REMARK    3  A    between atoms: C_8  and  C_9
REMARK    4  A    between atoms: C_8  and  C_10
REMARK    5  A    between atoms: C_10  and  O_11
REMARK                            x       y       z     vdW  Elec       q    Type
REMARK                         _______ _______ _______ _____ _____    ______ ____
ROOT
ATOM      1  C   UNL     1       5.922   4.115  14.237  0.00  0.00    +0.000 C 
ATOM      2  C   UNL     1       5.839   4.282  15.719  0.00  0.00    +0.000 A 
ATOM      3  C   UNL     1       5.010   3.606  16.523  0.00  0.00    +0.000 A 
ATOM      4  N   UNL     1       4.971   3.808  17.891  0.00  0.00    +0.000 N 
ATOM      5  C   UNL     1       5.917   4.594  18.530  0.00  0.00    +0.000 A 
ATOM      6  O   UNL     1       6.004   4.736  19.748  0.00  0.00    +0.000 OA
ATOM      7  N   UNL     1       6.780   5.272  17.705  0.00  0.00    +0.000 N 
ATOM      8  C   UNL     1       6.741   5.279  16.341  0.00  0.00    +0.000 A 
ATOM      9  O   UNL     1       7.406   6.061  15.673  0.00  0.00    +0.000 OA
ATOM     10  H   UNL     1       7.408   5.921  18.151  0.00  0.00    +0.000 HD
ENDROOT
BRANCH   4  11
ATOM     11  C   UNL     1       4.000   3.057  18.646  0.00  0.00    +0.000 C 
ATOM     12  F   UNL     1       4.578   2.283  19.657  0.00  0.00    +0.000 F 
ATOM     13  C   UNL     1       2.891   2.332  17.907  0.00  0.00    +0.000 C 
ATOM     14  C   UNL     1       2.535   3.430  18.877  0.00  0.00    +0.000 C 
ATOM     15  C   UNL     1       1.947   3.038  20.212  0.00  0.00    +0.000 C 
BRANCH  14  16
ATOM     16  C   UNL     1       1.931   4.688  18.304  0.00  0.00    +0.000 C 
BRANCH  16  17
ATOM     17  O   UNL     1       1.023   4.341  17.262  0.00  0.00    +0.000 OA
ATOM     18  H   UNL     1       0.753   5.169  16.832  0.00  0.00    +0.000 HD
ENDBRANCH  16  17
ENDBRANCH  14  16
ENDBRANCH   4  11
TORSDOF 3
ENDMDL
MODEL 6
REMARK VINA RESULT:      -6.7      1.909      2.238
REMARK  Name = 
REMARK  5 active torsions:
REMARK  status: ('A' for Active; 'I' for Inactive)
REMARK    1  A    between atoms: C_1  and  C_2
REMARK    2  A    between atoms: N_4  and  C_5
REMARK    3  A    between atoms: C_8  and  C_9
REMARK    4  A    between atoms: C_8  and  C_10
REMARK    5  A    between atoms: C_10  and  O_11
REMARK                            x       y       z     vdW  Elec       q    Type
REMARK                         _______ _______ _______ _____ _____    ______ ____
ROOT
ATOM      1  C   UNL     1       6.405   7.068  17.234  0.00  0.00    +0.000 C 
ATOM      2  C   UNL     1       5.631   5.803  17.401  0.00  0.00    +0.000 A 
ATOM      3  C   UNL     1       4.396   5.719  17.912  0.00  0.00    +0.000 A 
ATOM      4  N   UNL     1       3.729   4.515  18.049  0.00  0.00    +0.000 N 
ATOM      5  C   UNL     1       4.229   3.346  17.497  0.00  0.00    +0.000 A 
ATOM      6  O   UNL     1       3.644   2.265  17.493  0.00  0.00    +0.000 OA
ATOM      7  N   UNL     1       5.488   3.438  16.956  0.00  0.00    +0.000 N 
ATOM      8  C   UNL     1       6.285   4.545  16.971  0.00  0.00    +0.000 A 
ATOM      9  O   UNL     1       7.468   4.502  16.656  0.00  0.00    +0.000 OA
ATOM     10  H   UNL     1       5.903   2.576  16.639  0.00  0.00    +0.000 HD
ENDROOT
BRANCH   4  11
ATOM     11  C   UNL     1       2.424   4.545  18.661  0.00  0.00    +0.000 C 
ATOM     12  F   UNL     1       1.387   4.621  17.726  0.00  0.00    +0.000 F 
ATOM     13  C   UNL     1       2.197   5.432  19.871  0.00  0.00    +0.000 C 
ATOM     14  C   UNL     1       2.033   3.940  20.010  0.00  0.00    +0.000 C 
ATOM     15  C   UNL     1       0.633   3.383  20.113  0.00  0.00    +0.000 C 
BRANCH  14  16
ATOM     16  C   UNL     1       3.030   3.214  20.879  0.00  0.00    +0.000 C 
BRANCH  16  17
ATOM     17  O   UNL     1       2.351   2.640  21.993  0.00  0.00    +0.000 OA
ATOM     18  H   UNL     1       1.458   2.404  21.692  0.00  0.00    +0.000 HD
ENDBRANCH  16  17
ENDBRANCH  14  16
ENDBRANCH   4  11
TORSDOF 3
ENDMDL
MODEL 7
REMARK VINA RESULT:      -6.6      2.505      3.108
REMARK  Name = 
REMARK  5 active torsions:
REMARK  status: ('A' for Active; 'I' for Inactive)
REMARK    1  A    between atoms: C_1  and  C_2
REMARK    2  A    between atoms: N_4  and  C_5
REMARK    3  A    between atoms: C_8  and  C_9
REMARK    4  A    between atoms: C_8  and  C_10
REMARK    5  A    between atoms: C_10  and  O_11
REMARK                            x       y       z     vdW  Elec       q    Type
REMARK                         _______ _______ _______ _____ _____    ______ ____
ROOT
ATOM      1  C   UNL     1       7.732   5.298  18.378  0.00  0.00    +0.000 C 
ATOM      2  C   UNL     1       6.260   5.543  18.338  0.00  0.00    +0.000 A 
ATOM      3  C   UNL     1       5.356   4.915  19.100  0.00  0.00    +0.000 A 
ATOM      4  N   UNL     1       4.001   5.179  19.014  0.00  0.00    +0.000 N 
ATOM      5  C   UNL     1       3.518   6.239  18.262  0.00  0.00    +0.000 A 
ATOM      6  O   UNL     1       2.341   6.592  18.220  0.00  0.00    +0.000 OA
ATOM      7  N   UNL     1       4.450   6.893  17.496  0.00  0.00    +0.000 N 
ATOM      8  C   UNL     1       5.766   6.555  17.375  0.00  0.00    +0.000 A 
ATOM      9  O   UNL     1       6.493   7.050  16.523  0.00  0.00    +0.000 OA
ATOM     10  H   UNL     1       4.098   7.601  16.870  0.00  0.00    +0.000 HD
ENDROOT
BRANCH   4  11
ATOM     11  C   UNL     1       3.119   4.403  19.851  0.00  0.00    +0.000 C 
ATOM     12  F   UNL     1       2.737   5.079  21.013  0.00  0.00    +0.000 F 
ATOM     13  C   UNL     1       3.432   2.939  20.093  0.00  0.00    +0.000 C 
ATOM     14  C   UNL     1       2.151   3.311  19.392  0.00  0.00    +0.000 C 
ATOM     15  C   UNL     1       0.857   3.197  20.163  0.00  0.00    +0.000 C 
BRANCH  14  16
ATOM     16  C   UNL     1       2.019   2.918  17.941  0.00  0.00    +0.000 C 
BRANCH  16  17
ATOM     17  O   UNL     1       1.184   3.861  17.274  0.00  0.00    +0.000 OA
ATOM     18  H   UNL     1       1.464   3.884  16.345  0.00  0.00    +0.000 HD
ENDBRANCH  16  17
ENDBRANCH  14  16
ENDBRANCH   4  11
TORSDOF 3
ENDMDL
MODEL 8
REMARK VINA RESULT:      -6.5      2.077      2.639
REMARK  Name = 
REMARK  5 active torsions:
REMARK  status: ('A' for Active; 'I' for Inactive)
REMARK    1  A    between atoms: C_1  and  C_2
REMARK    2  A    between atoms: N_4  and  C_5
REMARK    3  A    between atoms: C_8  and  C_9
REMARK    4  A    between atoms: C_8  and  C_10
REMARK    5  A    between atoms: C_10  and  O_11
REMARK                            x       y       z     vdW  Elec       q    Type
REMARK                         _______ _______ _______ _____ _____    ______ ____
ROOT
ATOM      1  C   UNL     1       5.761   3.624  12.948  0.00  0.00    +0.000 C 
ATOM      2  C   UNL     1       6.046   4.267  14.266  0.00  0.00    +0.000 A 
ATOM      3  C   UNL     1       5.314   4.104  15.375  0.00  0.00    +0.000 A 
ATOM      4  N   UNL     1       5.622   4.732  16.568  0.00  0.00    +0.000 N 
ATOM      5  C   UNL     1       6.811   5.424  16.732  0.00  0.00    +0.000 A 
ATOM      6  O   UNL     1       7.195   5.920  17.790  0.00  0.00    +0.000 OA
ATOM      7  N   UNL     1       7.570   5.574  15.598  0.00  0.00    +0.000 N 
ATOM      8  C   UNL     1       7.226   5.158  14.345  0.00  0.00    +0.000 A 
ATOM      9  O   UNL     1       7.850   5.502  13.348  0.00  0.00    +0.000 OA
ATOM     10  H   UNL     1       8.388   6.158  15.680  0.00  0.00    +0.000 HD
ENDROOT
BRANCH   4  11
ATOM     11  C   UNL     1       4.730   4.519  17.681  0.00  0.00    +0.000 C 
ATOM     12  F   UNL     1       5.206   3.563  18.583  0.00  0.00    +0.000 F 
ATOM     13  C   UNL     1       3.241   4.396  17.418  0.00  0.00    +0.000 C 
ATOM     14  C   UNL     1       3.747   5.531  18.270  0.00  0.00    +0.000 C 
ATOM     15  C   UNL     1       3.525   5.457  19.762  0.00  0.00    +0.000 C 
BRANCH  14  16
ATOM     16  C   UNL     1       3.609   6.927  17.715  0.00  0.00    +0.000 C 
BRANCH  16  17
ATOM     17  O   UNL     1       2.317   7.435  18.039  0.00  0.00    +0.000 OA
ATOM     18  H   UNL     1       2.294   7.564  19.002  0.00  0.00    +0.000 HD
ENDBRANCH  16  17
ENDBRANCH  14  16
ENDBRANCH   4  11
TORSDOF 3
ENDMDL
MODEL 9
REMARK VINA RESULT:      -6.5      2.432      3.355
REMARK  Name = 
REMARK  5 active torsions:
REMARK  status: ('A' for Active; 'I' for Inactive)
REMARK    1  A    between atoms: C_1  and  C_2
REMARK    2  A    between atoms: N_4  and  C_5
REMARK    3  A    between atoms: C_8  and  C_9
REMARK    4  A    between atoms: C_8  and  C_10
REMARK    5  A    between atoms: C_10  and  O_11
REMARK                            x       y       z     vdW  Elec       q    Type
REMARK                         _______ _______ _______ _____ _____    ______ ____
ROOT
ATOM      1  C   UNL     1       7.783   5.622  18.731  0.00  0.00    +0.000 C 
ATOM      2  C   UNL     1       6.304   5.619  18.527  0.00  0.00    +0.000 A 
ATOM      3  C   UNL     1       5.431   4.902  19.246  0.00  0.00    +0.000 A 
ATOM      4  N   UNL     1       4.069   4.934  19.007  0.00  0.00    +0.000 N 
ATOM      5  C   UNL     1       3.512   5.848  18.127  0.00  0.00    +0.000 A 
ATOM      6  O   UNL     1       2.306   6.000  17.941  0.00  0.00    +0.000 OA
ATOM      7  N   UNL     1       4.408   6.596  17.404  0.00  0.00    +0.000 N 
ATOM      8  C   UNL     1       5.766   6.471  17.441  0.00  0.00    +0.000 A 
ATOM      9  O   UNL     1       6.496   7.022  16.626  0.00  0.00    +0.000 OA
ATOM     10  H   UNL     1       4.021   7.194  16.691  0.00  0.00    +0.000 HD
ENDROOT
BRANCH   4  11
ATOM     11  C   UNL     1       3.233   4.080  19.814  0.00  0.00    +0.000 C 
ATOM     12  F   UNL     1       2.532   4.780  20.800  0.00  0.00    +0.000 F 
ATOM     13  C   UNL     1       3.790   2.758  20.308  0.00  0.00    +0.000 C 
ATOM     14  C   UNL     1       2.597   2.756  19.386  0.00  0.00    +0.000 C 
ATOM     15  C   UNL     1       1.241   2.445  19.975  0.00  0.00    +0.000 C 
BRANCH  14  16
ATOM     16  C   UNL     1       2.794   2.185  18.004  0.00  0.00    +0.000 C 
BRANCH  16  17
ATOM     17  O   UNL     1       3.749   1.129  18.065  0.00  0.00    +0.000 OA
ATOM     18  H   UNL     1       3.288   0.312  17.814  0.00  0.00    +0.000 HD
ENDBRANCH  16  17
ENDBRANCH  14  16
ENDBRANCH   4  11
TORSDOF 3
ENDMDL
