MODEL 1
REMARK VINA RESULT:      -7.9      0.000      0.000
REMARK  Name = 
REMARK  8 active torsions:
REMARK  status: ('A' for Active; 'I' for Inactive)
REMARK    1  A    between atoms: C_1  and  O_2
REMARK    2  A    between atoms: O_2  and  C_3
REMARK    3  A    between atoms: C_6  and  C_7
REMARK    4  A    between atoms: C_7  and  N_8
REMARK    5  A    between atoms: C_9  and  C_11
REMARK    6  A    between atoms: C_11  and  C_12
REMARK    7  A    between atoms: C_12  and  C_13
REMARK    8  A    between atoms: C_13  and  N_14
REMARK                            x       y       z     vdW  Elec       q    Type
REMARK                         _______ _______ _______ _____ _____    ______ ____
ROOT
ATOM      1  C   UNL     1       7.055   4.566  17.843  0.00  0.00    +0.000 C 
ENDROOT
BRANCH   1   2
ATOM      2  C   UNL     1       7.266   5.893  18.573  0.00  0.00    +0.000 C 
BRANCH   2   4
ATOM      3  N   UNL     1       7.939   8.199  18.236  0.00  0.00    +0.000 N 
ATOM      4  C   UNL     1       7.679   6.999  17.620  0.00  0.00    +0.000 C 
ATOM      5  O   UNL     1       7.749   6.840  16.407  0.00  0.00    +0.000 OA
ATOM      6  H   UNL     1       7.913   8.270  19.243  0.00  0.00    +0.000 HD
BRANCH   3   7
ATOM      7  C   UNL     1       8.443   9.330  17.488  0.00  0.00    +0.000 C 
BRANCH   7  11
ATOM      8  C   UNL     1       9.856  12.508  20.055  0.00  0.00    +0.000 A 
ATOM      9  C   UNL     1       9.717  11.209  20.543  0.00  0.00    +0.000 A 
ATOM     10  C   UNL     1       9.258  10.183  19.715  0.00  0.00    +0.000 A 
ATOM     11  C   UNL     1       8.906  10.445  18.387  0.00  0.00    +0.000 A 
ATOM     12  C   UNL     1       9.044  11.754  17.901  0.00  0.00    +0.000 A 
ATOM     13  C   UNL     1       9.513  12.780  18.729  0.00  0.00    +0.000 A 
BRANCH   8  15
ATOM     14  C   UNL     1       9.401  13.750  22.011  0.00  0.00    +0.000 C 
ATOM     15  O   UNL     1      10.306  13.427  20.963  0.00  0.00    +0.000 OA
ENDBRANCH   8  15
ENDBRANCH   7  11
ENDBRANCH   3   7
ENDBRANCH   2   4
ENDBRANCH   1   2
BRANCH   1  16
ATOM     16  C   UNL     1       5.658   4.483  17.212  0.00  0.00    +0.000 C 
BRANCH  16  17
ATOM     17  N   UNL     1       4.630   5.069  18.063  0.00  0.00    +0.000 N 
ATOM     18  C   UNL     1       4.133   6.333  17.762  0.00  0.00    +0.000 A 
ATOM     19  O   UNL     1       4.535   6.992  16.803  0.00  0.00    +0.000 OA
ATOM     20  C   UNL     1       3.111   6.824  18.653  0.00  0.00    +0.000 A 
ATOM     21  C   UNL     1       2.450   8.037  18.654  0.00  0.00    +0.000 A 
ATOM     22  C   UNL     1       1.533   8.020  19.730  0.00  0.00    +0.000 A 
ATOM     23  C   UNL     1       1.661   6.797  20.355  0.00  0.00    +0.000 A 
ATOM     24  N   UNL     1       2.627   6.075  19.695  0.00  0.00    +0.000 N 
ATOM     25  C   UNL     1       3.108   4.785  19.965  0.00  0.00    +0.000 A 
ATOM     26  C   UNL     1       2.606   3.996  21.002  0.00  0.00    +0.000 A 
ATOM     27  C   UNL     1       3.139   2.725  21.194  0.00  0.00    +0.000 A 
ATOM     28  C   UNL     1       4.154   2.310  20.352  0.00  0.00    +0.000 A 
ATOM     29  N   UNL     1       4.650   3.064  19.348  0.00  0.00    +0.000 NA
ATOM     30  C   UNL     1       4.121   4.292  19.144  0.00  0.00    +0.000 A 
ENDBRANCH  16  17
ENDBRANCH   1  16
TORSDOF 7
ENDMDL
MODEL 2
REMARK VINA RESULT:      -7.9      5.909      9.961
REMARK  Name = 
REMARK  8 active torsions:
REMARK  status: ('A' for Active; 'I' for Inactive)
REMARK    1  A    between atoms: C_1  and  O_2
REMARK    2  A    between atoms: O_2  and  C_3
REMARK    3  A    between atoms: C_6  and  C_7
REMARK    4  A    between atoms: C_7  and  N_8
REMARK    5  A    between atoms: C_9  and  C_11
REMARK    6  A    between atoms: C_11  and  C_12
REMARK    7  A    between atoms: C_12  and  C_13
REMARK    8  A    between atoms: C_13  and  N_14
REMARK                            x       y       z     vdW  Elec       q    Type
REMARK                         _______ _______ _______ _____ _____    ______ ____
ROOT
ATOM      1  C   UNL     1      -0.583  11.131  22.509  0.00  0.00    +0.000 C 
ENDROOT
BRANCH   1   2
ATOM      2  C   UNL     1      -0.550   9.606  22.401  0.00  0.00    +0.000 C 
BRANCH   2   4
ATOM      3  N   UNL     1       0.830   8.257  20.931  0.00  0.00    +0.000 N 
ATOM      4  C   UNL     1       0.827   9.100  22.015  0.00  0.00    +0.000 C 
ATOM      5  O   UNL     1       1.843   9.398  22.634  0.00  0.00    +0.000 OA
ATOM      6  H   UNL     1      -0.026   8.077  20.424  0.00  0.00    +0.000 HD
BRANCH   3   7
ATOM      7  C   UNL     1       2.068   7.766  20.368  0.00  0.00    +0.000 C 
BRANCH   7  11
ATOM      8  C   UNL     1       1.823   3.665  19.024  0.00  0.00    +0.000 A 
ATOM      9  C   UNL     1       2.267   4.669  18.164  0.00  0.00    +0.000 A 
ATOM     10  C   UNL     1       2.343   5.994  18.597  0.00  0.00    +0.000 A 
ATOM     11  C   UNL     1       1.953   6.341  19.895  0.00  0.00    +0.000 A 
ATOM     12  C   UNL     1       1.503   5.328  20.755  0.00  0.00    +0.000 A 
ATOM     13  C   UNL     1       1.435   3.999  20.323  0.00  0.00    +0.000 A 
BRANCH   8  15
ATOM     14  C   UNL     1       3.032   1.885  18.050  0.00  0.00    +0.000 C 
ATOM     15  O   UNL     1       1.783   2.409  18.483  0.00  0.00    +0.000 OA
ENDBRANCH   8  15
ENDBRANCH   7  11
ENDBRANCH   3   7
ENDBRANCH   2   4
ENDBRANCH   1   2
BRANCH   1  16
ATOM     16  C   UNL     1      -0.184  11.800  21.186  0.00  0.00    +0.000 C 
BRANCH  16  17
ATOM     17  N   UNL     1      -1.212  11.660  20.162  0.00  0.00    +0.000 N 
ATOM     18  C   UNL     1      -0.953  10.885  19.037  0.00  0.00    +0.000 A 
ATOM     19  O   UNL     1       0.122  10.312  18.859  0.00  0.00    +0.000 OA
ATOM     20  C   UNL     1      -2.034  10.795  18.086  0.00  0.00    +0.000 A 
ATOM     21  C   UNL     1      -2.085  10.148  16.867  0.00  0.00    +0.000 A 
ATOM     22  C   UNL     1      -3.376  10.356  16.330  0.00  0.00    +0.000 A 
ATOM     23  C   UNL     1      -4.075  11.126  17.235  0.00  0.00    +0.000 A 
ATOM     24  N   UNL     1      -3.249  11.393  18.302  0.00  0.00    +0.000 N 
ATOM     25  C   UNL     1      -3.512  12.140  19.460  0.00  0.00    +0.000 A 
ATOM     26  C   UNL     1      -4.753  12.729  19.711  0.00  0.00    +0.000 A 
ATOM     27  C   UNL     1      -4.926  13.448  20.889  0.00  0.00    +0.000 A 
ATOM     28  C   UNL     1      -3.850  13.556  21.751  0.00  0.00    +0.000 A 
ATOM     29  N   UNL     1      -2.645  12.993  21.519  0.00  0.00    +0.000 NA
ATOM     30  C   UNL     1      -2.478  12.276  20.385  0.00  0.00    +0.000 A 
ENDBRANCH  16  17
ENDBRANCH   1  16
TORSDOF 7
ENDMDL
MODEL 3
REMARK VINA RESULT:      -7.8      1.565      3.300
REMARK  Name = 
REMARK  8 active torsions:
REMARK  status: ('A' for Active; 'I' for Inactive)
REMARK    1  A    between atoms: C_1  and  O_2
REMARK    2  A    between atoms: O_2  and  C_3
REMARK    3  A    between atoms: C_6  and  C_7
REMARK    4  A    between atoms: C_7  and  N_8
REMARK    5  A    between atoms: C_9  and  C_11
REMARK    6  A    between atoms: C_11  and  C_12
REMARK    7  A    between atoms: C_12  and  C_13
REMARK    8  A    between atoms: C_13  and  N_14
REMARK                            x       y       z     vdW  Elec       q    Type
REMARK                         _______ _______ _______ _____ _____    ______ ____
ROOT
ATOM      1  C   UNL     1       5.465   7.285  17.163  0.00  0.00    +0.000 C 
ENDROOT
BRANCH   1   2
ATOM      2  C   UNL     1       6.880   6.735  16.977  0.00  0.00    +0.000 C 
BRANCH   2   4
ATOM      3  N   UNL     1       8.206   8.494  17.993  0.00  0.00    +0.000 N 
ATOM      4  C   UNL     1       7.808   7.183  18.090  0.00  0.00    +0.000 C 
ATOM      5  O   UNL     1       8.188   6.432  18.981  0.00  0.00    +0.000 OA
ATOM      6  H   UNL     1       7.829   9.088  17.267  0.00  0.00    +0.000 HD
BRANCH   3   7
ATOM      7  C   UNL     1       9.008   9.111  19.026  0.00  0.00    +0.000 C 
BRANCH   7  11
ATOM      8  C   UNL     1       9.289  13.395  18.516  0.00  0.00    +0.000 A 
ATOM      9  C   UNL     1       8.605  12.611  17.586  0.00  0.00    +0.000 A 
ATOM     10  C   UNL     1       8.517  11.228  17.749  0.00  0.00    +0.000 A 
ATOM     11  C   UNL     1       9.134  10.599  18.836  0.00  0.00    +0.000 A 
ATOM     12  C   UNL     1       9.824  11.391  19.767  0.00  0.00    +0.000 A 
ATOM     13  C   UNL     1       9.905  12.778  19.608  0.00  0.00    +0.000 A 
BRANCH   8  15
ATOM     14  C   UNL     1      10.497  15.213  17.615  0.00  0.00    +0.000 C 
ATOM     15  O   UNL     1       9.314  14.734  18.243  0.00  0.00    +0.000 OA
ENDBRANCH   8  15
ENDBRANCH   7  11
ENDBRANCH   3   7
ENDBRANCH   2   4
ENDBRANCH   1   2
BRANCH   1  16
ATOM     16  C   UNL     1       4.400   6.234  16.818  0.00  0.00    +0.000 C 
BRANCH  16  17
ATOM     17  N   UNL     1       3.766   5.677  18.007  0.00  0.00    +0.000 N 
ATOM     18  C   UNL     1       4.055   4.370  18.386  0.00  0.00    +0.000 A 
ATOM     19  O   UNL     1       4.824   3.650  17.749  0.00  0.00    +0.000 OA
ATOM     20  C   UNL     1       3.391   3.912  19.580  0.00  0.00    +0.000 A 
ATOM     21  C   UNL     1       3.431   2.674  20.193  0.00  0.00    +0.000 A 
ATOM     22  C   UNL     1       2.611   2.742  21.342  0.00  0.00    +0.000 A 
ATOM     23  C   UNL     1       2.093   4.019  21.398  0.00  0.00    +0.000 A 
ATOM     24  N   UNL     1       2.569   4.725  20.319  0.00  0.00    +0.000 N 
ATOM     25  C   UNL     1       2.316   6.054  19.948  0.00  0.00    +0.000 A 
ATOM     26  C   UNL     1       1.509   6.906  20.704  0.00  0.00    +0.000 A 
ATOM     27  C   UNL     1       1.317   8.212  20.264  0.00  0.00    +0.000 A 
ATOM     28  C   UNL     1       1.929   8.599  19.086  0.00  0.00    +0.000 A 
ATOM     29  N   UNL     1       2.709   7.785  18.345  0.00  0.00    +0.000 NA
ATOM     30  C   UNL     1       2.916   6.520  18.779  0.00  0.00    +0.000 A 
ENDBRANCH  16  17
ENDBRANCH   1  16
TORSDOF 7
ENDMDL
MODEL 4
REMARK VINA RESULT:      -7.8      1.845      3.289
REMARK  Name = 
REMARK  8 active torsions:
REMARK  status: ('A' for Active; 'I' for Inactive)
REMARK    1  A    between atoms: C_1  and  O_2
REMARK    2  A    between atoms: O_2  and  C_3
REMARK    3  A    between atoms: C_6  and  C_7
REMARK    4  A    between atoms: C_7  and  N_8
REMARK    5  A    between atoms: C_9  and  C_11
REMARK    6  A    between atoms: C_11  and  C_12
REMARK    7  A    between atoms: C_12  and  C_13
REMARK    8  A    between atoms: C_13  and  N_14
REMARK                            x       y       z     vdW  Elec       q    Type
REMARK                         _______ _______ _______ _____ _____    ______ ____
ROOT
ATOM      1  C   UNL     1       6.244   6.472  17.457  0.00  0.00    +0.000 C 
ENDROOT
BRANCH   1   2
ATOM      2  C   UNL     1       6.977   7.772  17.124  0.00  0.00    +0.000 C 
BRANCH   2   4
ATOM      3  N   UNL     1       8.345   9.445  18.224  0.00  0.00    +0.000 N 
ATOM      4  C   UNL     1       8.022   8.112  18.169  0.00  0.00    +0.000 C 
ATOM      5  O   UNL     1       8.549   7.265  18.882  0.00  0.00    +0.000 OA
ATOM      6  H   UNL     1       7.851  10.113  17.649  0.00  0.00    +0.000 HD
BRANCH   3   7
ATOM      7  C   UNL     1       9.248   9.955  19.232  0.00  0.00    +0.000 C 
BRANCH   7  11
ATOM      8  C   UNL     1      10.547  14.006  18.460  0.00  0.00    +0.000 A 
ATOM      9  C   UNL     1      10.095  13.633  19.726  0.00  0.00    +0.000 A 
ATOM     10  C   UNL     1       9.673  12.327  19.974  0.00  0.00    +0.000 A 
ATOM     11  C   UNL     1       9.673  11.372  18.951  0.00  0.00    +0.000 A 
ATOM     12  C   UNL     1      10.125  11.752  17.678  0.00  0.00    +0.000 A 
ATOM     13  C   UNL     1      10.556  13.060  17.432  0.00  0.00    +0.000 A 
BRANCH   8  15
ATOM     14  C   UNL     1      11.799  15.604  17.254  0.00  0.00    +0.000 C 
ATOM     15  O   UNL     1      10.925  15.314  18.337  0.00  0.00    +0.000 OA
ENDBRANCH   8  15
ENDBRANCH   7  11
ENDBRANCH   3   7
ENDBRANCH   2   4
ENDBRANCH   1   2
BRANCH   1  16
ATOM     16  C   UNL     1       4.786   6.505  16.978  0.00  0.00    +0.000 C 
BRANCH  16  17
ATOM     17  N   UNL     1       3.956   5.521  17.662  0.00  0.00    +0.000 N 
ATOM     18  C   UNL     1       4.089   4.174  17.342  0.00  0.00    +0.000 A 
ATOM     19  O   UNL     1       4.880   3.771  16.489  0.00  0.00    +0.000 OA
ATOM     20  C   UNL     1       3.236   3.276  18.079  0.00  0.00    +0.000 A 
ATOM     21  C   UNL     1       3.097   1.906  17.976  0.00  0.00    +0.000 A 
ATOM     22  C   UNL     1       2.137   1.502  18.931  0.00  0.00    +0.000 A 
ATOM     23  C   UNL     1       1.716   2.638  19.590  0.00  0.00    +0.000 A 
ATOM     24  N   UNL     1       2.387   3.716  19.063  0.00  0.00    +0.000 N 
ATOM     25  C   UNL     1       2.289   5.073  19.405  0.00  0.00    +0.000 A 
ATOM     26  C   UNL     1       1.455   5.535  20.424  0.00  0.00    +0.000 A 
ATOM     27  C   UNL     1       1.425   6.899  20.698  0.00  0.00    +0.000 A 
ATOM     28  C   UNL     1       2.219   7.734  19.934  0.00  0.00    +0.000 A 
ATOM     29  N   UNL     1       3.029   7.301  18.945  0.00  0.00    +0.000 NA
ATOM     30  C   UNL     1       3.076   5.973  18.688  0.00  0.00    +0.000 A 
ENDBRANCH  16  17
ENDBRANCH   1  16
TORSDOF 7
ENDMDL
MODEL 5
REMARK VINA RESULT:      -7.8      4.776      8.795
REMARK  Name = 
REMARK  8 active torsions:
REMARK  status: ('A' for Active; 'I' for Inactive)
REMARK    1  A    between atoms: C_1  and  O_2
REMARK    2  A    between atoms: O_2  and  C_3
REMARK    3  A    between atoms: C_6  and  C_7
REMARK    4  A    between atoms: C_7  and  N_8
REMARK    5  A    between atoms: C_9  and  C_11
REMARK    6  A    between atoms: C_11  and  C_12
REMARK    7  A    between atoms: C_12  and  C_13
REMARK    8  A    between atoms: C_13  and  N_14
REMARK                            x       y       z     vdW  Elec       q    Type
REMARK                         _______ _______ _______ _____ _____    ______ ____
ROOT
ATOM      1  C   UNL     1       1.594   8.219  18.788  0.00  0.00    +0.000 C 
ENDROOT
BRANCH   1   2
ATOM      2  C   UNL     1       2.125   9.303  17.850  0.00  0.00    +0.000 C 
BRANCH   2   4
ATOM      3  N   UNL     1       0.191  10.700  18.289  0.00  0.00    +0.000 N 
ATOM      4  C   UNL     1       1.560  10.669  18.193  0.00  0.00    +0.000 C 
ATOM      5  O   UNL     1       2.265  11.661  18.345  0.00  0.00    +0.000 OA
ATOM      6  H   UNL     1      -0.345   9.847  18.202  0.00  0.00    +0.000 HD
BRANCH   3   7
ATOM      7  C   UNL     1      -0.503  11.897  18.709  0.00  0.00    +0.000 C 
BRANCH   7  11
ATOM      8  C   UNL     1      -4.763  11.555  18.053  0.00  0.00    +0.000 A 
ATOM      9  C   UNL     1      -3.857  11.126  17.082  0.00  0.00    +0.000 A 
ATOM     10  C   UNL     1      -2.482  11.240  17.293  0.00  0.00    +0.000 A 
ATOM     11  C   UNL     1      -1.988  11.807  18.472  0.00  0.00    +0.000 A 
ATOM     12  C   UNL     1      -2.902  12.241  19.444  0.00  0.00    +0.000 A 
ATOM     13  C   UNL     1      -4.280  12.119  19.236  0.00  0.00    +0.000 A 
BRANCH   8  15
ATOM     14  C   UNL     1      -6.855  10.630  18.640  0.00  0.00    +0.000 C 
ATOM     15  O   UNL     1      -6.082  11.401  17.728  0.00  0.00    +0.000 OA
ENDBRANCH   8  15
ENDBRANCH   7  11
ENDBRANCH   3   7
ENDBRANCH   2   4
ENDBRANCH   1   2
BRANCH   1  16
ATOM     16  C   UNL     1       2.735   7.469  19.490  0.00  0.00    +0.000 C 
BRANCH  16  17
ATOM     17  N   UNL     1       2.811   6.071  19.083  0.00  0.00    +0.000 N 
ATOM     18  C   UNL     1       2.007   5.130  19.718  0.00  0.00    +0.000 A 
ATOM     19  O   UNL     1       1.229   5.427  20.625  0.00  0.00    +0.000 OA
ATOM     20  C   UNL     1       2.143   3.777  19.239  0.00  0.00    +0.000 A 
ATOM     21  C   UNL     1       1.526   2.620  19.675  0.00  0.00    +0.000 A 
ATOM     22  C   UNL     1       1.994   1.559  18.868  0.00  0.00    +0.000 A 
ATOM     23  C   UNL     1       2.884   2.098  17.962  0.00  0.00    +0.000 A 
ATOM     24  N   UNL     1       2.972   3.449  18.197  0.00  0.00    +0.000 N 
ATOM     25  C   UNL     1       3.750   4.414  17.539  0.00  0.00    +0.000 A 
ATOM     26  C   UNL     1       4.576   4.105  16.457  0.00  0.00    +0.000 A 
ATOM     27  C   UNL     1       5.309   5.126  15.860  0.00  0.00    +0.000 A 
ATOM     28  C   UNL     1       5.191   6.402  16.381  0.00  0.00    +0.000 A 
ATOM     29  N   UNL     1       4.398   6.714  17.428  0.00  0.00    +0.000 NA
ATOM     30  C   UNL     1       3.669   5.727  17.998  0.00  0.00    +0.000 A 
ENDBRANCH  16  17
ENDBRANCH   1  16
TORSDOF 7
ENDMDL
MODEL 6
REMARK VINA RESULT:      -7.7      4.869      8.851
REMARK  Name = 
REMARK  8 active torsions:
REMARK  status: ('A' for Active; 'I' for Inactive)
REMARK    1  A    between atoms: C_1  and  O_2
REMARK    2  A    between atoms: O_2  and  C_3
REMARK    3  A    between atoms: C_6  and  C_7
REMARK    4  A    between atoms: C_7  and  N_8
REMARK    5  A    between atoms: C_9  and  C_11
REMARK    6  A    between atoms: C_11  and  C_12
REMARK    7  A    between atoms: C_12  and  C_13
REMARK    8  A    between atoms: C_13  and  N_14
REMARK                            x       y       z     vdW  Elec       q    Type
REMARK                         _______ _______ _______ _____ _____    ______ ____
ROOT
ATOM      1  C   UNL     1       2.081   8.304  17.586  0.00  0.00    +0.000 C 
ENDROOT
BRANCH   1   2
ATOM      2  C   UNL     1       1.953   9.799  17.882  0.00  0.00    +0.000 C 
BRANCH   2   4
ATOM      3  N   UNL     1       0.189  11.157  18.845  0.00  0.00    +0.000 N 
ATOM      4  C   UNL     1       1.000  10.065  19.032  0.00  0.00    +0.000 C 
ATOM      5  O   UNL     1       0.975   9.378  20.047  0.00  0.00    +0.000 OA
ATOM      6  H   UNL     1       0.212  11.665  17.972  0.00  0.00    +0.000 HD
BRANCH   3   7
ATOM      7  C   UNL     1      -0.848  11.491  19.797  0.00  0.00    +0.000 C 
BRANCH   7  11
ATOM      8  C   UNL     1      -4.779  11.337  18.006  0.00  0.00    +0.000 A 
ATOM      9  C   UNL     1      -4.502  12.235  19.037  0.00  0.00    +0.000 A 
ATOM     10  C   UNL     1      -3.234  12.282  19.617  0.00  0.00    +0.000 A 
ATOM     11  C   UNL     1      -2.224  11.414  19.191  0.00  0.00    +0.000 A 
ATOM     12  C   UNL     1      -2.508  10.510  18.157  0.00  0.00    +0.000 A 
ATOM     13  C   UNL     1      -3.777  10.468  17.569  0.00  0.00    +0.000 A 
BRANCH   8  15
ATOM     14  C   UNL     1      -7.069  11.659  18.486  0.00  0.00    +0.000 C 
ATOM     15  O   UNL     1      -6.059  11.378  17.525  0.00  0.00    +0.000 OA
ENDBRANCH   8  15
ENDBRANCH   7  11
ENDBRANCH   3   7
ENDBRANCH   2   4
ENDBRANCH   1   2
BRANCH   1  16
ATOM     16  C   UNL     1       3.375   7.721  18.172  0.00  0.00    +0.000 C 
BRANCH  16  17
ATOM     17  N   UNL     1       3.381   6.263  18.159  0.00  0.00    +0.000 N 
ATOM     18  C   UNL     1       2.581   5.568  19.059  0.00  0.00    +0.000 A 
ATOM     19  O   UNL     1       1.866   6.136  19.885  0.00  0.00    +0.000 OA
ATOM     20  C   UNL     1       2.644   4.131  18.961  0.00  0.00    +0.000 A 
ATOM     21  C   UNL     1       2.013   3.166  19.722  0.00  0.00    +0.000 A 
ATOM     22  C   UNL     1       2.400   1.905  19.214  0.00  0.00    +0.000 A 
ATOM     23  C   UNL     1       3.256   2.136  18.158  0.00  0.00    +0.000 A 
ATOM     24  N   UNL     1       3.404   3.495  18.012  0.00  0.00    +0.000 N 
ATOM     25  C   UNL     1       4.177   4.208  17.083  0.00  0.00    +0.000 A 
ATOM     26  C   UNL     1       4.931   3.579  16.091  0.00  0.00    +0.000 A 
ATOM     27  C   UNL     1       5.664   4.365  15.208  0.00  0.00    +0.000 A 
ATOM     28  C   UNL     1       5.619   5.738  15.367  0.00  0.00    +0.000 A 
ATOM     29  N   UNL     1       4.896   6.358  16.323  0.00  0.00    +0.000 NA
ATOM     30  C   UNL     1       4.165   5.599  17.172  0.00  0.00    +0.000 A 
ENDBRANCH  16  17
ENDBRANCH   1  16
TORSDOF 7
ENDMDL
MODEL 7
REMARK VINA RESULT:      -7.7      5.033      8.282
REMARK  Name = 
REMARK  8 active torsions:
REMARK  status: ('A' for Active; 'I' for Inactive)
REMARK    1  A    between atoms: C_1  and  O_2
REMARK    2  A    between atoms: O_2  and  C_3
REMARK    3  A    between atoms: C_6  and  C_7
REMARK    4  A    between atoms: C_7  and  N_8
REMARK    5  A    between atoms: C_9  and  C_11
REMARK    6  A    between atoms: C_11  and  C_12
REMARK    7  A    between atoms: C_12  and  C_13
REMARK    8  A    between atoms: C_13  and  N_14
REMARK                            x       y       z     vdW  Elec       q    Type
REMARK                         _______ _______ _______ _____ _____    ______ ____
ROOT
ATOM      1  C   UNL     1       1.783   8.284  17.966  0.00  0.00    +0.000 C 
ENDROOT
BRANCH   1   2
ATOM      2  C   UNL     1       1.772   9.805  18.126  0.00  0.00    +0.000 C 
BRANCH   2   4
ATOM      3  N   UNL     1       0.246  11.528  18.892  0.00  0.00    +0.000 N 
ATOM      4  C   UNL     1       0.359  10.353  18.191  0.00  0.00    +0.000 C 
ATOM      5  O   UNL     1      -0.600   9.782  17.682  0.00  0.00    +0.000 OA
ATOM      6  H   UNL     1       1.071  11.986  19.254  0.00  0.00    +0.000 HD
BRANCH   3   7
ATOM      7  C   UNL     1      -1.011  12.239  18.964  0.00  0.00    +0.000 C 
BRANCH   7  11
ATOM      8  C   UNL     1      -2.775  12.051  22.907  0.00  0.00    +0.000 A 
ATOM      9  C   UNL     1      -3.466  12.638  21.846  0.00  0.00    +0.000 A 
ATOM     10  C   UNL     1      -2.895  12.701  20.574  0.00  0.00    +0.000 A 
ATOM     11  C   UNL     1      -1.610  12.198  20.346  0.00  0.00    +0.000 A 
ATOM     12  C   UNL     1      -0.917  11.612  21.416  0.00  0.00    +0.000 A 
ATOM     13  C   UNL     1      -1.494  11.541  22.689  0.00  0.00    +0.000 A 
BRANCH   8  15
ATOM     14  C   UNL     1      -4.433  13.058  24.254  0.00  0.00    +0.000 C 
ATOM     15  O   UNL     1      -3.433  12.057  24.105  0.00  0.00    +0.000 OA
ENDBRANCH   8  15
ENDBRANCH   7  11
ENDBRANCH   3   7
ENDBRANCH   2   4
ENDBRANCH   1   2
BRANCH   1  16
ATOM     16  C   UNL     1       2.650   7.609  19.039  0.00  0.00    +0.000 C 
BRANCH  16  17
ATOM     17  N   UNL     1       2.880   6.197  18.758  0.00  0.00    +0.000 N 
ATOM     18  C   UNL     1       2.179   5.236  19.479  0.00  0.00    +0.000 A 
ATOM     19  O   UNL     1       1.371   5.526  20.361  0.00  0.00    +0.000 OA
ATOM     20  C   UNL     1       2.463   3.868  19.122  0.00  0.00    +0.000 A 
ATOM     21  C   UNL     1       1.974   2.695  19.663  0.00  0.00    +0.000 A 
ATOM     22  C   UNL     1       2.557   1.623  18.951  0.00  0.00    +0.000 A 
ATOM     23  C   UNL     1       3.387   2.171  17.995  0.00  0.00    +0.000 A 
ATOM     24  N   UNL     1       3.327   3.540  18.108  0.00  0.00    +0.000 N 
ATOM     25  C   UNL     1       3.998   4.521  17.362  0.00  0.00    +0.000 A 
ATOM     26  C   UNL     1       4.857   4.207  16.307  0.00  0.00    +0.000 A 
ATOM     27  C   UNL     1       5.476   5.245  15.617  0.00  0.00    +0.000 A 
ATOM     28  C   UNL     1       5.219   6.541  16.023  0.00  0.00    +0.000 A 
ATOM     29  N   UNL     1       4.394   6.858  17.042  0.00  0.00    +0.000 NA
ATOM     30  C   UNL     1       3.773   5.853  17.703  0.00  0.00    +0.000 A 
ENDBRANCH  16  17
ENDBRANCH   1  16
TORSDOF 7
ENDMDL
MODEL 8
REMARK VINA RESULT:      -7.7      4.614      8.552
REMARK  Name = 
REMARK  8 active torsions:
REMARK  status: ('A' for Active; 'I' for Inactive)
REMARK    1  A    between atoms: C_1  and  O_2
REMARK    2  A    between atoms: O_2  and  C_3
REMARK    3  A    between atoms: C_6  and  C_7
REMARK    4  A    between atoms: C_7  and  N_8
REMARK    5  A    between atoms: C_9  and  C_11
REMARK    6  A    between atoms: C_11  and  C_12
REMARK    7  A    between atoms: C_12  and  C_13
REMARK    8  A    between atoms: C_13  and  N_14
REMARK                            x       y       z     vdW  Elec       q    Type
REMARK                         _______ _______ _______ _____ _____    ______ ____
ROOT
ATOM      1  C   UNL     1       1.783   7.944  18.139  0.00  0.00    +0.000 C 
ENDROOT
BRANCH   1   2
ATOM      2  C   UNL     1       2.321   9.288  17.645  0.00  0.00    +0.000 C 
BRANCH   2   4
ATOM      3  N   UNL     1       0.307  10.143  18.694  0.00  0.00    +0.000 N 
ATOM      4  C   UNL     1       1.575  10.454  18.265  0.00  0.00    +0.000 C 
ATOM      5  O   UNL     1       2.054  11.579  18.353  0.00  0.00    +0.000 OA
ATOM      6  H   UNL     1      -0.028   9.191  18.644  0.00  0.00    +0.000 HD
BRANCH   3   7
ATOM      7  C   UNL     1      -0.502  11.111  19.400  0.00  0.00    +0.000 C 
BRANCH   7  11
ATOM      8  C   UNL     1      -4.585  11.187  17.982  0.00  0.00    +0.000 A 
ATOM      9  C   UNL     1      -4.161  12.071  18.975  0.00  0.00    +0.000 A 
ATOM     10  C   UNL     1      -2.844  12.044  19.435  0.00  0.00    +0.000 A 
ATOM     11  C   UNL     1      -1.931  11.114  18.925  0.00  0.00    +0.000 A 
ATOM     12  C   UNL     1      -2.363  10.225  17.929  0.00  0.00    +0.000 A 
ATOM     13  C   UNL     1      -3.681  10.258  17.462  0.00  0.00    +0.000 A 
BRANCH   8  15
ATOM     14  C   UNL     1      -6.311  12.598  17.203  0.00  0.00    +0.000 C 
ATOM     15  O   UNL     1      -5.899  11.303  17.621  0.00  0.00    +0.000 OA
ENDBRANCH   8  15
ENDBRANCH   7  11
ENDBRANCH   3   7
ENDBRANCH   2   4
ENDBRANCH   1   2
BRANCH   1  16
ATOM     16  C   UNL     1       2.855   7.151  18.900  0.00  0.00    +0.000 C 
BRANCH  16  17
ATOM     17  N   UNL     1       3.471   6.119  18.076  0.00  0.00    +0.000 N 
ATOM     18  C   UNL     1       4.603   6.428  17.328  0.00  0.00    +0.000 A 
ATOM     19  O   UNL     1       5.109   7.550  17.323  0.00  0.00    +0.000 OA
ATOM     20  C   UNL     1       5.148   5.340  16.555  0.00  0.00    +0.000 A 
ATOM     21  C   UNL     1       6.225   5.325  15.690  0.00  0.00    +0.000 A 
ATOM     22  C   UNL     1       6.352   4.008  15.193  0.00  0.00    +0.000 A 
ATOM     23  C   UNL     1       5.349   3.257  15.767  0.00  0.00    +0.000 A 
ATOM     24  N   UNL     1       4.616   4.076  16.593  0.00  0.00    +0.000 N 
ATOM     25  C   UNL     1       3.498   3.767  17.382  0.00  0.00    +0.000 A 
ATOM     26  C   UNL     1       2.962   2.481  17.457  0.00  0.00    +0.000 A 
ATOM     27  C   UNL     1       1.854   2.264  18.270  0.00  0.00    +0.000 A 
ATOM     28  C   UNL     1       1.328   3.343  18.956  0.00  0.00    +0.000 A 
ATOM     29  N   UNL     1       1.834   4.592  18.890  0.00  0.00    +0.000 NA
ATOM     30  C   UNL     1       2.924   4.804  18.116  0.00  0.00    +0.000 A 
ENDBRANCH  16  17
ENDBRANCH   1  16
TORSDOF 7
ENDMDL
MODEL 9
REMARK VINA RESULT:      -7.6      1.355      1.548
REMARK  Name = 
REMARK  8 active torsions:
REMARK  status: ('A' for Active; 'I' for Inactive)
REMARK    1  A    between atoms: C_1  and  O_2
REMARK    2  A    between atoms: O_2  and  C_3
REMARK    3  A    between atoms: C_6  and  C_7
REMARK    4  A    between atoms: C_7  and  N_8
REMARK    5  A    between atoms: C_9  and  C_11
REMARK    6  A    between atoms: C_11  and  C_12
REMARK    7  A    between atoms: C_12  and  C_13
REMARK    8  A    between atoms: C_13  and  N_14
REMARK                            x       y       z     vdW  Elec       q    Type
REMARK                         _______ _______ _______ _____ _____    ______ ____
ROOT
ATOM      1  C   UNL     1       6.817   4.827  17.151  0.00  0.00    +0.000 C 
ENDROOT
BRANCH   1   2
ATOM      2  C   UNL     1       7.233   6.278  16.907  0.00  0.00    +0.000 C 
BRANCH   2   4
ATOM      3  N   UNL     1       8.268   8.198  17.969  0.00  0.00    +0.000 N 
ATOM      4  C   UNL     1       7.862   6.898  18.141  0.00  0.00    +0.000 C 
ATOM      5  O   UNL     1       8.017   6.281  19.189  0.00  0.00    +0.000 OA
ATOM      6  H   UNL     1       8.077   8.681  17.102  0.00  0.00    +0.000 HD
BRANCH   3   7
ATOM      7  C   UNL     1       8.794   8.970  19.073  0.00  0.00    +0.000 C 
BRANCH   7  11
ATOM      8  C   UNL     1       9.661  13.040  17.900  0.00  0.00    +0.000 A 
ATOM      9  C   UNL     1      10.515  12.351  18.762  0.00  0.00    +0.000 A 
ATOM     10  C   UNL     1      10.233  11.039  19.143  0.00  0.00    +0.000 A 
ATOM     11  C   UNL     1       9.077  10.398  18.686  0.00  0.00    +0.000 A 
ATOM     12  C   UNL     1       8.219  11.095  17.822  0.00  0.00    +0.000 A 
ATOM     13  C   UNL     1       8.506  12.409  17.433  0.00  0.00    +0.000 A 
BRANCH   8  15
ATOM     14  C   UNL     1      11.288  14.734  18.146  0.00  0.00    +0.000 C 
ATOM     15  O   UNL     1      10.038  14.322  17.607  0.00  0.00    +0.000 OA
ENDBRANCH   8  15
ENDBRANCH   7  11
ENDBRANCH   3   7
ENDBRANCH   2   4
ENDBRANCH   1   2
BRANCH   1  16
ATOM     16  C   UNL     1       5.352   4.585  16.760  0.00  0.00    +0.000 C 
BRANCH  16  17
ATOM     17  N   UNL     1       4.423   5.320  17.609  0.00  0.00    +0.000 N 
ATOM     18  C   UNL     1       4.037   6.606  17.245  0.00  0.00    +0.000 A 
ATOM     19  O   UNL     1       4.459   7.163  16.231  0.00  0.00    +0.000 OA
ATOM     20  C   UNL     1       3.106   7.248  18.139  0.00  0.00    +0.000 A 
ATOM     21  C   UNL     1       2.565   8.518  18.087  0.00  0.00    +0.000 A 
ATOM     22  C   UNL     1       1.698   8.656  19.194  0.00  0.00    +0.000 A 
ATOM     23  C   UNL     1       1.734   7.466  19.892  0.00  0.00    +0.000 A 
ATOM     24  N   UNL     1       2.598   6.614  19.245  0.00  0.00    +0.000 N 
ATOM     25  C   UNL     1       2.964   5.302  19.580  0.00  0.00    +0.000 A 
ATOM     26  C   UNL     1       2.434   4.631  20.683  0.00  0.00    +0.000 A 
ATOM     27  C   UNL     1       2.851   3.328  20.937  0.00  0.00    +0.000 A 
ATOM     28  C   UNL     1       3.784   2.765  20.087  0.00  0.00    +0.000 A 
ATOM     29  N   UNL     1       4.306   3.404  19.019  0.00  0.00    +0.000 NA
ATOM     30  C   UNL     1       3.889   4.664  18.756  0.00  0.00    +0.000 A 
ENDBRANCH  16  17
ENDBRANCH   1  16
TORSDOF 7
ENDMDL
