MODEL 1
REMARK VINA RESULT:      -7.1      0.000      0.000
REMARK  Name = 
REMARK  4 active torsions:
REMARK  status: ('A' for Active; 'I' for Inactive)
REMARK    1  A    between atoms: C_1  and  N_2
REMARK    2  A    between atoms: C_6  and  C_7
REMARK    3  A    between atoms: C_7  and  C_8
REMARK    4  A    between atoms: C_13  and  O_14
REMARK                            x       y       z     vdW  Elec       q    Type
REMARK                         _______ _______ _______ _____ _____    ______ ____
ROOT
ATOM      1  C   UNL     1       3.860   5.767  17.847  0.00  0.00    +0.000 A 
ATOM      2  C   UNL     1       3.191   6.943  18.120  0.00  0.00    +0.000 A 
ATOM      3  N   UNL     1       2.470   6.777  19.270  0.00  0.00    +0.000 N 
ATOM      4  C   UNL     1       2.639   5.499  19.753  0.00  0.00    +0.000 A 
ATOM      5  C   UNL     1       2.023   4.859  20.836  0.00  0.00    +0.000 A 
ATOM      6  C   UNL     1       2.412   3.544  21.092  0.00  0.00    +0.000 A 
ATOM      7  C   UNL     1       3.407   2.916  20.357  0.00  0.00    +0.000 A 
ATOM      8  C   UNL     1       4.004   3.574  19.275  0.00  0.00    +0.000 A 
ATOM      9  C   UNL     1       3.584   4.876  18.937  0.00  0.00    +0.000 A 
ATOM     10  H   UNL     1       1.870   7.475  19.688  0.00  0.00    +0.000 HD
ENDROOT
BRANCH   6  11
ATOM     11  O   UNL     1       1.808   2.819  22.080  0.00  0.00    +0.000 OA
ATOM     12  H   UNL     1       1.897   1.876  21.863  0.00  0.00    +0.000 HD
ENDBRANCH   6  11
BRANCH   1  13
ATOM     13  C   UNL     1       4.659   5.476  16.605  0.00  0.00    +0.000 C 
BRANCH  13  19
ATOM     14  C   UNL     1       6.959   4.903  14.669  0.00  0.00    +0.000 C 
ATOM     15  N   UNL     1       7.164   5.469  15.986  0.00  0.00    +0.000 NA
ATOM     16  C   UNL     1       7.588   4.500  16.987  0.00  0.00    +0.000 C 
ATOM     17  C   UNL     1       7.517   5.303  18.278  0.00  0.00    +0.000 C 
ATOM     18  C   UNL     1       6.607   6.489  17.965  0.00  0.00    +0.000 C 
ATOM     19  C   UNL     1       6.031   6.208  16.570  0.00  0.00    +0.000 C 
ENDBRANCH  13  19
ENDBRANCH   1  13
TORSDOF 3
ENDMDL
MODEL 2
REMARK VINA RESULT:      -7.1      2.941      5.512
REMARK  Name = 
REMARK  4 active torsions:
REMARK  status: ('A' for Active; 'I' for Inactive)
REMARK    1  A    between atoms: C_1  and  N_2
REMARK    2  A    between atoms: C_6  and  C_7
REMARK    3  A    between atoms: C_7  and  C_8
REMARK    4  A    between atoms: C_13  and  O_14
REMARK                            x       y       z     vdW  Elec       q    Type
REMARK                         _______ _______ _______ _____ _____    ______ ____
ROOT
ATOM      1  C   UNL     1       5.017   4.339  16.746  0.00  0.00    +0.000 A 
ATOM      2  C   UNL     1       5.098   4.839  15.462  0.00  0.00    +0.000 A 
ATOM      3  N   UNL     1       6.055   5.815  15.434  0.00  0.00    +0.000 N 
ATOM      4  C   UNL     1       6.598   5.980  16.689  0.00  0.00    +0.000 A 
ATOM      5  C   UNL     1       7.527   6.923  17.150  0.00  0.00    +0.000 A 
ATOM      6  C   UNL     1       7.900   6.832  18.490  0.00  0.00    +0.000 A 
ATOM      7  C   UNL     1       7.431   5.821  19.318  0.00  0.00    +0.000 A 
ATOM      8  C   UNL     1       6.498   4.895  18.836  0.00  0.00    +0.000 A 
ATOM      9  C   UNL     1       6.038   4.999  17.508  0.00  0.00    +0.000 A 
ATOM     10  H   UNL     1       6.306   6.364  14.623  0.00  0.00    +0.000 HD
ENDROOT
BRANCH   6  11
ATOM     11  O   UNL     1       8.741   7.757  19.043  0.00  0.00    +0.000 OA
ATOM     12  H   UNL     1       9.360   7.291  19.630  0.00  0.00    +0.000 HD
ENDBRANCH   6  11
BRANCH   1  13
ATOM     13  C   UNL     1       4.001   3.346  17.242  0.00  0.00    +0.000 C 
BRANCH  13  19
ATOM     14  C   UNL     1       4.267   2.338  20.119  0.00  0.00    +0.000 C 
ATOM     15  N   UNL     1       3.048   2.922  19.602  0.00  0.00    +0.000 NA
ATOM     16  C   UNL     1       2.043   1.943  19.210  0.00  0.00    +0.000 C 
ATOM     17  C   UNL     1       0.991   2.803  18.523  0.00  0.00    +0.000 C 
ATOM     18  C   UNL     1       1.709   4.102  18.159  0.00  0.00    +0.000 C 
ATOM     19  C   UNL     1       3.191   3.853  18.469  0.00  0.00    +0.000 C 
ENDBRANCH  13  19
ENDBRANCH   1  13
TORSDOF 3
ENDMDL
MODEL 3
REMARK VINA RESULT:      -7.0      2.860      5.546
REMARK  Name = 
REMARK  4 active torsions:
REMARK  status: ('A' for Active; 'I' for Inactive)
REMARK    1  A    between atoms: C_1  and  N_2
REMARK    2  A    between atoms: C_6  and  C_7
REMARK    3  A    between atoms: C_7  and  C_8
REMARK    4  A    between atoms: C_13  and  O_14
REMARK                            x       y       z     vdW  Elec       q    Type
REMARK                         _______ _______ _______ _____ _____    ______ ____
ROOT
ATOM      1  C   UNL     1       3.201   5.794  18.870  0.00  0.00    +0.000 A 
ATOM      2  C   UNL     1       2.778   7.066  18.542  0.00  0.00    +0.000 A 
ATOM      3  N   UNL     1       3.569   7.542  17.533  0.00  0.00    +0.000 N 
ATOM      4  C   UNL     1       4.523   6.606  17.200  0.00  0.00    +0.000 A 
ATOM      5  C   UNL     1       5.596   6.696  16.303  0.00  0.00    +0.000 A 
ATOM      6  C   UNL     1       6.397   5.563  16.167  0.00  0.00    +0.000 A 
ATOM      7  C   UNL     1       6.115   4.379  16.833  0.00  0.00    +0.000 A 
ATOM      8  C   UNL     1       5.041   4.315  17.729  0.00  0.00    +0.000 A 
ATOM      9  C   UNL     1       4.253   5.462  17.951  0.00  0.00    +0.000 A 
ATOM     10  H   UNL     1       3.493   8.459  17.114  0.00  0.00    +0.000 HD
ENDROOT
BRANCH   6  11
ATOM     11  O   UNL     1       7.509   5.587  15.373  0.00  0.00    +0.000 OA
ATOM     12  H   UNL     1       7.453   4.845  14.749  0.00  0.00    +0.000 HD
ENDBRANCH   6  11
BRANCH   1  13
ATOM     13  C   UNL     1       2.691   4.964  20.017  0.00  0.00    +0.000 C 
BRANCH  13  19
ATOM     14  C   UNL     1       1.483   2.705  21.691  0.00  0.00    +0.000 C 
ATOM     15  N   UNL     1       1.312   2.797  20.257  0.00  0.00    +0.000 NA
ATOM     16  C   UNL     1       2.207   1.936  19.496  0.00  0.00    +0.000 C 
ATOM     17  C   UNL     1       1.964   2.385  18.063  0.00  0.00    +0.000 C 
ATOM     18  C   UNL     1       1.328   3.769  18.177  0.00  0.00    +0.000 C 
ATOM     19  C   UNL     1       1.419   4.142  19.664  0.00  0.00    +0.000 C 
ENDBRANCH  13  19
ENDBRANCH   1  13
TORSDOF 3
ENDMDL
MODEL 4
REMARK VINA RESULT:      -6.8      3.076      6.006
REMARK  Name = 
REMARK  4 active torsions:
REMARK  status: ('A' for Active; 'I' for Inactive)
REMARK    1  A    between atoms: C_1  and  N_2
REMARK    2  A    between atoms: C_6  and  C_7
REMARK    3  A    between atoms: C_7  and  C_8
REMARK    4  A    between atoms: C_13  and  O_14
REMARK                            x       y       z     vdW  Elec       q    Type
REMARK                         _______ _______ _______ _____ _____    ______ ____
ROOT
ATOM      1  C   UNL     1       5.277   4.453  18.718  0.00  0.00    +0.000 A 
ATOM      2  C   UNL     1       6.175   5.271  19.374  0.00  0.00    +0.000 A 
ATOM      3  N   UNL     1       7.011   5.831  18.447  0.00  0.00    +0.000 N 
ATOM      4  C   UNL     1       6.688   5.381  17.187  0.00  0.00    +0.000 A 
ATOM      5  C   UNL     1       7.328   5.605  15.961  0.00  0.00    +0.000 A 
ATOM      6  C   UNL     1       6.753   5.016  14.835  0.00  0.00    +0.000 A 
ATOM      7  C   UNL     1       5.568   4.297  14.907  0.00  0.00    +0.000 A 
ATOM      8  C   UNL     1       4.950   4.081  16.144  0.00  0.00    +0.000 A 
ATOM      9  C   UNL     1       5.542   4.595  17.315  0.00  0.00    +0.000 A 
ATOM     10  H   UNL     1       7.778   6.456  18.655  0.00  0.00    +0.000 HD
ENDROOT
BRANCH   6  11
ATOM     11  O   UNL     1       7.353   5.118  13.612  0.00  0.00    +0.000 OA
ATOM     12  H   UNL     1       6.756   5.607  13.021  0.00  0.00    +0.000 HD
ENDBRANCH   6  11
BRANCH   1  13
ATOM     13  C   UNL     1       4.271   3.546  19.374  0.00  0.00    +0.000 C 
BRANCH  13  19
ATOM     14  C   UNL     1       2.330   2.757  21.604  0.00  0.00    +0.000 C 
ATOM     15  N   UNL     1       1.909   3.451  20.406  0.00  0.00    +0.000 NA
ATOM     16  C   UNL     1       1.313   2.585  19.398  0.00  0.00    +0.000 C 
ATOM     17  C   UNL     1       1.169   3.516  18.203  0.00  0.00    +0.000 C 
ATOM     18  C   UNL     1       2.128   4.673  18.476  0.00  0.00    +0.000 C 
ATOM     19  C   UNL     1       2.931   4.257  19.716  0.00  0.00    +0.000 C 
ENDBRANCH  13  19
ENDBRANCH   1  13
TORSDOF 3
ENDMDL
MODEL 5
REMARK VINA RESULT:      -6.7      2.888      5.486
REMARK  Name = 
REMARK  4 active torsions:
REMARK  status: ('A' for Active; 'I' for Inactive)
REMARK    1  A    between atoms: C_1  and  N_2
REMARK    2  A    between atoms: C_6  and  C_7
REMARK    3  A    between atoms: C_7  and  C_8
REMARK    4  A    between atoms: C_13  and  O_14
REMARK                            x       y       z     vdW  Elec       q    Type
REMARK                         _______ _______ _______ _____ _____    ______ ____
ROOT
ATOM      1  C   UNL     1       3.077   5.538  17.944  0.00  0.00    +0.000 A 
ATOM      2  C   UNL     1       3.051   6.911  18.088  0.00  0.00    +0.000 A 
ATOM      3  N   UNL     1       4.089   7.443  17.375  0.00  0.00    +0.000 N 
ATOM      4  C   UNL     1       4.813   6.438  16.774  0.00  0.00    +0.000 A 
ATOM      5  C   UNL     1       6.004   6.506  16.038  0.00  0.00    +0.000 A 
ATOM      6  C   UNL     1       6.501   5.302  15.538  0.00  0.00    +0.000 A 
ATOM      7  C   UNL     1       5.823   4.103  15.699  0.00  0.00    +0.000 A 
ATOM      8  C   UNL     1       4.638   4.060  16.444  0.00  0.00    +0.000 A 
ATOM      9  C   UNL     1       4.143   5.242  17.030  0.00  0.00    +0.000 A 
ATOM     10  H   UNL     1       4.318   8.426  17.323  0.00  0.00    +0.000 HD
ENDROOT
BRANCH   6  11
ATOM     11  O   UNL     1       7.696   5.264  14.875  0.00  0.00    +0.000 OA
ATOM     12  H   UNL     1       7.937   6.173  14.631  0.00  0.00    +0.000 HD
ENDBRANCH   6  11
BRANCH   1  13
ATOM     13  C   UNL     1       2.194   4.559  18.669  0.00  0.00    +0.000 C 
BRANCH  13  19
ATOM     14  C   UNL     1       3.292   1.703  18.641  0.00  0.00    +0.000 C 
ATOM     15  N   UNL     1       2.866   2.368  19.854  0.00  0.00    +0.000 NA
ATOM     16  C   UNL     1       1.530   1.993  20.297  0.00  0.00    +0.000 C 
ATOM     17  C   UNL     1       1.268   2.974  21.431  0.00  0.00    +0.000 C 
ATOM     18  C   UNL     1       2.260   4.116  21.213  0.00  0.00    +0.000 C 
ATOM     19  C   UNL     1       2.909   3.841  19.849  0.00  0.00    +0.000 C 
ENDBRANCH  13  19
ENDBRANCH   1  13
TORSDOF 3
ENDMDL
MODEL 6
REMARK VINA RESULT:      -6.7      2.666      3.949
REMARK  Name = 
REMARK  4 active torsions:
REMARK  status: ('A' for Active; 'I' for Inactive)
REMARK    1  A    between atoms: C_1  and  N_2
REMARK    2  A    between atoms: C_6  and  C_7
REMARK    3  A    between atoms: C_7  and  C_8
REMARK    4  A    between atoms: C_13  and  O_14
REMARK                            x       y       z     vdW  Elec       q    Type
REMARK                         _______ _______ _______ _____ _____    ______ ____
ROOT
ATOM      1  C   UNL     1       3.569   6.336  18.361  0.00  0.00    +0.000 A 
ATOM      2  C   UNL     1       3.484   5.586  19.517  0.00  0.00    +0.000 A 
ATOM      3  N   UNL     1       2.635   6.216  20.384  0.00  0.00    +0.000 N 
ATOM      4  C   UNL     1       2.171   7.385  19.824  0.00  0.00    +0.000 A 
ATOM      5  C   UNL     1       1.369   8.391  20.379  0.00  0.00    +0.000 A 
ATOM      6  C   UNL     1       1.049   9.467  19.551  0.00  0.00    +0.000 A 
ATOM      7  C   UNL     1       1.445   9.515  18.222  0.00  0.00    +0.000 A 
ATOM      8  C   UNL     1       2.251   8.501  17.691  0.00  0.00    +0.000 A 
ATOM      9  C   UNL     1       2.659   7.434  18.518  0.00  0.00    +0.000 A 
ATOM     10  H   UNL     1       2.409   5.896  21.315  0.00  0.00    +0.000 HD
ENDROOT
BRANCH   6  11
ATOM     11  O   UNL     1       0.336  10.529  20.033  0.00  0.00    +0.000 OA
ATOM     12  H   UNL     1      -0.028  11.019  19.277  0.00  0.00    +0.000 HD
ENDBRANCH   6  11
BRANCH   1  13
ATOM     13  C   UNL     1       4.495   6.071  17.205  0.00  0.00    +0.000 C 
BRANCH  13  19
ATOM     14  C   UNL     1       7.422   5.764  18.045  0.00  0.00    +0.000 C 
ATOM     15  N   UNL     1       6.742   4.801  17.205  0.00  0.00    +0.000 NA
ATOM     16  C   UNL     1       7.025   4.950  15.784  0.00  0.00    +0.000 C 
ATOM     17  C   UNL     1       6.040   3.981  15.145  0.00  0.00    +0.000 C 
ATOM     18  C   UNL     1       4.970   3.737  16.207  0.00  0.00    +0.000 C 
ATOM     19  C   UNL     1       5.276   4.731  17.336  0.00  0.00    +0.000 C 
ENDBRANCH  13  19
ENDBRANCH   1  13
TORSDOF 3
ENDMDL
MODEL 7
REMARK VINA RESULT:      -6.6      2.897      5.839
REMARK  Name = 
REMARK  4 active torsions:
REMARK  status: ('A' for Active; 'I' for Inactive)
REMARK    1  A    between atoms: C_1  and  N_2
REMARK    2  A    between atoms: C_6  and  C_7
REMARK    3  A    between atoms: C_7  and  C_8
REMARK    4  A    between atoms: C_13  and  O_14
REMARK                            x       y       z     vdW  Elec       q    Type
REMARK                         _______ _______ _______ _____ _____    ______ ____
ROOT
ATOM      1  C   UNL     1       5.170   5.003  18.876  0.00  0.00    +0.000 A 
ATOM      2  C   UNL     1       6.414   5.137  19.462  0.00  0.00    +0.000 A 
ATOM      3  N   UNL     1       7.367   5.038  18.486  0.00  0.00    +0.000 N 
ATOM      4  C   UNL     1       6.771   4.822  17.264  0.00  0.00    +0.000 A 
ATOM      5  C   UNL     1       7.351   4.562  16.015  0.00  0.00    +0.000 A 
ATOM      6  C   UNL     1       6.478   4.395  14.940  0.00  0.00    +0.000 A 
ATOM      7  C   UNL     1       5.105   4.543  15.079  0.00  0.00    +0.000 A 
ATOM      8  C   UNL     1       4.548   4.797  16.338  0.00  0.00    +0.000 A 
ATOM      9  C   UNL     1       5.392   4.897  17.463  0.00  0.00    +0.000 A 
ATOM     10  H   UNL     1       8.365   5.079  18.640  0.00  0.00    +0.000 HD
ENDROOT
BRANCH   6  11
ATOM     11  O   UNL     1       6.952   4.062  13.702  0.00  0.00    +0.000 OA
ATOM     12  H   UNL     1       7.194   4.882  13.240  0.00  0.00    +0.000 HD
ENDBRANCH   6  11
BRANCH   1  13
ATOM     13  C   UNL     1       3.858   4.917  19.607  0.00  0.00    +0.000 C 
BRANCH  13  19
ATOM     14  C   UNL     1       1.444   4.191  17.871  0.00  0.00    +0.000 C 
ATOM     15  N   UNL     1       1.776   3.484  19.090  0.00  0.00    +0.000 NA
ATOM     16  C   UNL     1       0.990   3.895  20.246  0.00  0.00    +0.000 C 
ATOM     17  C   UNL     1       1.678   3.167  21.391  0.00  0.00    +0.000 C 
ATOM     18  C   UNL     1       3.065   2.804  20.863  0.00  0.00    +0.000 C 
ATOM     19  C   UNL     1       3.188   3.517  19.509  0.00  0.00    +0.000 C 
ENDBRANCH  13  19
ENDBRANCH   1  13
TORSDOF 3
ENDMDL
MODEL 8
REMARK VINA RESULT:      -6.6      3.094      5.968
REMARK  Name = 
REMARK  4 active torsions:
REMARK  status: ('A' for Active; 'I' for Inactive)
REMARK    1  A    between atoms: C_1  and  N_2
REMARK    2  A    between atoms: C_6  and  C_7
REMARK    3  A    between atoms: C_7  and  C_8
REMARK    4  A    between atoms: C_13  and  O_14
REMARK                            x       y       z     vdW  Elec       q    Type
REMARK                         _______ _______ _______ _____ _____    ______ ____
ROOT
ATOM      1  C   UNL     1       4.870   4.717  18.646  0.00  0.00    +0.000 A 
ATOM      2  C   UNL     1       5.980   4.356  19.383  0.00  0.00    +0.000 A 
ATOM      3  N   UNL     1       7.072   4.368  18.560  0.00  0.00    +0.000 N 
ATOM      4  C   UNL     1       6.696   4.716  17.282  0.00  0.00    +0.000 A 
ATOM      5  C   UNL     1       7.452   4.759  16.103  0.00  0.00    +0.000 A 
ATOM      6  C   UNL     1       6.788   5.167  14.946  0.00  0.00    +0.000 A 
ATOM      7  C   UNL     1       5.462   5.576  14.966  0.00  0.00    +0.000 A 
ATOM      8  C   UNL     1       4.725   5.518  16.155  0.00  0.00    +0.000 A 
ATOM      9  C   UNL     1       5.340   5.039  17.330  0.00  0.00    +0.000 A 
ATOM     10  H   UNL     1       8.013   4.122  18.835  0.00  0.00    +0.000 HD
ENDROOT
BRANCH   6  11
ATOM     11  O   UNL     1       7.427   5.165  13.738  0.00  0.00    +0.000 OA
ATOM     12  H   UNL     1       7.265   4.308  13.311  0.00  0.00    +0.000 HD
ENDBRANCH   6  11
BRANCH   1  13
ATOM     13  C   UNL     1       3.447   4.701  19.134  0.00  0.00    +0.000 C 
BRANCH  13  19
ATOM     14  C   UNL     1       3.216   1.808  18.164  0.00  0.00    +0.000 C 
ATOM     15  N   UNL     1       2.515   2.303  19.329  0.00  0.00    +0.000 NA
ATOM     16  C   UNL     1       1.119   2.638  19.082  0.00  0.00    +0.000 C 
ATOM     17  C   UNL     1       0.705   3.315  20.381  0.00  0.00    +0.000 C 
ATOM     18  C   UNL     1       2.012   3.735  21.051  0.00  0.00    +0.000 C 
ATOM     19  C   UNL     1       3.111   3.464  20.014  0.00  0.00    +0.000 C 
ENDBRANCH  13  19
ENDBRANCH   1  13
TORSDOF 3
ENDMDL
MODEL 9
REMARK VINA RESULT:      -6.6      3.053      5.825
REMARK  Name = 
REMARK  4 active torsions:
REMARK  status: ('A' for Active; 'I' for Inactive)
REMARK    1  A    between atoms: C_1  and  N_2
REMARK    2  A    between atoms: C_6  and  C_7
REMARK    3  A    between atoms: C_7  and  C_8
REMARK    4  A    between atoms: C_13  and  O_14
REMARK                            x       y       z     vdW  Elec       q    Type
REMARK                         _______ _______ _______ _____ _____    ______ ____
ROOT
ATOM      1  C   UNL     1       4.365   4.962  18.576  0.00  0.00    +0.000 A 
ATOM      2  C   UNL     1       5.243   4.272  19.387  0.00  0.00    +0.000 A 
ATOM      3  N   UNL     1       6.419   4.102  18.711  0.00  0.00    +0.000 N 
ATOM      4  C   UNL     1       6.326   4.657  17.455  0.00  0.00    +0.000 A 
ATOM      5  C   UNL     1       7.239   4.634  16.391  0.00  0.00    +0.000 A 
ATOM      6  C   UNL     1       6.863   5.303  15.227  0.00  0.00    +0.000 A 
ATOM      7  C   UNL     1       5.675   6.016  15.139  0.00  0.00    +0.000 A 
ATOM      8  C   UNL     1       4.776   6.019  16.213  0.00  0.00    +0.000 A 
ATOM      9  C   UNL     1       5.085   5.291  17.380  0.00  0.00    +0.000 A 
ATOM     10  H   UNL     1       7.229   3.610  19.063  0.00  0.00    +0.000 HD
ENDROOT
BRANCH   6  11
ATOM     11  O   UNL     1       7.658   5.268  14.116  0.00  0.00    +0.000 OA
ATOM     12  H   UNL     1       8.315   4.562  14.235  0.00  0.00    +0.000 HD
ENDBRANCH   6  11
BRANCH   1  13
ATOM     13  C   UNL     1       2.918   5.241  18.881  0.00  0.00    +0.000 C 
BRANCH  13  19
ATOM     14  C   UNL     1       0.627   3.733  20.239  0.00  0.00    +0.000 C 
ATOM     15  N   UNL     1       1.299   3.240  19.056  0.00  0.00    +0.000 NA
ATOM     16  C   UNL     1       2.307   2.224  19.328  0.00  0.00    +0.000 C 
ATOM     17  C   UNL     1       2.980   2.052  17.973  0.00  0.00    +0.000 C 
ATOM     18  C   UNL     1       2.629   3.314  17.187  0.00  0.00    +0.000 C 
ATOM     19  C   UNL     1       1.940   4.247  18.192  0.00  0.00    +0.000 C 
ENDBRANCH  13  19
ENDBRANCH   1  13
TORSDOF 3
ENDMDL
