MODEL 1
REMARK VINA RESULT:      -8.4      0.000      0.000
REMARK  Name = 
REMARK  6 active torsions:
REMARK  status: ('A' for Active; 'I' for Inactive)
REMARK    1  A    between atoms: C_2  and  O_3
REMARK    2  A    between atoms: C_2  and  C_4
REMARK    3  A    between atoms: N_6  and  C_7
REMARK    4  A    between atoms: C_12  and  N_13
REMARK    5  A    between atoms: C_15  and  C_16
REMARK    6  A    between atoms: C_16  and  N_17
REMARK                            x       y       z     vdW  Elec       q    Type
REMARK                         _______ _______ _______ _____ _____    ______ ____
ROOT
ATOM      1  C   UNL     1       4.195   4.986  18.023  0.00  0.00    +0.000 A 
ATOM      2  C   UNL     1       3.576   4.486  19.103  0.00  0.00    +0.000 A 
ATOM      3  N   UNL     1       2.641   5.142  19.889  0.00  0.00    +0.000 N 
ATOM      4  C   UNL     1       2.350   6.509  19.628  0.00  0.00    +0.000 A 
ATOM      5  C   UNL     1       1.560   7.309  20.471  0.00  0.00    +0.000 A 
ATOM      6  C   UNL     1       1.287   8.650  20.144  0.00  0.00    +0.000 A 
ATOM      7  C   UNL     1       1.765   9.177  18.943  0.00  0.00    +0.000 A 
ATOM      8  F   UNL     1       1.502  10.429  18.550  0.00  0.00    +0.000 F 
ATOM      9  C   UNL     1       2.568   8.418  18.108  0.00  0.00    +0.000 A 
ATOM     10  C   UNL     1       2.886   7.108  18.469  0.00  0.00    +0.000 A 
ATOM     11  C   UNL     1       3.850   6.364  17.635  0.00  0.00    +0.000 A 
ATOM     12  O   UNL     1       4.391   6.888  16.661  0.00  0.00    +0.000 OA
ENDROOT
BRANCH   6  13
ATOM     13  N   UNL     1       0.556   9.463  21.044  0.00  0.00    +0.000 N 
ATOM     14  C   UNL     1       0.514  10.834  21.143  0.00  0.00    +0.000 A 
ATOM     15  C   UNL     1      -0.387  11.096  22.147  0.00  0.00    +0.000 A 
ATOM     16  N   UNL     1      -0.806   9.914  22.686  0.00  0.00    +0.000 NA
ATOM     17  N   UNL     1      -0.233   8.928  22.008  0.00  0.00    +0.000 NA
BRANCH  15  18
ATOM     18  C   UNL     1      -0.915  12.399  22.607  0.00  0.00    +0.000 C 
BRANCH  18  19
ATOM     19  N   UNL     1      -2.353  12.451  22.411  0.00  0.00    +0.000 N 
ATOM     20  C   UNL     1      -3.011  12.670  21.231  0.00  0.00    +0.000 A 
ATOM     21  C   UNL     1      -4.345  12.678  21.567  0.00  0.00    +0.000 A 
ATOM     22  N   UNL     1      -4.512  12.452  22.908  0.00  0.00    +0.000 NA
ATOM     23  C   UNL     1      -3.297  12.315  23.390  0.00  0.00    +0.000 A 
ENDBRANCH  18  19
ENDBRANCH  15  18
ENDBRANCH   6  13
BRANCH   3  24
ATOM     24  C   UNL     1       2.145   4.444  21.093  0.00  0.00    +0.000 C 
ATOM     25  C   UNL     1       1.216   3.256  21.038  0.00  0.00    +0.000 C 
ATOM     26  C   UNL     1       2.641   3.059  21.449  0.00  0.00    +0.000 C 
ENDBRANCH   3  24
BRANCH   1  28
ATOM     27  O   UNL     1       4.970   3.660  16.209  0.00  0.00    +0.000 OA
ATOM     28  C   UNL     1       5.186   4.162  17.300  0.00  0.00    +0.000 C 
BRANCH  28  29
ATOM     29  O   UNL     1       6.361   3.998  17.949  0.00  0.00    +0.000 OA
ATOM     30  H   UNL     1       6.903   4.818  18.022  0.00  0.00    +0.000 HD
ENDBRANCH  28  29
ENDBRANCH   1  28
TORSDOF 6
ENDMDL
MODEL 2
REMARK VINA RESULT:      -8.3      0.881      1.193
REMARK  Name = 
REMARK  6 active torsions:
REMARK  status: ('A' for Active; 'I' for Inactive)
REMARK    1  A    between atoms: C_2  and  O_3
REMARK    2  A    between atoms: C_2  and  C_4
REMARK    3  A    between atoms: N_6  and  C_7
REMARK    4  A    between atoms: C_12  and  N_13
REMARK    5  A    between atoms: C_15  and  C_16
REMARK    6  A    between atoms: C_16  and  N_17
REMARK                            x       y       z     vdW  Elec       q    Type
REMARK                         _______ _______ _______ _____ _____    ______ ____
ROOT
ATOM      1  C   UNL     1       4.201   4.940  17.921  0.00  0.00    +0.000 A 
ATOM      2  C   UNL     1       3.653   4.370  19.005  0.00  0.00    +0.000 A 
ATOM      3  N   UNL     1       2.763   4.967  19.885  0.00  0.00    +0.000 N 
ATOM      4  C   UNL     1       2.447   6.344  19.724  0.00  0.00    +0.000 A 
ATOM      5  C   UNL     1       1.704   7.082  20.661  0.00  0.00    +0.000 A 
ATOM      6  C   UNL     1       1.401   8.437  20.433  0.00  0.00    +0.000 A 
ATOM      7  C   UNL     1       1.800   9.041  19.239  0.00  0.00    +0.000 A 
ATOM      8  F   UNL     1       1.504  10.312  18.940  0.00  0.00    +0.000 F 
ATOM      9  C   UNL     1       2.557   8.343  18.313  0.00  0.00    +0.000 A 
ATOM     10  C   UNL     1       2.906   7.017  18.574  0.00  0.00    +0.000 A 
ATOM     11  C   UNL     1       3.822   6.335  17.639  0.00  0.00    +0.000 A 
ATOM     12  O   UNL     1       4.299   6.922  16.667  0.00  0.00    +0.000 OA
ENDROOT
BRANCH   6  13
ATOM     13  N   UNL     1       0.720   9.187  21.424  0.00  0.00    +0.000 N 
ATOM     14  C   UNL     1      -0.416   9.953  21.310  0.00  0.00    +0.000 A 
ATOM     15  C   UNL     1      -0.669  10.415  22.578  0.00  0.00    +0.000 A 
ATOM     16  N   UNL     1       0.335  10.004  23.408  0.00  0.00    +0.000 NA
ATOM     17  N   UNL     1       1.171   9.256  22.701  0.00  0.00    +0.000 NA
BRANCH  15  18
ATOM     18  C   UNL     1      -1.828  11.189  23.074  0.00  0.00    +0.000 C 
BRANCH  18  19
ATOM     19  N   UNL     1      -1.911  12.462  22.378  0.00  0.00    +0.000 N 
ATOM     20  C   UNL     1      -1.034  13.507  22.478  0.00  0.00    +0.000 A 
ATOM     21  C   UNL     1      -1.566  14.491  21.676  0.00  0.00    +0.000 A 
ATOM     22  N   UNL     1      -2.725  14.064  21.082  0.00  0.00    +0.000 NA
ATOM     23  C   UNL     1      -2.906  12.838  21.520  0.00  0.00    +0.000 A 
ENDBRANCH  18  19
ENDBRANCH  15  18
ENDBRANCH   6  13
BRANCH   3  24
ATOM     24  C   UNL     1       2.348   4.192  21.072  0.00  0.00    +0.000 C 
ATOM     25  C   UNL     1       1.185   3.230  21.068  0.00  0.00    +0.000 C 
ATOM     26  C   UNL     1       2.581   2.699  21.147  0.00  0.00    +0.000 C 
ENDBRANCH   3  24
BRANCH   1  28
ATOM     27  O   UNL     1       4.865   3.716  15.996  0.00  0.00    +0.000 OA
ATOM     28  C   UNL     1       5.151   4.172  17.090  0.00  0.00    +0.000 C 
BRANCH  28  29
ATOM     29  O   UNL     1       6.374   4.006  17.645  0.00  0.00    +0.000 OA
ATOM     30  H   UNL     1       7.002   4.747  17.475  0.00  0.00    +0.000 HD
ENDBRANCH  28  29
ENDBRANCH   1  28
TORSDOF 6
ENDMDL
MODEL 3
REMARK VINA RESULT:      -8.3      2.851      3.920
REMARK  Name = 
REMARK  6 active torsions:
REMARK  status: ('A' for Active; 'I' for Inactive)
REMARK    1  A    between atoms: C_2  and  O_3
REMARK    2  A    between atoms: C_2  and  C_4
REMARK    3  A    between atoms: N_6  and  C_7
REMARK    4  A    between atoms: C_12  and  N_13
REMARK    5  A    between atoms: C_15  and  C_16
REMARK    6  A    between atoms: C_16  and  N_17
REMARK                            x       y       z     vdW  Elec       q    Type
REMARK                         _______ _______ _______ _____ _____    ______ ____
ROOT
ATOM      1  C   UNL     1       3.719   3.794  19.268  0.00  0.00    +0.000 A 
ATOM      2  C   UNL     1       4.265   4.657  18.397  0.00  0.00    +0.000 A 
ATOM      3  N   UNL     1       3.973   6.008  18.289  0.00  0.00    +0.000 N 
ATOM      4  C   UNL     1       2.931   6.559  19.084  0.00  0.00    +0.000 A 
ATOM      5  C   UNL     1       2.439   7.865  18.921  0.00  0.00    +0.000 A 
ATOM      6  C   UNL     1       1.423   8.362  19.758  0.00  0.00    +0.000 A 
ATOM      7  C   UNL     1       0.933   7.566  20.794  0.00  0.00    +0.000 A 
ATOM      8  F   UNL     1       0.001   7.994  21.654  0.00  0.00    +0.000 F 
ATOM      9  C   UNL     1       1.382   6.266  20.959  0.00  0.00    +0.000 A 
ATOM     10  C   UNL     1       2.346   5.759  20.087  0.00  0.00    +0.000 A 
ATOM     11  C   UNL     1       2.711   4.333  20.196  0.00  0.00    +0.000 A 
ATOM     12  O   UNL     1       2.161   3.592  21.012  0.00  0.00    +0.000 OA
ENDROOT
BRANCH   6  13
ATOM     13  N   UNL     1       0.885   9.652  19.527  0.00  0.00    +0.000 N 
ATOM     14  C   UNL     1       0.184  10.122  18.442  0.00  0.00    +0.000 A 
ATOM     15  C   UNL     1      -0.141  11.419  18.756  0.00  0.00    +0.000 A 
ATOM     16  N   UNL     1       0.422  11.738  19.959  0.00  0.00    +0.000 NA
ATOM     17  N   UNL     1       1.038  10.659  20.422  0.00  0.00    +0.000 NA
BRANCH  15  18
ATOM     18  C   UNL     1      -0.992  12.374  18.011  0.00  0.00    +0.000 C 
BRANCH  18  19
ATOM     19  N   UNL     1      -2.271  11.762  17.697  0.00  0.00    +0.000 N 
ATOM     20  C   UNL     1      -2.667  11.272  16.482  0.00  0.00    +0.000 A 
ATOM     21  C   UNL     1      -3.961  10.848  16.679  0.00  0.00    +0.000 A 
ATOM     22  N   UNL     1      -4.350  11.050  17.977  0.00  0.00    +0.000 NA
ATOM     23  C   UNL     1      -3.312  11.598  18.568  0.00  0.00    +0.000 A 
ENDBRANCH  18  19
ENDBRANCH  15  18
ENDBRANCH   6  13
BRANCH   3  24
ATOM     24  C   UNL     1       4.622   6.765  17.199  0.00  0.00    +0.000 C 
ATOM     25  C   UNL     1       6.094   6.666  16.884  0.00  0.00    +0.000 C 
ATOM     26  C   UNL     1       5.097   6.068  15.943  0.00  0.00    +0.000 C 
ENDBRANCH   3  24
BRANCH   1  28
ATOM     27  O   UNL     1       3.579   1.533  18.549  0.00  0.00    +0.000 OA
ATOM     28  C   UNL     1       4.125   2.373  19.244  0.00  0.00    +0.000 C 
BRANCH  28  29
ATOM     29  O   UNL     1       5.156   2.071  20.067  0.00  0.00    +0.000 OA
ATOM     30  H   UNL     1       4.965   2.208  21.025  0.00  0.00    +0.000 HD
ENDBRANCH  28  29
ENDBRANCH   1  28
TORSDOF 6
ENDMDL
MODEL 4
REMARK VINA RESULT:      -8.2      1.111      1.548
REMARK  Name = 
REMARK  6 active torsions:
REMARK  status: ('A' for Active; 'I' for Inactive)
REMARK    1  A    between atoms: C_2  and  O_3
REMARK    2  A    between atoms: C_2  and  C_4
REMARK    3  A    between atoms: N_6  and  C_7
REMARK    4  A    between atoms: C_12  and  N_13
REMARK    5  A    between atoms: C_15  and  C_16
REMARK    6  A    between atoms: C_16  and  N_17
REMARK                            x       y       z     vdW  Elec       q    Type
REMARK                         _______ _______ _______ _____ _____    ______ ____
ROOT
ATOM      1  C   UNL     1       4.204   5.033  17.949  0.00  0.00    +0.000 A 
ATOM      2  C   UNL     1       3.552   4.587  19.033  0.00  0.00    +0.000 A 
ATOM      3  N   UNL     1       2.632   5.299  19.787  0.00  0.00    +0.000 N 
ATOM      4  C   UNL     1       2.396   6.668  19.483  0.00  0.00    +0.000 A 
ATOM      5  C   UNL     1       1.624   7.520  20.292  0.00  0.00    +0.000 A 
ATOM      6  C   UNL     1       1.406   8.860  19.924  0.00  0.00    +0.000 A 
ATOM      7  C   UNL     1       1.919   9.335  18.716  0.00  0.00    +0.000 A 
ATOM      8  F   UNL     1       1.709  10.585  18.285  0.00  0.00    +0.000 F 
ATOM      9  C   UNL     1       2.706   8.524  17.915  0.00  0.00    +0.000 A 
ATOM     10  C   UNL     1       2.969   7.214  18.317  0.00  0.00    +0.000 A 
ATOM     11  C   UNL     1       3.916   6.411  17.518  0.00  0.00    +0.000 A 
ATOM     12  O   UNL     1       4.490   6.887  16.538  0.00  0.00    +0.000 OA
ENDROOT
BRANCH   6  13
ATOM     13  N   UNL     1       0.693   9.724  20.791  0.00  0.00    +0.000 N 
ATOM     14  C   UNL     1      -0.328  10.599  20.502  0.00  0.00    +0.000 A 
ATOM     15  C   UNL     1      -0.686  11.147  21.710  0.00  0.00    +0.000 A 
ATOM     16  N   UNL     1       0.154  10.674  22.678  0.00  0.00    +0.000 NA
ATOM     17  N   UNL     1       0.984   9.808  22.112  0.00  0.00    +0.000 NA
BRANCH  15  18
ATOM     18  C   UNL     1      -1.805  12.063  22.023  0.00  0.00    +0.000 C 
BRANCH  18  19
ATOM     19  N   UNL     1      -1.291  13.327  22.518  0.00  0.00    +0.000 N 
ATOM     20  C   UNL     1      -0.557  14.244  21.815  0.00  0.00    +0.000 A 
ATOM     21  C   UNL     1      -0.269  15.236  22.723  0.00  0.00    +0.000 A 
ATOM     22  N   UNL     1      -0.822  14.955  23.945  0.00  0.00    +0.000 NA
ATOM     23  C   UNL     1      -1.434  13.803  23.792  0.00  0.00    +0.000 A 
ENDBRANCH  18  19
ENDBRANCH  15  18
ENDBRANCH   6  13
BRANCH   3  24
ATOM     24  C   UNL     1       2.093   4.653  21.002  0.00  0.00    +0.000 C 
ATOM     25  C   UNL     1       1.203   3.435  20.967  0.00  0.00    +0.000 C 
ATOM     26  C   UNL     1       2.609   3.307  21.461  0.00  0.00    +0.000 C 
ENDBRANCH   3  24
BRANCH   1  28
ATOM     27  O   UNL     1       4.958   3.636  16.179  0.00  0.00    +0.000 OA
ATOM     28  C   UNL     1       5.174   4.153  17.263  0.00  0.00    +0.000 C 
BRANCH  28  29
ATOM     29  O   UNL     1       6.328   3.955  17.940  0.00  0.00    +0.000 OA
ATOM     30  H   UNL     1       6.557   3.007  18.085  0.00  0.00    +0.000 HD
ENDBRANCH  28  29
ENDBRANCH   1  28
TORSDOF 6
ENDMDL
MODEL 5
REMARK VINA RESULT:      -8.2      1.382      1.749
REMARK  Name = 
REMARK  6 active torsions:
REMARK  status: ('A' for Active; 'I' for Inactive)
REMARK    1  A    between atoms: C_2  and  O_3
REMARK    2  A    between atoms: C_2  and  C_4
REMARK    3  A    between atoms: N_6  and  C_7
REMARK    4  A    between atoms: C_12  and  N_13
REMARK    5  A    between atoms: C_15  and  C_16
REMARK    6  A    between atoms: C_16  and  N_17
REMARK                            x       y       z     vdW  Elec       q    Type
REMARK                         _______ _______ _______ _____ _____    ______ ____
ROOT
ATOM      1  C   UNL     1       5.265   4.927  17.357  0.00  0.00    +0.000 A 
ATOM      2  C   UNL     1       4.597   4.339  18.361  0.00  0.00    +0.000 A 
ATOM      3  N   UNL     1       3.533   4.881  19.066  0.00  0.00    +0.000 N 
ATOM      4  C   UNL     1       3.139   6.222  18.806  0.00  0.00    +0.000 A 
ATOM      5  C   UNL     1       2.200   6.919  19.585  0.00  0.00    +0.000 A 
ATOM      6  C   UNL     1       1.832   8.238  19.262  0.00  0.00    +0.000 A 
ATOM      7  C   UNL     1       2.368   8.844  18.125  0.00  0.00    +0.000 A 
ATOM      8  F   UNL     1       2.026  10.077  17.735  0.00  0.00    +0.000 F 
ATOM      9  C   UNL     1       3.317   8.189  17.356  0.00  0.00    +0.000 A 
ATOM     10  C   UNL     1       3.723   6.904  17.719  0.00  0.00    +0.000 A 
ATOM     11  C   UNL     1       4.828   6.278  16.966  0.00  0.00    +0.000 A 
ATOM     12  O   UNL     1       5.407   6.880  16.061  0.00  0.00    +0.000 OA
ENDROOT
BRANCH   6  13
ATOM     13  N   UNL     1       0.944   8.951  20.104  0.00  0.00    +0.000 N 
ATOM     14  C   UNL     1       0.901   9.007  21.477  0.00  0.00    +0.000 A 
ATOM     15  C   UNL     1      -0.118   9.880  21.771  0.00  0.00    +0.000 A 
ATOM     16  N   UNL     1      -0.720  10.266  20.608  0.00  0.00    +0.000 NA
ATOM     17  N   UNL     1      -0.067   9.703  19.602  0.00  0.00    +0.000 NA
BRANCH  15  18
ATOM     18  C   UNL     1      -0.540  10.411  23.087  0.00  0.00    +0.000 C 
BRANCH  18  19
ATOM     19  N   UNL     1      -1.193  11.697  22.919  0.00  0.00    +0.000 N 
ATOM     20  C   UNL     1      -2.507  11.986  23.169  0.00  0.00    +0.000 A 
ATOM     21  C   UNL     1      -2.651  13.307  22.812  0.00  0.00    +0.000 A 
ATOM     22  N   UNL     1      -1.462  13.827  22.373  0.00  0.00    +0.000 NA
ATOM     23  C   UNL     1      -0.601  12.837  22.451  0.00  0.00    +0.000 A 
ENDBRANCH  18  19
ENDBRANCH  15  18
ENDBRANCH   6  13
BRANCH   3  24
ATOM     24  C   UNL     1       2.995   4.103  20.200  0.00  0.00    +0.000 C 
ATOM     25  C   UNL     1       1.609   3.506  20.212  0.00  0.00    +0.000 C 
ATOM     26  C   UNL     1       2.798   2.606  20.094  0.00  0.00    +0.000 C 
ENDBRANCH   3  24
BRANCH   1  28
ATOM     27  O   UNL     1       7.562   4.521  16.903  0.00  0.00    +0.000 OA
ATOM     28  C   UNL     1       6.395   4.222  16.716  0.00  0.00    +0.000 C 
BRANCH  28  29
ATOM     29  O   UNL     1       6.032   3.213  15.891  0.00  0.00    +0.000 OA
ATOM     30  H   UNL     1       6.593   3.125  15.085  0.00  0.00    +0.000 HD
ENDBRANCH  28  29
ENDBRANCH   1  28
TORSDOF 6
ENDMDL
MODEL 6
REMARK VINA RESULT:      -8.1      2.843      3.996
REMARK  Name = 
REMARK  6 active torsions:
REMARK  status: ('A' for Active; 'I' for Inactive)
REMARK    1  A    between atoms: C_2  and  O_3
REMARK    2  A    between atoms: C_2  and  C_4
REMARK    3  A    between atoms: N_6  and  C_7
REMARK    4  A    between atoms: C_12  and  N_13
REMARK    5  A    between atoms: C_15  and  C_16
REMARK    6  A    between atoms: C_16  and  N_17
REMARK                            x       y       z     vdW  Elec       q    Type
REMARK                         _______ _______ _______ _____ _____    ______ ____
ROOT
ATOM      1  C   UNL     1       4.274   3.032  19.457  0.00  0.00    +0.000 A 
ATOM      2  C   UNL     1       4.919   3.815  18.579  0.00  0.00    +0.000 A 
ATOM      3  N   UNL     1       4.680   5.161  18.351  0.00  0.00    +0.000 N 
ATOM      4  C   UNL     1       3.593   5.795  19.012  0.00  0.00    +0.000 A 
ATOM      5  C   UNL     1       3.158   7.098  18.715  0.00  0.00    +0.000 A 
ATOM      6  C   UNL     1       2.091   7.680  19.423  0.00  0.00    +0.000 A 
ATOM      7  C   UNL     1       1.489   6.975  20.466  0.00  0.00    +0.000 A 
ATOM      8  F   UNL     1       0.501   7.488  21.209  0.00  0.00    +0.000 F 
ATOM      9  C   UNL     1       1.881   5.679  20.760  0.00  0.00    +0.000 A 
ATOM     10  C   UNL     1       2.899   5.085  20.013  0.00  0.00    +0.000 A 
ATOM     11  C   UNL     1       3.208   3.662  20.254  0.00  0.00    +0.000 A 
ATOM     12  O   UNL     1       2.567   2.997  21.068  0.00  0.00    +0.000 OA
ENDROOT
BRANCH   6  13
ATOM     13  N   UNL     1       1.615   8.964  19.056  0.00  0.00    +0.000 N 
ATOM     14  C   UNL     1       0.607   9.712  19.616  0.00  0.00    +0.000 A 
ATOM     15  C   UNL     1       0.596  10.890  18.910  0.00  0.00    +0.000 A 
ATOM     16  N   UNL     1       1.516  10.812  17.904  0.00  0.00    +0.000 NA
ATOM     17  N   UNL     1       2.133   9.642  18.003  0.00  0.00    +0.000 NA
BRANCH  15  18
ATOM     18  C   UNL     1      -0.202  12.113  19.149  0.00  0.00    +0.000 C 
BRANCH  18  19
ATOM     19  N   UNL     1      -1.585  11.888  18.767  0.00  0.00    +0.000 N 
ATOM     20  C   UNL     1      -2.034  11.385  17.576  0.00  0.00    +0.000 A 
ATOM     21  C   UNL     1      -3.405  11.411  17.677  0.00  0.00    +0.000 A 
ATOM     22  N   UNL     1      -3.796  11.894  18.898  0.00  0.00    +0.000 NA
ATOM     23  C   UNL     1      -2.680  12.170  19.535  0.00  0.00    +0.000 A 
ENDBRANCH  18  19
ENDBRANCH  15  18
ENDBRANCH   6  13
BRANCH   3  24
ATOM     24  C   UNL     1       5.444   5.820  17.272  0.00  0.00    +0.000 C 
ATOM     25  C   UNL     1       6.529   5.129  16.483  0.00  0.00    +0.000 C 
ATOM     26  C   UNL     1       5.225   5.445  15.823  0.00  0.00    +0.000 C 
ENDBRANCH   3  24
BRANCH   1  28
ATOM     27  O   UNL     1       5.300   1.152  20.487  0.00  0.00    +0.000 OA
ATOM     28  C   UNL     1       4.636   1.603  19.569  0.00  0.00    +0.000 C 
BRANCH  28  29
ATOM     29  O   UNL     1       4.176   0.827  18.561  0.00  0.00    +0.000 OA
ATOM     30  H   UNL     1       4.237   1.242  17.668  0.00  0.00    +0.000 HD
ENDBRANCH  28  29
ENDBRANCH   1  28
TORSDOF 6
ENDMDL
MODEL 7
REMARK VINA RESULT:      -8.1      2.820      3.962
REMARK  Name = 
REMARK  6 active torsions:
REMARK  status: ('A' for Active; 'I' for Inactive)
REMARK    1  A    between atoms: C_2  and  O_3
REMARK    2  A    between atoms: C_2  and  C_4
REMARK    3  A    between atoms: N_6  and  C_7
REMARK    4  A    between atoms: C_12  and  N_13
REMARK    5  A    between atoms: C_15  and  C_16
REMARK    6  A    between atoms: C_16  and  N_17
REMARK                            x       y       z     vdW  Elec       q    Type
REMARK                         _______ _______ _______ _____ _____    ______ ____
ROOT
ATOM      1  C   UNL     1       3.912   3.378  19.130  0.00  0.00    +0.000 A 
ATOM      2  C   UNL     1       4.448   4.134  18.161  0.00  0.00    +0.000 A 
ATOM      3  N   UNL     1       4.222   5.486  17.956  0.00  0.00    +0.000 N 
ATOM      4  C   UNL     1       3.263   6.160  18.760  0.00  0.00    +0.000 A 
ATOM      5  C   UNL     1       2.833   7.475  18.516  0.00  0.00    +0.000 A 
ATOM      6  C   UNL     1       1.898   8.097  19.365  0.00  0.00    +0.000 A 
ATOM      7  C   UNL     1       1.432   7.417  20.491  0.00  0.00    +0.000 A 
ATOM      8  F   UNL     1       0.579   7.967  21.364  0.00  0.00    +0.000 F 
ATOM      9  C   UNL     1       1.819   6.111  20.739  0.00  0.00    +0.000 A 
ATOM     10  C   UNL     1       2.699   5.479  19.859  0.00  0.00    +0.000 A 
ATOM     11  C   UNL     1       2.993   4.048  20.067  0.00  0.00    +0.000 A 
ATOM     12  O   UNL     1       2.456   3.409  20.972  0.00  0.00    +0.000 OA
ENDROOT
BRANCH   6  13
ATOM     13  N   UNL     1       1.416   9.393  19.058  0.00  0.00    +0.000 N 
ATOM     14  C   UNL     1       0.229   9.988  19.414  0.00  0.00    +0.000 A 
ATOM     15  C   UNL     1       0.293  11.260  18.897  0.00  0.00    +0.000 A 
ATOM     16  N   UNL     1       1.449  11.390  18.182  0.00  0.00    +0.000 NA
ATOM     17  N   UNL     1       2.127  10.255  18.289  0.00  0.00    +0.000 NA
BRANCH  15  18
ATOM     18  C   UNL     1      -0.653  12.384  19.070  0.00  0.00    +0.000 C 
BRANCH  18  19
ATOM     19  N   UNL     1      -1.962  12.017  18.560  0.00  0.00    +0.000 N 
ATOM     20  C   UNL     1      -3.146  12.054  19.244  0.00  0.00    +0.000 A 
ATOM     21  C   UNL     1      -4.080  11.569  18.358  0.00  0.00    +0.000 A 
ATOM     22  N   UNL     1      -3.499  11.259  17.156  0.00  0.00    +0.000 NA
ATOM     23  C   UNL     1      -2.225  11.542  17.305  0.00  0.00    +0.000 A 
ENDBRANCH  18  19
ENDBRANCH  15  18
ENDBRANCH   6  13
BRANCH   3  24
ATOM     24  C   UNL     1       4.842   6.114  16.771  0.00  0.00    +0.000 C 
ATOM     25  C   UNL     1       6.291   5.920  16.393  0.00  0.00    +0.000 C 
ATOM     26  C   UNL     1       5.221   5.288  15.561  0.00  0.00    +0.000 C 
ENDBRANCH   3  24
BRANCH   1  28
ATOM     27  O   UNL     1       3.760   1.105  18.453  0.00  0.00    +0.000 OA
ATOM     28  C   UNL     1       4.239   1.939  19.204  0.00  0.00    +0.000 C 
BRANCH  28  29
ATOM     29  O   UNL     1       5.114   1.611  20.182  0.00  0.00    +0.000 OA
ATOM     30  H   UNL     1       6.029   1.951  20.040  0.00  0.00    +0.000 HD
ENDBRANCH  28  29
ENDBRANCH   1  28
TORSDOF 6
ENDMDL
MODEL 8
REMARK VINA RESULT:      -8.0      1.007      1.071
REMARK  Name = 
REMARK  6 active torsions:
REMARK  status: ('A' for Active; 'I' for Inactive)
REMARK    1  A    between atoms: C_2  and  O_3
REMARK    2  A    between atoms: C_2  and  C_4
REMARK    3  A    between atoms: N_6  and  C_7
REMARK    4  A    between atoms: C_12  and  N_13
REMARK    5  A    between atoms: C_15  and  C_16
REMARK    6  A    between atoms: C_16  and  N_17
REMARK                            x       y       z     vdW  Elec       q    Type
REMARK                         _______ _______ _______ _____ _____    ______ ____
ROOT
ATOM      1  C   UNL     1       4.309   5.148  18.026  0.00  0.00    +0.000 A 
ATOM      2  C   UNL     1       3.471   4.789  19.009  0.00  0.00    +0.000 A 
ATOM      3  N   UNL     1       2.459   5.567  19.550  0.00  0.00    +0.000 N 
ATOM      4  C   UNL     1       2.321   6.918  19.127  0.00  0.00    +0.000 A 
ATOM      5  C   UNL     1       1.451   7.837  19.738  0.00  0.00    +0.000 A 
ATOM      6  C   UNL     1       1.340   9.154  19.257  0.00  0.00    +0.000 A 
ATOM      7  C   UNL     1       2.064   9.538  18.127  0.00  0.00    +0.000 A 
ATOM      8  F   UNL     1       1.969  10.760  17.590  0.00  0.00    +0.000 F 
ATOM      9  C   UNL     1       2.948   8.659  17.522  0.00  0.00    +0.000 A 
ATOM     10  C   UNL     1       3.099   7.374  18.043  0.00  0.00    +0.000 A 
ATOM     11  C   UNL     1       4.141   6.501  17.468  0.00  0.00    +0.000 A 
ATOM     12  O   UNL     1       4.887   6.899  16.572  0.00  0.00    +0.000 OA
ENDROOT
BRANCH   6  13
ATOM     13  N   UNL     1       0.519  10.088  19.935  0.00  0.00    +0.000 N 
ATOM     14  C   UNL     1       0.732  10.726  21.134  0.00  0.00    +0.000 A 
ATOM     15  C   UNL     1      -0.349  11.558  21.298  0.00  0.00    +0.000 A 
ATOM     16  N   UNL     1      -1.222  11.358  20.267  0.00  0.00    +0.000 NA
ATOM     17  N   UNL     1      -0.685  10.469  19.442  0.00  0.00    +0.000 NA
BRANCH  15  18
ATOM     18  C   UNL     1      -0.597  12.568  22.350  0.00  0.00    +0.000 C 
BRANCH  18  19
ATOM     19  N   UNL     1      -2.022  12.689  22.600  0.00  0.00    +0.000 N 
ATOM     20  C   UNL     1      -2.868  13.626  22.073  0.00  0.00    +0.000 A 
ATOM     21  C   UNL     1      -4.091  13.358  22.644  0.00  0.00    +0.000 A 
ATOM     22  N   UNL     1      -4.012  12.277  23.482  0.00  0.00    +0.000 NA
ATOM     23  C   UNL     1      -2.757  11.892  23.434  0.00  0.00    +0.000 A 
ENDBRANCH  18  19
ENDBRANCH  15  18
ENDBRANCH   6  13
BRANCH   3  24
ATOM     24  C   UNL     1       1.705   5.015  20.693  0.00  0.00    +0.000 C 
ATOM     25  C   UNL     1       1.035   3.663  20.668  0.00  0.00    +0.000 C 
ATOM     26  C   UNL     1       2.256   3.865  21.507  0.00  0.00    +0.000 C 
ENDBRANCH   3  24
BRANCH   1  28
ATOM     27  O   UNL     1       5.372   3.720  16.452  0.00  0.00    +0.000 OA
ATOM     28  C   UNL     1       5.352   4.205  17.570  0.00  0.00    +0.000 C 
BRANCH  28  29
ATOM     29  O   UNL     1       6.289   3.913  18.501  0.00  0.00    +0.000 OA
ATOM     30  H   UNL     1       7.157   3.626  18.129  0.00  0.00    +0.000 HD
ENDBRANCH  28  29
ENDBRANCH   1  28
TORSDOF 6
ENDMDL
MODEL 9
REMARK VINA RESULT:      -7.9      1.147      1.458
REMARK  Name = 
REMARK  6 active torsions:
REMARK  status: ('A' for Active; 'I' for Inactive)
REMARK    1  A    between atoms: C_2  and  O_3
REMARK    2  A    between atoms: C_2  and  C_4
REMARK    3  A    between atoms: N_6  and  C_7
REMARK    4  A    between atoms: C_12  and  N_13
REMARK    5  A    between atoms: C_15  and  C_16
REMARK    6  A    between atoms: C_16  and  N_17
REMARK                            x       y       z     vdW  Elec       q    Type
REMARK                         _______ _______ _______ _____ _____    ______ ____
ROOT
ATOM      1  C   UNL     1       5.290   4.853  17.250  0.00  0.00    +0.000 A 
ATOM      2  C   UNL     1       4.776   4.235  18.324  0.00  0.00    +0.000 A 
ATOM      3  N   UNL     1       3.770   4.720  19.145  0.00  0.00    +0.000 N 
ATOM      4  C   UNL     1       3.273   6.035  18.933  0.00  0.00    +0.000 A 
ATOM      5  C   UNL     1       2.390   6.682  19.813  0.00  0.00    +0.000 A 
ATOM      6  C   UNL     1       1.913   7.976  19.534  0.00  0.00    +0.000 A 
ATOM      7  C   UNL     1       2.281   8.604  18.343  0.00  0.00    +0.000 A 
ATOM      8  F   UNL     1       1.827   9.814  17.995  0.00  0.00    +0.000 F 
ATOM      9  C   UNL     1       3.172   7.999  17.472  0.00  0.00    +0.000 A 
ATOM     10  C   UNL     1       3.689   6.742  17.786  0.00  0.00    +0.000 A 
ATOM     11  C   UNL     1       4.736   6.175  16.912  0.00  0.00    +0.000 A 
ATOM     12  O   UNL     1       5.173   6.802  15.947  0.00  0.00    +0.000 OA
ENDROOT
BRANCH   6  13
ATOM     13  N   UNL     1       1.087   8.644  20.472  0.00  0.00    +0.000 N 
ATOM     14  C   UNL     1       1.105   9.961  20.867  0.00  0.00    +0.000 A 
ATOM     15  C   UNL     1       0.065  10.086  21.755  0.00  0.00    +0.000 A 
ATOM     16  N   UNL     1      -0.504   8.859  21.948  0.00  0.00    +0.000 NA
ATOM     17  N   UNL     1       0.119   7.991  21.161  0.00  0.00    +0.000 NA
BRANCH  15  18
ATOM     18  C   UNL     1      -0.460  11.304  22.409  0.00  0.00    +0.000 C 
BRANCH  18  19
ATOM     19  N   UNL     1      -1.567  11.845  21.640  0.00  0.00    +0.000 N 
ATOM     20  C   UNL     1      -1.656  11.920  20.276  0.00  0.00    +0.000 A 
ATOM     21  C   UNL     1      -2.855  12.550  20.036  0.00  0.00    +0.000 A 
ATOM     22  N   UNL     1      -3.499  12.839  21.210  0.00  0.00    +0.000 NA
ATOM     23  C   UNL     1      -2.703  12.401  22.159  0.00  0.00    +0.000 A 
ENDBRANCH  18  19
ENDBRANCH  15  18
ENDBRANCH   6  13
BRANCH   3  24
ATOM     24  C   UNL     1       3.409   3.920  20.334  0.00  0.00    +0.000 C 
ATOM     25  C   UNL     1       2.067   4.012  21.018  0.00  0.00    +0.000 C 
ATOM     26  C   UNL     1       2.413   2.785  20.235  0.00  0.00    +0.000 C 
ENDBRANCH   3  24
BRANCH   1  28
ATOM     27  O   UNL     1       7.544   4.563  16.552  0.00  0.00    +0.000 OA
ATOM     28  C   UNL     1       6.378   4.209  16.485  0.00  0.00    +0.000 C 
BRANCH  28  29
ATOM     29  O   UNL     1       5.978   3.191  15.690  0.00  0.00    +0.000 OA
ATOM     30  H   UNL     1       6.093   2.295  16.087  0.00  0.00    +0.000 HD
ENDBRANCH  28  29
ENDBRANCH   1  28
TORSDOF 6
ENDMDL
