MODEL 1
REMARK VINA RESULT:      -8.0      0.000      0.000
REMARK  Name = 
REMARK  3 active torsions:
REMARK  status: ('A' for Active; 'I' for Inactive)
REMARK    1  A    between atoms: C_1  and  N_2
REMARK    2  A    between atoms: C_5  and  C_6
REMARK    3  A    between atoms: C_6  and  N_7
REMARK                            x       y       z     vdW  Elec       q    Type
REMARK                         _______ _______ _______ _____ _____    ______ ____
ROOT
ATOM      1  N   UNL     1       3.497   2.906  17.915  0.00  0.00    +0.000 NA
ATOM      2  C   UNL     1       4.151   2.578  19.184  0.00  0.00    +0.000 C 
ATOM      3  C   UNL     1       3.081   2.225  20.204  0.00  0.00    +0.000 C 
ATOM      4  C   UNL     1       2.716   3.261  21.291  0.00  0.00    +0.000 C 
ATOM      5  C   UNL     1       2.471   4.664  20.711  0.00  0.00    +0.000 C 
ATOM      6  C   UNL     1       1.130   4.500  19.976  0.00  0.00    +0.000 C 
ATOM      7  C   UNL     1       0.806   3.016  20.179  0.00  0.00    +0.000 C 
ATOM      8  C   UNL     1       1.283   2.827  21.624  0.00  0.00    +0.000 C 
ATOM      9  C   UNL     1       1.772   2.072  19.420  0.00  0.00    +0.000 C 
ATOM     10  C   UNL     1       2.135   2.348  17.963  0.00  0.00    +0.000 C 
ENDROOT
BRANCH   1  11
ATOM     11  C   UNL     1       3.564   4.306  17.448  0.00  0.00    +0.000 C 
BRANCH  11  16
ATOM     12  C   UNL     1       7.796   7.843  17.774  0.00  0.00    +0.000 C 
ATOM     13  N   UNL     1       7.604   6.997  16.627  0.00  0.00    +0.000 N 
ATOM     14  C   UNL     1       6.698   5.993  16.572  0.00  0.00    +0.000 A 
ATOM     15  N   UNL     1       5.606   5.808  17.295  0.00  0.00    +0.000 NA
ATOM     16  C   UNL     1       4.892   4.684  16.830  0.00  0.00    +0.000 A 
ATOM     17  C   UNL     1       5.493   4.039  15.777  0.00  0.00    +0.000 A 
ATOM     18  S   UNL     1       6.956   4.788  15.353  0.00  0.00    +0.000 S 
ATOM     19  H   UNL     1       8.439   6.852  16.070  0.00  0.00    +0.000 HD
ENDBRANCH  11  16
ENDBRANCH   1  11
TORSDOF 2
ENDMDL
MODEL 2
REMARK VINA RESULT:      -7.8      1.255      1.712
REMARK  Name = 
REMARK  3 active torsions:
REMARK  status: ('A' for Active; 'I' for Inactive)
REMARK    1  A    between atoms: C_1  and  N_2
REMARK    2  A    between atoms: C_5  and  C_6
REMARK    3  A    between atoms: C_6  and  N_7
REMARK                            x       y       z     vdW  Elec       q    Type
REMARK                         _______ _______ _______ _____ _____    ______ ____
ROOT
ATOM      1  N   UNL     1       3.436   3.256  17.921  0.00  0.00    +0.000 NA
ATOM      2  C   UNL     1       4.134   2.800  19.126  0.00  0.00    +0.000 C 
ATOM      3  C   UNL     1       3.103   2.293  20.121  0.00  0.00    +0.000 C 
ATOM      4  C   UNL     1       2.736   3.177  21.333  0.00  0.00    +0.000 C 
ATOM      5  C   UNL     1       2.434   4.631  20.932  0.00  0.00    +0.000 C 
ATOM      6  C   UNL     1       1.079   4.513  20.214  0.00  0.00    +0.000 C 
ATOM      7  C   UNL     1       0.805   3.004  20.244  0.00  0.00    +0.000 C 
ATOM      8  C   UNL     1       1.327   2.660  21.644  0.00  0.00    +0.000 C 
ATOM      9  C   UNL     1       1.778   2.191  19.354  0.00  0.00    +0.000 C 
ATOM     10  C   UNL     1       2.093   2.652  17.934  0.00  0.00    +0.000 C 
ENDROOT
BRANCH   1  11
ATOM     11  C   UNL     1       3.448   4.704  17.626  0.00  0.00    +0.000 C 
BRANCH  11  16
ATOM     12  C   UNL     1       7.211   4.822  13.582  0.00  0.00    +0.000 C 
ATOM     13  N   UNL     1       7.524   5.250  14.920  0.00  0.00    +0.000 N 
ATOM     14  C   UNL     1       6.601   5.411  15.897  0.00  0.00    +0.000 A 
ATOM     15  N   UNL     1       5.389   4.892  15.999  0.00  0.00    +0.000 NA
ATOM     16  C   UNL     1       4.809   5.239  17.237  0.00  0.00    +0.000 A 
ATOM     17  C   UNL     1       5.604   6.038  18.021  0.00  0.00    +0.000 A 
ATOM     18  S   UNL     1       7.070   6.397  17.243  0.00  0.00    +0.000 S 
ATOM     19  H   UNL     1       8.330   5.862  14.985  0.00  0.00    +0.000 HD
ENDBRANCH  11  16
ENDBRANCH   1  11
TORSDOF 2
ENDMDL
MODEL 3
REMARK VINA RESULT:      -7.5      1.449      2.136
REMARK  Name = 
REMARK  3 active torsions:
REMARK  status: ('A' for Active; 'I' for Inactive)
REMARK    1  A    between atoms: C_1  and  N_2
REMARK    2  A    between atoms: C_5  and  C_6
REMARK    3  A    between atoms: C_6  and  N_7
REMARK                            x       y       z     vdW  Elec       q    Type
REMARK                         _______ _______ _______ _____ _____    ______ ____
ROOT
ATOM      1  N   UNL     1       3.997   3.004  18.035  0.00  0.00    +0.000 NA
ATOM      2  C   UNL     1       3.365   1.798  18.576  0.00  0.00    +0.000 C 
ATOM      3  C   UNL     1       1.950   2.145  19.008  0.00  0.00    +0.000 C 
ATOM      4  C   UNL     1       1.648   2.313  20.514  0.00  0.00    +0.000 C 
ATOM      5  C   UNL     1       2.669   3.219  21.221  0.00  0.00    +0.000 C 
ATOM      6  C   UNL     1       2.321   4.615  20.678  0.00  0.00    +0.000 C 
ATOM      7  C   UNL     1       1.186   4.325  19.689  0.00  0.00    +0.000 C 
ATOM      8  C   UNL     1       0.426   3.237  20.456  0.00  0.00    +0.000 C 
ATOM      9  C   UNL     1       1.655   3.539  18.439  0.00  0.00    +0.000 C 
ATOM     10  C   UNL     1       2.922   3.953  17.697  0.00  0.00    +0.000 C 
ENDROOT
BRANCH   1  11
ATOM     11  C   UNL     1       5.113   3.598  18.802  0.00  0.00    +0.000 C 
BRANCH  11  16
ATOM     12  C   UNL     1       7.132   4.826  13.808  0.00  0.00    +0.000 C 
ATOM     13  N   UNL     1       7.575   5.512  14.993  0.00  0.00    +0.000 N 
ATOM     14  C   UNL     1       6.989   5.378  16.206  0.00  0.00    +0.000 A 
ATOM     15  N   UNL     1       6.224   4.403  16.665  0.00  0.00    +0.000 NA
ATOM     16  C   UNL     1       5.917   4.617  18.025  0.00  0.00    +0.000 A 
ATOM     17  C   UNL     1       6.447   5.774  18.541  0.00  0.00    +0.000 A 
ATOM     18  S   UNL     1       7.314   6.632  17.359  0.00  0.00    +0.000 S 
ATOM     19  H   UNL     1       7.999   6.416  14.818  0.00  0.00    +0.000 HD
ENDBRANCH  11  16
ENDBRANCH   1  11
TORSDOF 2
ENDMDL
MODEL 4
REMARK VINA RESULT:      -7.5      1.609      2.311
REMARK  Name = 
REMARK  3 active torsions:
REMARK  status: ('A' for Active; 'I' for Inactive)
REMARK    1  A    between atoms: C_1  and  N_2
REMARK    2  A    between atoms: C_5  and  C_6
REMARK    3  A    between atoms: C_6  and  N_7
REMARK                            x       y       z     vdW  Elec       q    Type
REMARK                         _______ _______ _______ _____ _____    ______ ____
ROOT
ATOM      1  N   UNL     1       2.725   3.469  17.487  0.00  0.00    +0.000 NA
ATOM      2  C   UNL     1       3.264   2.398  18.328  0.00  0.00    +0.000 C 
ATOM      3  C   UNL     1       2.309   2.164  19.487  0.00  0.00    +0.000 C 
ATOM      4  C   UNL     1       2.685   2.704  20.885  0.00  0.00    +0.000 C 
ATOM      5  C   UNL     1       3.144   4.171  20.847  0.00  0.00    +0.000 C 
ATOM      6  C   UNL     1       1.837   4.930  20.563  0.00  0.00    +0.000 C 
ATOM      7  C   UNL     1       0.809   3.802  20.419  0.00  0.00    +0.000 C 
ATOM      8  C   UNL     1       1.295   2.847  21.516  0.00  0.00    +0.000 C 
ATOM      9  C   UNL     1       1.027   2.938  19.152  0.00  0.00    +0.000 C 
ATOM     10  C   UNL     1       1.292   3.600  17.802  0.00  0.00    +0.000 C 
ENDROOT
BRANCH   1  11
ATOM     11  C   UNL     1       3.459   4.751  17.451  0.00  0.00    +0.000 C 
BRANCH  11  16
ATOM     12  C   UNL     1       5.876   3.514  12.640  0.00  0.00    +0.000 C 
ATOM     13  N   UNL     1       6.638   3.677  13.849  0.00  0.00    +0.000 N 
ATOM     14  C   UNL     1       6.124   4.153  15.007  0.00  0.00    +0.000 A 
ATOM     15  N   UNL     1       4.865   4.197  15.410  0.00  0.00    +0.000 NA
ATOM     16  C   UNL     1       4.789   4.676  16.734  0.00  0.00    +0.000 A 
ATOM     17  C   UNL     1       6.007   5.005  17.279  0.00  0.00    +0.000 A 
ATOM     18  S   UNL     1       7.264   4.752  16.167  0.00  0.00    +0.000 S 
ATOM     19  H   UNL     1       7.620   3.880  13.700  0.00  0.00    +0.000 HD
ENDBRANCH  11  16
ENDBRANCH   1  11
TORSDOF 2
ENDMDL
MODEL 5
REMARK VINA RESULT:      -7.4      1.608      2.357
REMARK  Name = 
REMARK  3 active torsions:
REMARK  status: ('A' for Active; 'I' for Inactive)
REMARK    1  A    between atoms: C_1  and  N_2
REMARK    2  A    between atoms: C_5  and  C_6
REMARK    3  A    between atoms: C_6  and  N_7
REMARK                            x       y       z     vdW  Elec       q    Type
REMARK                         _______ _______ _______ _____ _____    ______ ____
ROOT
ATOM      1  N   UNL     1       3.982   2.837  18.169  0.00  0.00    +0.000 NA
ATOM      2  C   UNL     1       4.419   2.646  19.554  0.00  0.00    +0.000 C 
ATOM      3  C   UNL     1       3.205   2.303  20.403  0.00  0.00    +0.000 C 
ATOM      4  C   UNL     1       2.604   3.391  21.321  0.00  0.00    +0.000 C 
ATOM      5  C   UNL     1       2.396   4.729  20.591  0.00  0.00    +0.000 C 
ATOM      6  C   UNL     1       1.215   4.427  19.653  0.00  0.00    +0.000 C 
ATOM      7  C   UNL     1       0.933   2.944  19.923  0.00  0.00    +0.000 C 
ATOM      8  C   UNL     1       1.158   2.894  21.439  0.00  0.00    +0.000 C 
ATOM      9  C   UNL     1       2.063   2.010  19.422  0.00  0.00    +0.000 C 
ATOM     10  C   UNL     1       2.661   2.199  18.031  0.00  0.00    +0.000 C 
ENDROOT
BRANCH   1  11
ATOM     11  C   UNL     1       4.061   4.200  17.605  0.00  0.00    +0.000 C 
BRANCH  11  16
ATOM     12  C   UNL     1       5.472   3.279  12.343  0.00  0.00    +0.000 C 
ATOM     13  N   UNL     1       6.445   3.662  13.332  0.00  0.00    +0.000 N 
ATOM     14  C   UNL     1       6.130   4.072  14.583  0.00  0.00    +0.000 A 
ATOM     15  N   UNL     1       5.026   3.863  15.280  0.00  0.00    +0.000 NA
ATOM     16  C   UNL     1       5.164   4.379  16.585  0.00  0.00    +0.000 A 
ATOM     17  C   UNL     1       6.373   4.989  16.819  0.00  0.00    +0.000 A 
ATOM     18  S   UNL     1       7.352   4.959  15.433  0.00  0.00    +0.000 S 
ATOM     19  H   UNL     1       7.293   4.064  12.949  0.00  0.00    +0.000 HD
ENDBRANCH  11  16
ENDBRANCH   1  11
TORSDOF 2
ENDMDL
MODEL 6
REMARK VINA RESULT:      -7.3      0.895      2.092
REMARK  Name = 
REMARK  3 active torsions:
REMARK  status: ('A' for Active; 'I' for Inactive)
REMARK    1  A    between atoms: C_1  and  N_2
REMARK    2  A    between atoms: C_5  and  C_6
REMARK    3  A    between atoms: C_6  and  N_7
REMARK                            x       y       z     vdW  Elec       q    Type
REMARK                         _______ _______ _______ _____ _____    ______ ____
ROOT
ATOM      1  N   UNL     1       3.140   5.390  18.617  0.00  0.00    +0.000 NA
ATOM      2  C   UNL     1       1.735   5.544  19.000  0.00  0.00    +0.000 C 
ATOM      3  C   UNL     1       1.488   4.751  20.272  0.00  0.00    +0.000 C 
ATOM      4  C   UNL     1       0.743   3.400  20.177  0.00  0.00    +0.000 C 
ATOM      5  C   UNL     1       1.307   2.493  19.071  0.00  0.00    +0.000 C 
ATOM      6  C   UNL     1       2.665   2.057  19.646  0.00  0.00    +0.000 C 
ATOM      7  C   UNL     1       2.732   2.813  20.978  0.00  0.00    +0.000 C 
ATOM      8  C   UNL     1       1.272   2.697  21.432  0.00  0.00    +0.000 C 
ATOM      9  C   UNL     1       2.870   4.345  20.802  0.00  0.00    +0.000 C 
ATOM     10  C   UNL     1       3.873   4.922  19.806  0.00  0.00    +0.000 C 
ENDROOT
BRANCH   1  11
ATOM     11  C   UNL     1       3.437   4.633  17.383  0.00  0.00    +0.000 C 
BRANCH  11  16
ATOM     12  C   UNL     1       7.848   7.945  17.692  0.00  0.00    +0.000 C 
ATOM     13  N   UNL     1       7.686   6.999  16.620  0.00  0.00    +0.000 N 
ATOM     14  C   UNL     1       6.724   6.047  16.592  0.00  0.00    +0.000 A 
ATOM     15  N   UNL     1       5.574   5.996  17.244  0.00  0.00    +0.000 NA
ATOM     16  C   UNL     1       4.827   4.872  16.835  0.00  0.00    +0.000 A 
ATOM     17  C   UNL     1       5.459   4.092  15.898  0.00  0.00    +0.000 A 
ATOM     18  S   UNL     1       6.993   4.712  15.518  0.00  0.00    +0.000 S 
ATOM     19  H   UNL     1       8.547   6.753  16.145  0.00  0.00    +0.000 HD
ENDBRANCH  11  16
ENDBRANCH   1  11
TORSDOF 2
ENDMDL
MODEL 7
REMARK VINA RESULT:      -7.2      0.845      1.275
REMARK  Name = 
REMARK  3 active torsions:
REMARK  status: ('A' for Active; 'I' for Inactive)
REMARK    1  A    between atoms: C_1  and  N_2
REMARK    2  A    between atoms: C_5  and  C_6
REMARK    3  A    between atoms: C_6  and  N_7
REMARK                            x       y       z     vdW  Elec       q    Type
REMARK                         _______ _______ _______ _____ _____    ______ ____
ROOT
ATOM      1  N   UNL     1       3.865   2.894  17.775  0.00  0.00    +0.000 NA
ATOM      2  C   UNL     1       3.290   1.722  18.439  0.00  0.00    +0.000 C 
ATOM      3  C   UNL     1       1.913   2.089  18.965  0.00  0.00    +0.000 C 
ATOM      4  C   UNL     1       1.736   2.348  20.478  0.00  0.00    +0.000 C 
ATOM      5  C   UNL     1       2.804   3.300  21.042  0.00  0.00    +0.000 C 
ATOM      6  C   UNL     1       2.400   4.659  20.446  0.00  0.00    +0.000 C 
ATOM      7  C   UNL     1       1.190   4.305  19.574  0.00  0.00    +0.000 C 
ATOM      8  C   UNL     1       0.505   3.263  20.466  0.00  0.00    +0.000 C 
ATOM      9  C   UNL     1       1.560   3.445  18.340  0.00  0.00    +0.000 C 
ATOM     10  C   UNL     1       2.758   3.817  17.470  0.00  0.00    +0.000 C 
ENDROOT
BRANCH   1  11
ATOM     11  C   UNL     1       5.035   3.538  18.409  0.00  0.00    +0.000 C 
BRANCH  11  16
ATOM     12  C   UNL     1       8.072   8.128  17.935  0.00  0.00    +0.000 C 
ATOM     13  N   UNL     1       7.652   7.377  16.783  0.00  0.00    +0.000 N 
ATOM     14  C   UNL     1       7.066   6.158  16.848  0.00  0.00    +0.000 A 
ATOM     15  N   UNL     1       6.427   5.588  17.855  0.00  0.00    +0.000 NA
ATOM     16  C   UNL     1       5.879   4.352  17.453  0.00  0.00    +0.000 A 
ATOM     17  C   UNL     1       6.151   4.019  16.149  0.00  0.00    +0.000 A 
ATOM     18  S   UNL     1       7.104   5.208  15.399  0.00  0.00    +0.000 S 
ATOM     19  H   UNL     1       8.209   7.542  15.951  0.00  0.00    +0.000 HD
ENDBRANCH  11  16
ENDBRANCH   1  11
TORSDOF 2
ENDMDL
MODEL 8
REMARK VINA RESULT:      -7.2      0.935      1.623
REMARK  Name = 
REMARK  3 active torsions:
REMARK  status: ('A' for Active; 'I' for Inactive)
REMARK    1  A    between atoms: C_1  and  N_2
REMARK    2  A    between atoms: C_5  and  C_6
REMARK    3  A    between atoms: C_6  and  N_7
REMARK                            x       y       z     vdW  Elec       q    Type
REMARK                         _______ _______ _______ _____ _____    ______ ____
ROOT
ATOM      1  N   UNL     1       4.606   3.498  19.012  0.00  0.00    +0.000 NA
ATOM      2  C   UNL     1       3.955   4.666  19.611  0.00  0.00    +0.000 C 
ATOM      3  C   UNL     1       2.781   4.190  20.450  0.00  0.00    +0.000 C 
ATOM      4  C   UNL     1       1.349   4.363  19.897  0.00  0.00    +0.000 C 
ATOM      5  C   UNL     1       1.214   3.871  18.446  0.00  0.00    +0.000 C 
ATOM      6  C   UNL     1       1.307   2.343  18.594  0.00  0.00    +0.000 C 
ATOM      7  C   UNL     1       1.539   2.156  20.098  0.00  0.00    +0.000 C 
ATOM      8  C   UNL     1       0.617   3.248  20.654  0.00  0.00    +0.000 C 
ATOM      9  C   UNL     1       2.924   2.667  20.568  0.00  0.00    +0.000 C 
ATOM     10  C   UNL     1       4.184   2.315  19.782  0.00  0.00    +0.000 C 
ENDROOT
BRANCH   1  11
ATOM     11  C   UNL     1       4.511   3.335  17.546  0.00  0.00    +0.000 C 
BRANCH  11  16
ATOM     12  C   UNL     1       7.881   7.706  17.789  0.00  0.00    +0.000 C 
ATOM     13  N   UNL     1       7.588   7.045  16.545  0.00  0.00    +0.000 N 
ATOM     14  C   UNL     1       6.919   5.872  16.453  0.00  0.00    +0.000 A 
ATOM     15  N   UNL     1       6.102   5.301  17.322  0.00  0.00    +0.000 NA
ATOM     16  C   UNL     1       5.539   4.131  16.773  0.00  0.00    +0.000 A 
ATOM     17  C   UNL     1       5.979   3.843  15.504  0.00  0.00    +0.000 A 
ATOM     18  S   UNL     1       7.108   4.993  14.970  0.00  0.00    +0.000 S 
ATOM     19  H   UNL     1       8.271   7.209  15.813  0.00  0.00    +0.000 HD
ENDBRANCH  11  16
ENDBRANCH   1  11
TORSDOF 2
ENDMDL
MODEL 9
REMARK VINA RESULT:      -7.2      1.064      1.065
REMARK  Name = 
REMARK  3 active torsions:
REMARK  status: ('A' for Active; 'I' for Inactive)
REMARK    1  A    between atoms: C_1  and  N_2
REMARK    2  A    between atoms: C_5  and  C_6
REMARK    3  A    between atoms: C_6  and  N_7
REMARK                            x       y       z     vdW  Elec       q    Type
REMARK                         _______ _______ _______ _____ _____    ______ ____
ROOT
ATOM      1  N   UNL     1       2.592   3.158  17.539  0.00  0.00    +0.000 NA
ATOM      2  C   UNL     1       3.351   2.305  18.456  0.00  0.00    +0.000 C 
ATOM      3  C   UNL     1       2.504   2.045  19.691  0.00  0.00    +0.000 C 
ATOM      4  C   UNL     1       2.834   2.803  20.996  0.00  0.00    +0.000 C 
ATOM      5  C   UNL     1       3.017   4.313  20.771  0.00  0.00    +0.000 C 
ATOM      6  C   UNL     1       1.583   4.793  20.489  0.00  0.00    +0.000 C 
ATOM      7  C   UNL     1       0.771   3.493  20.532  0.00  0.00    +0.000 C 
ATOM      8  C   UNL     1       1.468   2.773  21.693  0.00  0.00    +0.000 C 
ATOM      9  C   UNL     1       1.090   2.538  19.354  0.00  0.00    +0.000 C 
ATOM     10  C   UNL     1       1.174   3.072  17.927  0.00  0.00    +0.000 C 
ENDROOT
BRANCH   1  11
ATOM     11  C   UNL     1       3.080   4.536  17.320  0.00  0.00    +0.000 C 
BRANCH  11  16
ATOM     12  C   UNL     1       8.042   5.819  19.382  0.00  0.00    +0.000 C 
ATOM     13  N   UNL     1       7.831   5.650  17.969  0.00  0.00    +0.000 N 
ATOM     14  C   UNL     1       6.689   5.163  17.429  0.00  0.00    +0.000 A 
ATOM     15  N   UNL     1       5.473   5.111  17.946  0.00  0.00    +0.000 NA
ATOM     16  C   UNL     1       4.555   4.621  16.994  0.00  0.00    +0.000 A 
ATOM     17  C   UNL     1       5.124   4.292  15.788  0.00  0.00    +0.000 A 
ATOM     18  S   UNL     1       6.800   4.559  15.808  0.00  0.00    +0.000 S 
ATOM     19  H   UNL     1       8.674   5.451  17.441  0.00  0.00    +0.000 HD
ENDBRANCH  11  16
ENDBRANCH   1  11
TORSDOF 2
ENDMDL
