MODEL 1
REMARK VINA RESULT:      -8.2      0.000      0.000
REMARK  Name = 
REMARK  6 active torsions:
REMARK  status: ('A' for Active; 'I' for Inactive)
REMARK    1  A    between atoms: C_1  and  C_2
REMARK    2  A    between atoms: C_2  and  C_4
REMARK    3  A    between atoms: C_5  and  C_6
REMARK    4  A    between atoms: C_14  and  C_15
REMARK    5  A    between atoms: C_20  and  C_21
REMARK    6  A    between atoms: C_20  and  O_22
REMARK                            x       y       z     vdW  Elec       q    Type
REMARK                         _______ _______ _______ _____ _____    ______ ____
ROOT
ATOM      1  C   UNL     1       3.876   5.271  18.191  0.00  0.00    +0.000 C 
ATOM      2  C   UNL     1       2.896   5.525  19.382  0.00  0.00    +0.000 C 
ATOM      3  C   UNL     1       1.688   4.585  19.498  0.00  0.00    +0.000 C 
ATOM      4  C   UNL     1       1.645   3.492  20.528  0.00  0.00    +0.000 C 
ATOM      5  C   UNL     1       2.280   3.545  21.872  0.00  0.00    +0.000 C 
ATOM      6  N   UNL     1       1.039   2.424  20.088  0.00  0.00    +0.000 NA
ATOM      7  N   UNL     1       0.924   2.542  18.671  0.00  0.00    +0.000 NA
ATOM      8  C   UNL     1       1.482   3.664  18.344  0.00  0.00    +0.000 C 
ATOM      9  C   UNL     1       2.175   3.860  17.043  0.00  0.00    +0.000 C 
ATOM     10  C   UNL     1       3.676   3.938  17.423  0.00  0.00    +0.000 C 
ATOM     11  C   UNL     1       4.126   2.658  18.157  0.00  0.00    +0.000 C 
ENDROOT
BRANCH   2  12
ATOM     12  C   UNL     1       2.349   6.966  19.285  0.00  0.00    +0.000 A 
ATOM     13  C   UNL     1       2.394   7.680  18.066  0.00  0.00    +0.000 A 
ATOM     14  C   UNL     1       1.866   8.965  17.956  0.00  0.00    +0.000 A 
ATOM     15  C   UNL     1       1.273   9.553  19.059  0.00  0.00    +0.000 A 
ATOM     16 BR   UNL     1       0.527  11.286  18.898  0.00  0.00    +0.000 Br
ATOM     17  C   UNL     1       1.216   8.878  20.279  0.00  0.00    +0.000 A 
ATOM     18  C   UNL     1       1.752   7.588  20.391  0.00  0.00    +0.000 A 
ENDBRANCH   2  12
BRANCH   1  20
ATOM     19  C   UNL     1       6.207   6.318  17.760  0.00  0.00    +0.000 C 
ATOM     20  C   UNL     1       5.301   5.521  18.673  0.00  0.00    +0.000 C 
ATOM     21  O   UNL     1       5.702   5.124  19.766  0.00  0.00    +0.000 OA
ENDBRANCH   1  20
BRANCH  10  22
ATOM     22  O   UNL     1       4.405   4.023  16.191  0.00  0.00    +0.000 OA
ATOM     23  H   UNL     1       3.875   4.543  15.559  0.00  0.00    +0.000 HD
ENDBRANCH  10  22
TORSDOF 3
ENDMDL
MODEL 2
REMARK VINA RESULT:      -8.2      0.074      1.032
REMARK  Name = 
REMARK  6 active torsions:
REMARK  status: ('A' for Active; 'I' for Inactive)
REMARK    1  A    between atoms: C_1  and  C_2
REMARK    2  A    between atoms: C_2  and  C_4
REMARK    3  A    between atoms: C_5  and  C_6
REMARK    4  A    between atoms: C_14  and  C_15
REMARK    5  A    between atoms: C_20  and  C_21
REMARK    6  A    between atoms: C_20  and  O_22
REMARK                            x       y       z     vdW  Elec       q    Type
REMARK                         _______ _______ _______ _____ _____    ______ ____
ROOT
ATOM      1  C   UNL     1       3.875   5.292  18.156  0.00  0.00    +0.000 C 
ATOM      2  C   UNL     1       2.886   5.543  19.340  0.00  0.00    +0.000 C 
ATOM      3  C   UNL     1       1.695   4.581  19.462  0.00  0.00    +0.000 C 
ATOM      4  C   UNL     1       1.670   3.501  20.507  0.00  0.00    +0.000 C 
ATOM      5  C   UNL     1       2.297   3.584  21.852  0.00  0.00    +0.000 C 
ATOM      6  N   UNL     1       1.087   2.416  20.078  0.00  0.00    +0.000 NA
ATOM      7  N   UNL     1       0.976   2.513  18.659  0.00  0.00    +0.000 NA
ATOM      8  C   UNL     1       1.513   3.641  18.320  0.00  0.00    +0.000 C 
ATOM      9  C   UNL     1       2.208   3.834  17.020  0.00  0.00    +0.000 C 
ATOM     10  C   UNL     1       3.705   3.946  17.405  0.00  0.00    +0.000 C 
ATOM     11  C   UNL     1       4.177   2.685  18.158  0.00  0.00    +0.000 C 
ENDROOT
BRANCH   2  12
ATOM     12  C   UNL     1       2.310   6.972  19.221  0.00  0.00    +0.000 A 
ATOM     13  C   UNL     1       1.733   7.619  20.336  0.00  0.00    +0.000 A 
ATOM     14  C   UNL     1       1.248   8.922  20.251  0.00  0.00    +0.000 A 
ATOM     15  C   UNL     1       1.344   9.606  19.052  0.00  0.00    +0.000 A 
ATOM     16 BR   UNL     1       0.716  11.389  18.947  0.00  0.00    +0.000 Br
ATOM     17  C   UNL     1       1.906   8.996  17.929  0.00  0.00    +0.000 A 
ATOM     18  C   UNL     1       2.388   7.683  18.014  0.00  0.00    +0.000 A 
ENDBRANCH   2  12
BRANCH   1  20
ATOM     19  C   UNL     1       6.196   6.356  17.709  0.00  0.00    +0.000 C 
ATOM     20  C   UNL     1       5.293   5.577  18.641  0.00  0.00    +0.000 C 
ATOM     21  O   UNL     1       5.690   5.221  19.749  0.00  0.00    +0.000 OA
ENDBRANCH   1  20
BRANCH  10  22
ATOM     22  O   UNL     1       4.438   4.030  16.174  0.00  0.00    +0.000 OA
ATOM     23  H   UNL     1       5.366   4.237  16.386  0.00  0.00    +0.000 HD
ENDBRANCH  10  22
TORSDOF 3
ENDMDL
MODEL 3
REMARK VINA RESULT:      -7.5      2.418      3.948
REMARK  Name = 
REMARK  6 active torsions:
REMARK  status: ('A' for Active; 'I' for Inactive)
REMARK    1  A    between atoms: C_1  and  C_2
REMARK    2  A    between atoms: C_2  and  C_4
REMARK    3  A    between atoms: C_5  and  C_6
REMARK    4  A    between atoms: C_14  and  C_15
REMARK    5  A    between atoms: C_20  and  C_21
REMARK    6  A    between atoms: C_20  and  O_22
REMARK                            x       y       z     vdW  Elec       q    Type
REMARK                         _______ _______ _______ _____ _____    ______ ____
ROOT
ATOM      1  C   UNL     1       2.620   4.358  18.881  0.00  0.00    +0.000 C 
ATOM      2  C   UNL     1       3.184   5.548  18.039  0.00  0.00    +0.000 C 
ATOM      3  C   UNL     1       4.709   5.727  18.027  0.00  0.00    +0.000 C 
ATOM      4  C   UNL     1       5.533   5.326  16.836  0.00  0.00    +0.000 C 
ATOM      5  C   UNL     1       5.084   5.370  15.420  0.00  0.00    +0.000 C 
ATOM      6  N   UNL     1       6.696   4.848  17.181  0.00  0.00    +0.000 NA
ATOM      7  N   UNL     1       6.652   4.559  18.577  0.00  0.00    +0.000 NA
ATOM      8  C   UNL     1       5.460   4.864  18.983  0.00  0.00    +0.000 C 
ATOM      9  C   UNL     1       4.786   4.136  20.090  0.00  0.00    +0.000 C 
ATOM     10  C   UNL     1       3.667   3.329  19.384  0.00  0.00    +0.000 C 
ATOM     11  C   UNL     1       4.257   2.385  18.317  0.00  0.00    +0.000 C 
ENDROOT
BRANCH   2  12
ATOM     12  C   UNL     1       2.571   6.867  18.559  0.00  0.00    +0.000 A 
ATOM     13  C   UNL     1       2.373   7.967  17.695  0.00  0.00    +0.000 A 
ATOM     14  C   UNL     1       1.784   9.147  18.143  0.00  0.00    +0.000 A 
ATOM     15  C   UNL     1       1.371   9.244  19.459  0.00  0.00    +0.000 A 
ATOM     16 BR   UNL     1       0.540  10.836  20.058  0.00  0.00    +0.000 Br
ATOM     17  C   UNL     1       1.555   8.177  20.341  0.00  0.00    +0.000 A 
ATOM     18  C   UNL     1       2.153   6.992  19.892  0.00  0.00    +0.000 A 
ENDBRANCH   2  12
BRANCH   1  20
ATOM     19  C   UNL     1       0.650   2.675  18.846  0.00  0.00    +0.000 C 
ATOM     20  C   UNL     1       1.438   3.750  18.131  0.00  0.00    +0.000 C 
ATOM     21  O   UNL     1       1.111   4.129  17.008  0.00  0.00    +0.000 OA
ENDBRANCH   1  20
BRANCH  10  22
ATOM     22  O   UNL     1       3.044   2.524  20.395  0.00  0.00    +0.000 OA
ATOM     23  H   UNL     1       3.740   2.017  20.852  0.00  0.00    +0.000 HD
ENDBRANCH  10  22
TORSDOF 3
ENDMDL
MODEL 4
REMARK VINA RESULT:      -7.4      2.427      4.068
REMARK  Name = 
REMARK  6 active torsions:
REMARK  status: ('A' for Active; 'I' for Inactive)
REMARK    1  A    between atoms: C_1  and  C_2
REMARK    2  A    between atoms: C_2  and  C_4
REMARK    3  A    between atoms: C_5  and  C_6
REMARK    4  A    between atoms: C_14  and  C_15
REMARK    5  A    between atoms: C_20  and  C_21
REMARK    6  A    between atoms: C_20  and  O_22
REMARK                            x       y       z     vdW  Elec       q    Type
REMARK                         _______ _______ _______ _____ _____    ______ ____
ROOT
ATOM      1  C   UNL     1       2.592   4.370  18.896  0.00  0.00    +0.000 C 
ATOM      2  C   UNL     1       3.125   5.609  18.106  0.00  0.00    +0.000 C 
ATOM      3  C   UNL     1       4.643   5.837  18.119  0.00  0.00    +0.000 C 
ATOM      4  C   UNL     1       5.491   5.509  16.922  0.00  0.00    +0.000 C 
ATOM      5  C   UNL     1       5.054   5.595  15.503  0.00  0.00    +0.000 C 
ATOM      6  N   UNL     1       6.666   5.056  17.260  0.00  0.00    +0.000 NA
ATOM      7  N   UNL     1       6.617   4.710  18.644  0.00  0.00    +0.000 NA
ATOM      8  C   UNL     1       5.413   4.961  19.048  0.00  0.00    +0.000 C 
ATOM      9  C   UNL     1       4.751   4.170  20.119  0.00  0.00    +0.000 C 
ATOM     10  C   UNL     1       3.666   3.356  19.370  0.00  0.00    +0.000 C 
ATOM     11  C   UNL     1       4.296   2.474  18.274  0.00  0.00    +0.000 C 
ENDROOT
BRANCH   2  12
ATOM     12  C   UNL     1       2.465   6.887  18.671  0.00  0.00    +0.000 A 
ATOM     13  C   UNL     1       2.099   6.976  20.032  0.00  0.00    +0.000 A 
ATOM     14  C   UNL     1       1.541   8.138  20.561  0.00  0.00    +0.000 A 
ATOM     15  C   UNL     1       1.351   9.236  19.741  0.00  0.00    +0.000 A 
ATOM     16 BR   UNL     1       0.624  10.825  20.469  0.00  0.00    +0.000 Br
ATOM     17  C   UNL     1       1.699   9.181  18.390  0.00  0.00    +0.000 A 
ATOM     18  C   UNL     1       2.255   8.010  17.857  0.00  0.00    +0.000 A 
ENDBRANCH   2  12
BRANCH   1  20
ATOM     19  C   UNL     1       0.649   2.658  18.792  0.00  0.00    +0.000 C 
ATOM     20  C   UNL     1       1.437   3.755  18.111  0.00  0.00    +0.000 C 
ATOM     21  O   UNL     1       1.130   4.144  16.985  0.00  0.00    +0.000 OA
ENDBRANCH   1  20
BRANCH  10  22
ATOM     22  O   UNL     1       3.060   2.493  20.343  0.00  0.00    +0.000 OA
ATOM     23  H   UNL     1       3.517   2.624  21.193  0.00  0.00    +0.000 HD
ENDBRANCH  10  22
TORSDOF 3
ENDMDL
MODEL 5
REMARK VINA RESULT:      -7.3      2.581      4.172
REMARK  Name = 
REMARK  6 active torsions:
REMARK  status: ('A' for Active; 'I' for Inactive)
REMARK    1  A    between atoms: C_1  and  C_2
REMARK    2  A    between atoms: C_2  and  C_4
REMARK    3  A    between atoms: C_5  and  C_6
REMARK    4  A    between atoms: C_14  and  C_15
REMARK    5  A    between atoms: C_20  and  C_21
REMARK    6  A    between atoms: C_20  and  O_22
REMARK                            x       y       z     vdW  Elec       q    Type
REMARK                         _______ _______ _______ _____ _____    ______ ____
ROOT
ATOM      1  C   UNL     1       3.269   4.763  18.602  0.00  0.00    +0.000 C 
ATOM      2  C   UNL     1       3.427   6.105  17.816  0.00  0.00    +0.000 C 
ATOM      3  C   UNL     1       4.857   6.629  17.621  0.00  0.00    +0.000 C 
ATOM      4  C   UNL     1       5.558   6.510  16.297  0.00  0.00    +0.000 C 
ATOM      5  C   UNL     1       4.900   6.547  14.964  0.00  0.00    +0.000 C 
ATOM      6  N   UNL     1       6.835   6.289  16.434  0.00  0.00    +0.000 NA
ATOM      7  N   UNL     1       7.067   5.902  17.788  0.00  0.00    +0.000 NA
ATOM      8  C   UNL     1       5.914   5.897  18.377  0.00  0.00    +0.000 C 
ATOM      9  C   UNL     1       5.588   4.961  19.485  0.00  0.00    +0.000 C 
ATOM     10  C   UNL     1       4.577   3.969  18.855  0.00  0.00    +0.000 C 
ATOM     11  C   UNL     1       5.189   3.261  17.630  0.00  0.00    +0.000 C 
ENDROOT
BRANCH   2  12
ATOM     12  C   UNL     1       2.629   7.210  18.543  0.00  0.00    +0.000 A 
ATOM     13  C   UNL     1       2.194   8.365  17.856  0.00  0.00    +0.000 A 
ATOM     14  C   UNL     1       1.439   9.348  18.490  0.00  0.00    +0.000 A 
ATOM     15  C   UNL     1       1.094   9.189  19.821  0.00  0.00    +0.000 A 
ATOM     16 BR   UNL     1       0.040  10.510  20.672  0.00  0.00    +0.000 Br
ATOM     17  C   UNL     1       1.510   8.061  20.531  0.00  0.00    +0.000 A 
ATOM     18  C   UNL     1       2.275   7.075  19.894  0.00  0.00    +0.000 A 
ENDBRANCH   2  12
BRANCH   1  20
ATOM     19  C   UNL     1       1.070   3.420  18.876  0.00  0.00    +0.000 C 
ATOM     20  C   UNL     1       2.147   3.954  17.958  0.00  0.00    +0.000 C 
ATOM     21  O   UNL     1       2.091   3.761  16.745  0.00  0.00    +0.000 OA
ENDBRANCH   1  20
BRANCH  10  22
ATOM     22  O   UNL     1       4.305   2.975  19.854  0.00  0.00    +0.000 OA
ATOM     23  H   UNL     1       4.712   3.265  20.691  0.00  0.00    +0.000 HD
ENDBRANCH  10  22
TORSDOF 3
ENDMDL
MODEL 6
REMARK VINA RESULT:      -7.3      2.591      4.280
REMARK  Name = 
REMARK  6 active torsions:
REMARK  status: ('A' for Active; 'I' for Inactive)
REMARK    1  A    between atoms: C_1  and  C_2
REMARK    2  A    between atoms: C_2  and  C_4
REMARK    3  A    between atoms: C_5  and  C_6
REMARK    4  A    between atoms: C_14  and  C_15
REMARK    5  A    between atoms: C_20  and  C_21
REMARK    6  A    between atoms: C_20  and  O_22
REMARK                            x       y       z     vdW  Elec       q    Type
REMARK                         _______ _______ _______ _____ _____    ______ ____
ROOT
ATOM      1  C   UNL     1       3.269   4.739  18.576  0.00  0.00    +0.000 C 
ATOM      2  C   UNL     1       3.405   6.090  17.802  0.00  0.00    +0.000 C 
ATOM      3  C   UNL     1       4.824   6.648  17.629  0.00  0.00    +0.000 C 
ATOM      4  C   UNL     1       5.544   6.555  16.312  0.00  0.00    +0.000 C 
ATOM      5  C   UNL     1       4.901   6.587  14.972  0.00  0.00    +0.000 C 
ATOM      6  N   UNL     1       6.824   6.363  16.464  0.00  0.00    +0.000 NA
ATOM      7  N   UNL     1       7.049   5.972  17.817  0.00  0.00    +0.000 NA
ATOM      8  C   UNL     1       5.889   5.937  18.392  0.00  0.00    +0.000 C 
ATOM      9  C   UNL     1       5.572   4.984  19.489  0.00  0.00    +0.000 C 
ATOM     10  C   UNL     1       4.592   3.974  18.840  0.00  0.00    +0.000 C 
ATOM     11  C   UNL     1       5.235   3.289  17.617  0.00  0.00    +0.000 C 
ENDROOT
BRANCH   2  12
ATOM     12  C   UNL     1       2.573   7.171  18.527  0.00  0.00    +0.000 A 
ATOM     13  C   UNL     1       2.245   7.041  19.895  0.00  0.00    +0.000 A 
ATOM     14  C   UNL     1       1.530   8.028  20.569  0.00  0.00    +0.000 A 
ATOM     15  C   UNL     1       1.141   9.170  19.891  0.00  0.00    +0.000 A 
ATOM     16 BR   UNL     1       0.199  10.525  20.817  0.00  0.00    +0.000 Br
ATOM     17  C   UNL     1       1.445   9.329  18.538  0.00  0.00    +0.000 A 
ATOM     18  C   UNL     1       2.159   8.333  17.859  0.00  0.00    +0.000 A 
ENDBRANCH   2  12
BRANCH   1  20
ATOM     19  C   UNL     1       1.062   3.400  18.804  0.00  0.00    +0.000 C 
ATOM     20  C   UNL     1       2.174   3.909  17.913  0.00  0.00    +0.000 C 
ATOM     21  O   UNL     1       2.167   3.680  16.705  0.00  0.00    +0.000 OA
ENDBRANCH   1  20
BRANCH  10  22
ATOM     22  O   UNL     1       4.331   2.967  19.829  0.00  0.00    +0.000 OA
ATOM     23  H   UNL     1       5.020   2.282  19.754  0.00  0.00    +0.000 HD
ENDBRANCH  10  22
TORSDOF 3
ENDMDL
MODEL 7
REMARK VINA RESULT:      -6.8      3.170      4.719
REMARK  Name = 
REMARK  6 active torsions:
REMARK  status: ('A' for Active; 'I' for Inactive)
REMARK    1  A    between atoms: C_1  and  C_2
REMARK    2  A    between atoms: C_2  and  C_4
REMARK    3  A    between atoms: C_5  and  C_6
REMARK    4  A    between atoms: C_14  and  C_15
REMARK    5  A    between atoms: C_20  and  C_21
REMARK    6  A    between atoms: C_20  and  O_22
REMARK                            x       y       z     vdW  Elec       q    Type
REMARK                         _______ _______ _______ _____ _____    ______ ____
ROOT
ATOM      1  C   UNL     1       5.547   5.248  18.984  0.00  0.00    +0.000 C 
ATOM      2  C   UNL     1       4.764   5.686  17.705  0.00  0.00    +0.000 C 
ATOM      3  C   UNL     1       5.581   6.343  16.584  0.00  0.00    +0.000 C 
ATOM      4  C   UNL     1       5.936   5.589  15.333  0.00  0.00    +0.000 C 
ATOM      5  C   UNL     1       5.109   4.528  14.699  0.00  0.00    +0.000 C 
ATOM      6  N   UNL     1       7.115   5.914  14.880  0.00  0.00    +0.000 NA
ATOM      7  N   UNL     1       7.797   6.622  15.913  0.00  0.00    +0.000 NA
ATOM      8  C   UNL     1       6.995   6.665  16.928  0.00  0.00    +0.000 C 
ATOM      9  C   UNL     1       7.485   6.668  18.332  0.00  0.00    +0.000 C 
ATOM     10  C   UNL     1       7.094   5.268  18.871  0.00  0.00    +0.000 C 
ATOM     11  C   UNL     1       7.727   4.152  18.015  0.00  0.00    +0.000 C 
ENDROOT
BRANCH   2  12
ATOM     12  C   UNL     1       3.657   6.685  18.111  0.00  0.00    +0.000 A 
ATOM     13  C   UNL     1       2.980   6.558  19.344  0.00  0.00    +0.000 A 
ATOM     14  C   UNL     1       2.009   7.476  19.739  0.00  0.00    +0.000 A 
ATOM     15  C   UNL     1       1.708   8.544  18.913  0.00  0.00    +0.000 A 
ATOM     16 BR   UNL     1       0.412   9.809  19.467  0.00  0.00    +0.000 Br
ATOM     17  C   UNL     1       2.355   8.698  17.686  0.00  0.00    +0.000 A 
ATOM     18  C   UNL     1       3.327   7.771  17.287  0.00  0.00    +0.000 A 
ENDBRANCH   2  12
BRANCH   1  20
ATOM     19  C   UNL     1       4.072   3.166  18.527  0.00  0.00    +0.000 C 
ATOM     20  C   UNL     1       4.963   3.929  19.483  0.00  0.00    +0.000 C 
ATOM     21  O   UNL     1       5.218   3.480  20.599  0.00  0.00    +0.000 OA
ENDBRANCH   1  20
BRANCH  10  22
ATOM     22  O   UNL     1       7.636   5.175  20.196  0.00  0.00    +0.000 OA
ATOM     23  H   UNL     1       8.508   4.743  20.139  0.00  0.00    +0.000 HD
ENDBRANCH  10  22
TORSDOF 3
ENDMDL
MODEL 8
REMARK VINA RESULT:      -6.5      3.170      4.613
REMARK  Name = 
REMARK  6 active torsions:
REMARK  status: ('A' for Active; 'I' for Inactive)
REMARK    1  A    between atoms: C_1  and  C_2
REMARK    2  A    between atoms: C_2  and  C_4
REMARK    3  A    between atoms: C_5  and  C_6
REMARK    4  A    between atoms: C_14  and  C_15
REMARK    5  A    between atoms: C_20  and  C_21
REMARK    6  A    between atoms: C_20  and  O_22
REMARK                            x       y       z     vdW  Elec       q    Type
REMARK                         _______ _______ _______ _____ _____    ______ ____
ROOT
ATOM      1  C   UNL     1       5.568   5.290  19.007  0.00  0.00    +0.000 C 
ATOM      2  C   UNL     1       4.773   5.741  17.739  0.00  0.00    +0.000 C 
ATOM      3  C   UNL     1       5.584   6.381  16.604  0.00  0.00    +0.000 C 
ATOM      4  C   UNL     1       5.906   5.619  15.349  0.00  0.00    +0.000 C 
ATOM      5  C   UNL     1       5.051   4.572  14.730  0.00  0.00    +0.000 C 
ATOM      6  N   UNL     1       7.083   5.922  14.878  0.00  0.00    +0.000 NA
ATOM      7  N   UNL     1       7.795   6.620  15.899  0.00  0.00    +0.000 NA
ATOM      8  C   UNL     1       7.009   6.679  16.926  0.00  0.00    +0.000 C 
ATOM      9  C   UNL     1       7.521   6.675  18.322  0.00  0.00    +0.000 C 
ATOM     10  C   UNL     1       7.113   5.283  18.869  0.00  0.00    +0.000 C 
ATOM     11  C   UNL     1       7.712   4.154  18.006  0.00  0.00    +0.000 C 
ENDROOT
BRANCH   2  12
ATOM     12  C   UNL     1       3.690   6.760  18.161  0.00  0.00    +0.000 A 
ATOM     13  C   UNL     1       3.337   7.836  17.316  0.00  0.00    +0.000 A 
ATOM     14  C   UNL     1       2.334   8.737  17.668  0.00  0.00    +0.000 A 
ATOM     15  C   UNL     1       1.659   8.570  18.863  0.00  0.00    +0.000 A 
ATOM     16 BR   UNL     1       0.274   9.776  19.323  0.00  0.00    +0.000 Br
ATOM     17  C   UNL     1       1.985   7.520  19.723  0.00  0.00    +0.000 A 
ATOM     18  C   UNL     1       2.998   6.618  19.372  0.00  0.00    +0.000 A 
ENDBRANCH   2  12
BRANCH   1  20
ATOM     19  C   UNL     1       4.074   3.219  18.564  0.00  0.00    +0.000 C 
ATOM     20  C   UNL     1       4.968   3.983  19.517  0.00  0.00    +0.000 C 
ATOM     21  O   UNL     1       5.213   3.543  20.638  0.00  0.00    +0.000 OA
ENDBRANCH   1  20
BRANCH  10  22
ATOM     22  O   UNL     1       7.674   5.182  20.186  0.00  0.00    +0.000 OA
ATOM     23  H   UNL     1       8.577   5.548  20.162  0.00  0.00    +0.000 HD
ENDBRANCH  10  22
TORSDOF 3
ENDMDL
MODEL 9
REMARK VINA RESULT:      -6.5      5.419      8.043
REMARK  Name = 
REMARK  6 active torsions:
REMARK  status: ('A' for Active; 'I' for Inactive)
REMARK    1  A    between atoms: C_1  and  C_2
REMARK    2  A    between atoms: C_2  and  C_4
REMARK    3  A    between atoms: C_5  and  C_6
REMARK    4  A    between atoms: C_14  and  C_15
REMARK    5  A    between atoms: C_20  and  C_21
REMARK    6  A    between atoms: C_20  and  O_22
REMARK                            x       y       z     vdW  Elec       q    Type
REMARK                         _______ _______ _______ _____ _____    ______ ____
ROOT
ATOM      1  C   UNL     1      -0.650  11.217  18.645  0.00  0.00    +0.000 C 
ATOM      2  C   UNL     1      -0.177  10.462  19.930  0.00  0.00    +0.000 C 
ATOM      3  C   UNL     1       0.478  11.310  21.029  0.00  0.00    +0.000 C 
ATOM      4  C   UNL     1      -0.266  11.668  22.285  0.00  0.00    +0.000 C 
ATOM      5  C   UNL     1      -1.300  10.829  22.946  0.00  0.00    +0.000 C 
ATOM      6  N   UNL     1       0.040  12.860  22.716  0.00  0.00    +0.000 NA
ATOM      7  N   UNL     1       0.720  13.541  21.662  0.00  0.00    +0.000 NA
ATOM      8  C   UNL     1       0.766  12.724  20.659  0.00  0.00    +0.000 C 
ATOM      9  C   UNL     1       0.738  13.194  19.248  0.00  0.00    +0.000 C 
ATOM     10  C   UNL     1      -0.660  12.765  18.735  0.00  0.00    +0.000 C 
ATOM     11  C   UNL     1      -1.778  13.387  19.597  0.00  0.00    +0.000 C 
ENDROOT
BRANCH   2  12
ATOM     12  C   UNL     1       0.840   9.370  19.526  0.00  0.00    +0.000 A 
ATOM     13  C   UNL     1       1.207   8.349  20.430  0.00  0.00    +0.000 A 
ATOM     14  C   UNL     1       2.091   7.336  20.063  0.00  0.00    +0.000 A 
ATOM     15  C   UNL     1       2.613   7.320  18.782  0.00  0.00    +0.000 A 
ATOM     16 BR   UNL     1       3.787   5.925  18.275  0.00  0.00    +0.000 Br
ATOM     17  C   UNL     1       2.274   8.316  17.865  0.00  0.00    +0.000 A 
ATOM     18  C   UNL     1       1.389   9.338  18.236  0.00  0.00    +0.000 A 
ENDBRANCH   2  12
BRANCH   1  20
ATOM     19  C   UNL     1      -1.948   9.889  16.837  0.00  0.00    +0.000 C 
ATOM     20  C   UNL     1      -1.962  10.597  18.174  0.00  0.00    +0.000 C 
ATOM     21  O   UNL     1      -2.986  10.637  18.853  0.00  0.00    +0.000 OA
ENDBRANCH   1  20
BRANCH  10  22
ATOM     22  O   UNL     1      -0.783  13.285  17.404  0.00  0.00    +0.000 OA
ATOM     23  H   UNL     1      -0.391  12.639  16.787  0.00  0.00    +0.000 HD
ENDBRANCH  10  22
TORSDOF 3
ENDMDL
