MODEL 1
REMARK VINA RESULT:      -8.3      0.000      0.000
REMARK  Name = 
REMARK  5 active torsions:
REMARK  status: ('A' for Active; 'I' for Inactive)
REMARK    1  A    between atoms: C_2  and  C_3
REMARK    2  A    between atoms: C_3  and  C_4
REMARK    3  A    between atoms: C_4  and  N_5
REMARK    4  A    between atoms: N_17  and  C_18
REMARK    5  A    between atoms: C_23  and  N_24
REMARK                            x       y       z     vdW  Elec       q    Type
REMARK                         _______ _______ _______ _____ _____    ______ ____
ROOT
ATOM      1  C   UNL     1       8.482   8.111  18.439  0.00  0.00    +0.000 C 
ENDROOT
BRANCH   1   3
ATOM      2  O   UNL     1       8.028  10.382  17.799  0.00  0.00    +0.000 OA
ATOM      3  C   UNL     1       8.638   9.617  18.542  0.00  0.00    +0.000 C 
ATOM      4  N   UNL     1       9.456   9.992  19.599  0.00  0.00    +0.000 N 
ATOM      5  H   UNL     1      10.128   9.295  19.922  0.00  0.00    +0.000 HD
BRANCH   4   6
ATOM      6  C   UNL     1       9.573  11.287  20.178  0.00  0.00    +0.000 A 
ATOM      7  C   UNL     1       9.013  11.545  21.440  0.00  0.00    +0.000 A 
ATOM      8  C   UNL     1       9.181  12.777  22.072  0.00  0.00    +0.000 A 
ATOM      9  C   UNL     1       9.921  13.788  21.474  0.00  0.00    +0.000 A 
ATOM     10  C   UNL     1      10.485  13.569  20.223  0.00  0.00    +0.000 A 
ATOM     11  C   UNL     1      10.308  12.332  19.567  0.00  0.00    +0.000 A 
BRANCH  11  12
ATOM     12  N   UNL     1      10.889  12.196  18.220  0.00  0.00    +0.000 N 
ATOM     13  O   UNL     1      11.854  11.431  18.075  0.00  0.00    +0.000 OA
ATOM     14  O   UNL     1      10.384  12.856  17.301  0.00  0.00    +0.000 OA
ENDBRANCH  11  12
ENDBRANCH   4   6
ENDBRANCH   1   3
BRANCH   1  15
ATOM     15  C   UNL     1       7.440   7.678  17.394  0.00  0.00    +0.000 C 
BRANCH  15  16
ATOM     16  N   UNL     1       7.444   6.214  17.173  0.00  0.00    +0.000 NA
ATOM     17  C   UNL     1       7.166   5.434  18.404  0.00  0.00    +0.000 C 
ATOM     18  C   UNL     1       5.753   5.655  18.969  0.00  0.00    +0.000 C 
ATOM     19  N   UNL     1       4.723   5.328  17.980  0.00  0.00    +0.000 N 
ATOM     20  C   UNL     1       4.025   4.145  18.178  0.00  0.00    +0.000 A 
ATOM     21  C   UNL     1       2.754   3.977  17.628  0.00  0.00    +0.000 A 
ATOM     22  C   UNL     1       1.993   2.854  17.957  0.00  0.00    +0.000 A 
ATOM     23  C   UNL     1       2.520   1.904  18.816  0.00  0.00    +0.000 A 
ATOM     24  C   UNL     1       3.793   2.121  19.304  0.00  0.00    +0.000 A 
ATOM     25  N   UNL     1       4.540   3.208  19.007  0.00  0.00    +0.000 NA
ATOM     26  C   UNL     1       4.936   5.843  16.616  0.00  0.00    +0.000 C 
ATOM     27  C   UNL     1       6.426   5.800  16.171  0.00  0.00    +0.000 C 
ENDBRANCH  15  16
ENDBRANCH   1  15
TORSDOF 5
ENDMDL
MODEL 2
REMARK VINA RESULT:      -8.1      1.988      2.325
REMARK  Name = 
REMARK  5 active torsions:
REMARK  status: ('A' for Active; 'I' for Inactive)
REMARK    1  A    between atoms: C_2  and  C_3
REMARK    2  A    between atoms: C_3  and  C_4
REMARK    3  A    between atoms: C_4  and  N_5
REMARK    4  A    between atoms: N_17  and  C_18
REMARK    5  A    between atoms: C_23  and  N_24
REMARK                            x       y       z     vdW  Elec       q    Type
REMARK                         _______ _______ _______ _____ _____    ______ ____
ROOT
ATOM      1  C   UNL     1       8.023   8.738  17.640  0.00  0.00    +0.000 C 
ENDROOT
BRANCH   1   3
ATOM      2  O   UNL     1       9.214   9.602  19.539  0.00  0.00    +0.000 OA
ATOM      3  C   UNL     1       8.741   9.819  18.427  0.00  0.00    +0.000 C 
ATOM      4  N   UNL     1       8.859  11.003  17.711  0.00  0.00    +0.000 N 
ATOM      5  H   UNL     1       8.176  11.154  16.968  0.00  0.00    +0.000 HD
BRANCH   4   6
ATOM      6  C   UNL     1       9.723  12.098  17.997  0.00  0.00    +0.000 A 
ATOM      7  C   UNL     1      11.096  11.876  18.193  0.00  0.00    +0.000 A 
ATOM      8  C   UNL     1      11.983  12.934  18.391  0.00  0.00    +0.000 A 
ATOM      9  C   UNL     1      11.533  14.248  18.389  0.00  0.00    +0.000 A 
ATOM     10  C   UNL     1      10.180  14.504  18.203  0.00  0.00    +0.000 A 
ATOM     11  C   UNL     1       9.272  13.439  18.018  0.00  0.00    +0.000 A 
BRANCH  11  12
ATOM     12  N   UNL     1       7.846  13.788  17.883  0.00  0.00    +0.000 N 
ATOM     13  O   UNL     1       7.423  14.769  18.510  0.00  0.00    +0.000 OA
ATOM     14  O   UNL     1       7.143  13.079  17.149  0.00  0.00    +0.000 OA
ENDBRANCH  11  12
ENDBRANCH   4   6
ENDBRANCH   1   3
BRANCH   1  15
ATOM     15  C   UNL     1       8.040   7.367  18.337  0.00  0.00    +0.000 C 
BRANCH  15  16
ATOM     16  N   UNL     1       7.595   6.277  17.439  0.00  0.00    +0.000 NA
ATOM     17  C   UNL     1       7.268   5.021  18.159  0.00  0.00    +0.000 C 
ATOM     18  C   UNL     1       6.064   5.148  19.106  0.00  0.00    +0.000 C 
ATOM     19  N   UNL     1       4.863   5.590  18.391  0.00  0.00    +0.000 N 
ATOM     20  C   UNL     1       3.888   4.630  18.164  0.00  0.00    +0.000 A 
ATOM     21  C   UNL     1       2.562   5.009  17.955  0.00  0.00    +0.000 A 
ATOM     22  C   UNL     1       1.560   4.040  17.882  0.00  0.00    +0.000 A 
ATOM     23  C   UNL     1       1.900   2.702  17.998  0.00  0.00    +0.000 A 
ATOM     24  C   UNL     1       3.234   2.396  18.178  0.00  0.00    +0.000 A 
ATOM     25  N   UNL     1       4.216   3.322  18.264  0.00  0.00    +0.000 NA
ATOM     26  C   UNL     1       5.036   6.710  17.450  0.00  0.00    +0.000 C 
ATOM     27  C   UNL     1       6.380   6.651  16.668  0.00  0.00    +0.000 C 
ENDBRANCH  15  16
ENDBRANCH   1  15
TORSDOF 5
ENDMDL
MODEL 3
REMARK VINA RESULT:      -8.1      2.720      9.764
REMARK  Name = 
REMARK  5 active torsions:
REMARK  status: ('A' for Active; 'I' for Inactive)
REMARK    1  A    between atoms: C_2  and  C_3
REMARK    2  A    between atoms: C_3  and  C_4
REMARK    3  A    between atoms: C_4  and  N_5
REMARK    4  A    between atoms: N_17  and  C_18
REMARK    5  A    between atoms: C_23  and  N_24
REMARK                            x       y       z     vdW  Elec       q    Type
REMARK                         _______ _______ _______ _____ _____    ______ ____
ROOT
ATOM      1  C   UNL     1       8.435   9.238  17.782  0.00  0.00    +0.000 C 
ENDROOT
BRANCH   1   3
ATOM      2  O   UNL     1       8.277   7.045  18.749  0.00  0.00    +0.000 OA
ATOM      3  C   UNL     1       7.848   7.846  17.924  0.00  0.00    +0.000 C 
ATOM      4  N   UNL     1       6.754   7.648  17.092  0.00  0.00    +0.000 N 
ATOM      5  H   UNL     1       6.700   8.240  16.263  0.00  0.00    +0.000 HD
BRANCH   4   6
ATOM      6  C   UNL     1       5.785   6.608  17.180  0.00  0.00    +0.000 A 
ATOM      7  C   UNL     1       4.513   6.876  17.709  0.00  0.00    +0.000 A 
ATOM      8  C   UNL     1       3.514   5.902  17.732  0.00  0.00    +0.000 A 
ATOM      9  C   UNL     1       3.746   4.634  17.218  0.00  0.00    +0.000 A 
ATOM     10  C   UNL     1       4.996   4.332  16.690  0.00  0.00    +0.000 A 
ATOM     11  C   UNL     1       6.019   5.305  16.677  0.00  0.00    +0.000 A 
BRANCH  11  12
ATOM     12  N   UNL     1       7.332   4.892  16.152  0.00  0.00    +0.000 N 
ATOM     13  O   UNL     1       8.062   4.203  16.879  0.00  0.00    +0.000 OA
ATOM     14  O   UNL     1       7.641   5.258  15.009  0.00  0.00    +0.000 OA
ENDBRANCH  11  12
ENDBRANCH   4   6
ENDBRANCH   1   3
BRANCH   1  15
ATOM     15  C   UNL     1       8.850   9.862  19.125  0.00  0.00    +0.000 C 
BRANCH  15  16
ATOM     16  N   UNL     1      10.044  10.728  18.995  0.00  0.00    +0.000 NA
ATOM     17  C   UNL     1      10.000  11.613  17.805  0.00  0.00    +0.000 C 
ATOM     18  C   UNL     1       8.870  12.654  17.851  0.00  0.00    +0.000 C 
ATOM     19  N   UNL     1       8.968  13.499  19.045  0.00  0.00    +0.000 N 
ATOM     20  C   UNL     1       9.415  14.798  18.850  0.00  0.00    +0.000 A 
ATOM     21  C   UNL     1       9.094  15.798  19.768  0.00  0.00    +0.000 A 
ATOM     22  C   UNL     1       9.412  17.129  19.492  0.00  0.00    +0.000 A 
ATOM     23  C   UNL     1      10.065  17.440  18.311  0.00  0.00    +0.000 A 
ATOM     24  C   UNL     1      10.376  16.399  17.460  0.00  0.00    +0.000 A 
ATOM     25  N   UNL     1      10.065  15.106  17.704  0.00  0.00    +0.000 NA
ATOM     26  C   UNL     1       9.230  12.807  20.318  0.00  0.00    +0.000 C 
ATOM     27  C   UNL     1      10.220  11.615  20.175  0.00  0.00    +0.000 C 
ENDBRANCH  15  16
ENDBRANCH   1  15
TORSDOF 5
ENDMDL
MODEL 4
REMARK VINA RESULT:      -7.9      2.560      9.867
REMARK  Name = 
REMARK  5 active torsions:
REMARK  status: ('A' for Active; 'I' for Inactive)
REMARK    1  A    between atoms: C_2  and  C_3
REMARK    2  A    between atoms: C_3  and  C_4
REMARK    3  A    between atoms: C_4  and  N_5
REMARK    4  A    between atoms: N_17  and  C_18
REMARK    5  A    between atoms: C_23  and  N_24
REMARK                            x       y       z     vdW  Elec       q    Type
REMARK                         _______ _______ _______ _____ _____    ______ ____
ROOT
ATOM      1  C   UNL     1       8.132   9.341  17.612  0.00  0.00    +0.000 C 
ENDROOT
BRANCH   1   3
ATOM      2  O   UNL     1       8.169   7.168  18.634  0.00  0.00    +0.000 OA
ATOM      3  C   UNL     1       7.659   7.912  17.802  0.00  0.00    +0.000 C 
ATOM      4  N   UNL     1       6.563   7.610  17.005  0.00  0.00    +0.000 N 
ATOM      5  H   UNL     1       6.442   8.175  16.164  0.00  0.00    +0.000 HD
BRANCH   4   6
ATOM      6  C   UNL     1       5.680   6.501  17.143  0.00  0.00    +0.000 A 
ATOM      7  C   UNL     1       4.390   6.692  17.663  0.00  0.00    +0.000 A 
ATOM      8  C   UNL     1       3.472   5.644  17.734  0.00  0.00    +0.000 A 
ATOM      9  C   UNL     1       3.804   4.376  17.278  0.00  0.00    +0.000 A 
ATOM     10  C   UNL     1       5.074   4.149  16.761  0.00  0.00    +0.000 A 
ATOM     11  C   UNL     1       6.017   5.199  16.700  0.00  0.00    +0.000 A 
BRANCH  11  12
ATOM     12  N   UNL     1       7.359   4.868  16.191  0.00  0.00    +0.000 N 
ATOM     13  O   UNL     1       8.109   4.197  16.915  0.00  0.00    +0.000 OA
ATOM     14  O   UNL     1       7.671   5.281  15.065  0.00  0.00    +0.000 OA
ENDBRANCH  11  12
ENDBRANCH   4   6
ENDBRANCH   1   3
BRANCH   1  15
ATOM     15  C   UNL     1       8.983   9.860  18.783  0.00  0.00    +0.000 C 
BRANCH  15  16
ATOM     16  N   UNL     1       9.980  10.865  18.349  0.00  0.00    +0.000 NA
ATOM     17  C   UNL     1       9.370  12.146  17.913  0.00  0.00    +0.000 C 
ATOM     18  C   UNL     1       8.646  12.901  19.039  0.00  0.00    +0.000 C 
ATOM     19  N   UNL     1       9.546  13.182  20.161  0.00  0.00    +0.000 N 
ATOM     20  C   UNL     1       9.973  14.495  20.300  0.00  0.00    +0.000 A 
ATOM     21  C   UNL     1      10.399  14.970  21.540  0.00  0.00    +0.000 A 
ATOM     22  C   UNL     1      10.679  16.327  21.711  0.00  0.00    +0.000 A 
ATOM     23  C   UNL     1      10.548  17.188  20.634  0.00  0.00    +0.000 A 
ATOM     24  C   UNL     1      10.147  16.647  19.430  0.00  0.00    +0.000 A 
ATOM     25  N   UNL     1       9.859  15.339  19.248  0.00  0.00    +0.000 NA
ATOM     26  C   UNL     1      10.406  12.072  20.607  0.00  0.00    +0.000 C 
ATOM     27  C   UNL     1      10.940  11.202  19.433  0.00  0.00    +0.000 C 
ENDBRANCH  15  16
ENDBRANCH   1  15
TORSDOF 5
ENDMDL
MODEL 5
REMARK VINA RESULT:      -7.6      5.693      7.312
REMARK  Name = 
REMARK  5 active torsions:
REMARK  status: ('A' for Active; 'I' for Inactive)
REMARK    1  A    between atoms: C_2  and  C_3
REMARK    2  A    between atoms: C_3  and  C_4
REMARK    3  A    between atoms: C_4  and  N_5
REMARK    4  A    between atoms: N_17  and  C_18
REMARK    5  A    between atoms: C_23  and  N_24
REMARK                            x       y       z     vdW  Elec       q    Type
REMARK                         _______ _______ _______ _____ _____    ______ ____
ROOT
ATOM      1  C   UNL     1       3.889   4.885  20.031  0.00  0.00    +0.000 C 
ENDROOT
BRANCH   1   3
ATOM      2  O   UNL     1       1.609   5.120  19.313  0.00  0.00    +0.000 OA
ATOM      3  C   UNL     1       2.623   5.667  19.736  0.00  0.00    +0.000 C 
ATOM      4  N   UNL     1       2.739   7.007  20.081  0.00  0.00    +0.000 N 
ATOM      5  H   UNL     1       3.685   7.388  20.115  0.00  0.00    +0.000 HD
BRANCH   4   6
ATOM      6  C   UNL     1       1.682   7.949  20.237  0.00  0.00    +0.000 A 
ATOM      7  C   UNL     1       0.903   7.942  21.405  0.00  0.00    +0.000 A 
ATOM      8  C   UNL     1      -0.084   8.902  21.627  0.00  0.00    +0.000 A 
ATOM      9  C   UNL     1      -0.319   9.907  20.699  0.00  0.00    +0.000 A 
ATOM     10  C   UNL     1       0.429   9.942  19.529  0.00  0.00    +0.000 A 
ATOM     11  C   UNL     1       1.420   8.965  19.287  0.00  0.00    +0.000 A 
BRANCH  11  12
ATOM     12  N   UNL     1       2.134   9.036  18.000  0.00  0.00    +0.000 N 
ATOM     13  O   UNL     1       2.480   7.973  17.464  0.00  0.00    +0.000 OA
ATOM     14  O   UNL     1       2.353  10.157  17.519  0.00  0.00    +0.000 OA
ENDBRANCH  11  12
ENDBRANCH   4   6
ENDBRANCH   1   3
BRANCH   1  15
ATOM     15  C   UNL     1       5.103   5.363  19.217  0.00  0.00    +0.000 C 
BRANCH  15  16
ATOM     16  N   UNL     1       5.762   4.255  18.489  0.00  0.00    +0.000 NA
ATOM     17  C   UNL     1       4.983   3.775  17.321  0.00  0.00    +0.000 C 
ATOM     18  C   UNL     1       4.830   4.823  16.207  0.00  0.00    +0.000 C 
ATOM     19  N   UNL     1       6.133   5.288  15.726  0.00  0.00    +0.000 N 
ATOM     20  C   UNL     1       6.537   4.825  14.482  0.00  0.00    +0.000 A 
ATOM     21  C   UNL     1       7.468   5.543  13.731  0.00  0.00    +0.000 A 
ATOM     22  C   UNL     1       7.755   5.159  12.420  0.00  0.00    +0.000 A 
ATOM     23  C   UNL     1       7.122   4.050  11.884  0.00  0.00    +0.000 A 
ATOM     24  C   UNL     1       6.232   3.370  12.691  0.00  0.00    +0.000 A 
ATOM     25  N   UNL     1       5.932   3.735  13.958  0.00  0.00    +0.000 NA
ATOM     26  C   UNL     1       7.134   5.616  16.756  0.00  0.00    +0.000 C 
ATOM     27  C   UNL     1       7.100   4.646  17.973  0.00  0.00    +0.000 C 
ENDBRANCH  15  16
ENDBRANCH   1  15
TORSDOF 5
ENDMDL
MODEL 6
REMARK VINA RESULT:      -7.4      1.562      2.078
REMARK  Name = 
REMARK  5 active torsions:
REMARK  status: ('A' for Active; 'I' for Inactive)
REMARK    1  A    between atoms: C_2  and  C_3
REMARK    2  A    between atoms: C_3  and  C_4
REMARK    3  A    between atoms: C_4  and  N_5
REMARK    4  A    between atoms: N_17  and  C_18
REMARK    5  A    between atoms: C_23  and  N_24
REMARK                            x       y       z     vdW  Elec       q    Type
REMARK                         _______ _______ _______ _____ _____    ______ ____
ROOT
ATOM      1  C   UNL     1       8.476   8.570  18.552  0.00  0.00    +0.000 C 
ENDROOT
BRANCH   1   3
ATOM      2  O   UNL     1       7.889  10.686  17.578  0.00  0.00    +0.000 OA
ATOM      3  C   UNL     1       8.736  10.012  18.158  0.00  0.00    +0.000 C 
ATOM      4  N   UNL     1       9.970  10.466  18.603  0.00  0.00    +0.000 N 
ATOM      5  H   UNL     1      10.680   9.754  18.777  0.00  0.00    +0.000 HD
BRANCH   4   6
ATOM      6  C   UNL     1      10.407  11.818  18.692  0.00  0.00    +0.000 A 
ATOM      7  C   UNL     1      11.224  12.359  17.687  0.00  0.00    +0.000 A 
ATOM      8  C   UNL     1      11.601  13.703  17.700  0.00  0.00    +0.000 A 
ATOM      9  C   UNL     1      11.166  14.552  18.708  0.00  0.00    +0.000 A 
ATOM     10  C   UNL     1      10.360  14.050  19.722  0.00  0.00    +0.000 A 
ATOM     11  C   UNL     1       9.986  12.688  19.727  0.00  0.00    +0.000 A 
BRANCH  11  12
ATOM     12  N   UNL     1       9.177  12.217  20.865  0.00  0.00    +0.000 N 
ATOM     13  O   UNL     1       9.356  11.060  21.271  0.00  0.00    +0.000 OA
ATOM     14  O   UNL     1       8.355  13.004  21.356  0.00  0.00    +0.000 OA
ENDBRANCH  11  12
ENDBRANCH   4   6
ENDBRANCH   1   3
BRANCH   1  15
ATOM     15  C   UNL     1       7.550   7.830  17.572  0.00  0.00    +0.000 C 
BRANCH  15  16
ATOM     16  N   UNL     1       7.756   6.364  17.605  0.00  0.00    +0.000 NA
ATOM     17  C   UNL     1       7.266   5.730  18.854  0.00  0.00    +0.000 C 
ATOM     18  C   UNL     1       5.743   5.828  19.039  0.00  0.00    +0.000 C 
ATOM     19  N   UNL     1       5.025   5.229  17.911  0.00  0.00    +0.000 N 
ATOM     20  C   UNL     1       4.424   4.000  18.140  0.00  0.00    +0.000 A 
ATOM     21  C   UNL     1       3.351   3.582  17.352  0.00  0.00    +0.000 A 
ATOM     22  C   UNL     1       2.651   2.421  17.683  0.00  0.00    +0.000 A 
ATOM     23  C   UNL     1       3.045   1.681  18.785  0.00  0.00    +0.000 A 
ATOM     24  C   UNL     1       4.130   2.137  19.506  0.00  0.00    +0.000 A 
ATOM     25  N   UNL     1       4.813   3.266  19.209  0.00  0.00    +0.000 NA
ATOM     26  C   UNL     1       5.513   5.576  16.564  0.00  0.00    +0.000 C 
ATOM     27  C   UNL     1       7.063   5.678  16.482  0.00  0.00    +0.000 C 
ENDBRANCH  15  16
ENDBRANCH   1  15
TORSDOF 5
ENDMDL
MODEL 7
REMARK VINA RESULT:      -7.4      5.468      7.290
REMARK  Name = 
REMARK  5 active torsions:
REMARK  status: ('A' for Active; 'I' for Inactive)
REMARK    1  A    between atoms: C_2  and  C_3
REMARK    2  A    between atoms: C_3  and  C_4
REMARK    3  A    between atoms: C_4  and  N_5
REMARK    4  A    between atoms: N_17  and  C_18
REMARK    5  A    between atoms: C_23  and  N_24
REMARK                            x       y       z     vdW  Elec       q    Type
REMARK                         _______ _______ _______ _____ _____    ______ ____
ROOT
ATOM      1  C   UNL     1       3.470   4.791  19.305  0.00  0.00    +0.000 C 
ENDROOT
BRANCH   1   3
ATOM      2  O   UNL     1       1.581   5.124  20.750  0.00  0.00    +0.000 OA
ATOM      3  C   UNL     1       2.364   5.612  19.941  0.00  0.00    +0.000 C 
ATOM      4  N   UNL     1       2.416   6.948  19.566  0.00  0.00    +0.000 N 
ATOM      5  H   UNL     1       2.885   7.154  18.684  0.00  0.00    +0.000 HD
BRANCH   4   6
ATOM      6  C   UNL     1       1.755   8.043  20.192  0.00  0.00    +0.000 A 
ATOM      7  C   UNL     1       1.645   8.090  21.591  0.00  0.00    +0.000 A 
ATOM      8  C   UNL     1       1.078   9.187  22.240  0.00  0.00    +0.000 A 
ATOM      9  C   UNL     1       0.614  10.277  21.518  0.00  0.00    +0.000 A 
ATOM     10  C   UNL     1       0.702  10.263  20.131  0.00  0.00    +0.000 A 
ATOM     11  C   UNL     1       1.259   9.151  19.463  0.00  0.00    +0.000 A 
BRANCH  11  12
ATOM     12  N   UNL     1       1.267   9.186  17.990  0.00  0.00    +0.000 N 
ATOM     13  O   UNL     1       2.320   8.894  17.405  0.00  0.00    +0.000 OA
ATOM     14  O   UNL     1       0.220   9.509  17.412  0.00  0.00    +0.000 OA
ENDBRANCH  11  12
ENDBRANCH   4   6
ENDBRANCH   1   3
BRANCH   1  15
ATOM     15  C   UNL     1       4.810   5.541  19.217  0.00  0.00    +0.000 C 
BRANCH  15  16
ATOM     16  N   UNL     1       4.908   6.373  17.996  0.00  0.00    +0.000 NA
ATOM     17  C   UNL     1       6.286   6.454  17.451  0.00  0.00    +0.000 C 
ATOM     18  C   UNL     1       6.832   5.108  16.949  0.00  0.00    +0.000 C 
ATOM     19  N   UNL     1       5.966   4.530  15.917  0.00  0.00    +0.000 N 
ATOM     20  C   UNL     1       6.434   4.585  14.612  0.00  0.00    +0.000 A 
ATOM     21  C   UNL     1       5.971   3.678  13.658  0.00  0.00    +0.000 A 
ATOM     22  C   UNL     1       6.555   3.636  12.392  0.00  0.00    +0.000 A 
ATOM     23  C   UNL     1       7.583   4.514  12.088  0.00  0.00    +0.000 A 
ATOM     24  C   UNL     1       7.975   5.402  13.069  0.00  0.00    +0.000 A 
ATOM     25  N   UNL     1       7.429   5.449  14.306  0.00  0.00    +0.000 NA
ATOM     26  C   UNL     1       4.518   4.554  16.187  0.00  0.00    +0.000 C 
ATOM     27  C   UNL     1       4.049   5.855  16.899  0.00  0.00    +0.000 C 
ENDBRANCH  15  16
ENDBRANCH   1  15
TORSDOF 5
ENDMDL
MODEL 8
REMARK VINA RESULT:      -7.3      6.891     10.063
REMARK  Name = 
REMARK  5 active torsions:
REMARK  status: ('A' for Active; 'I' for Inactive)
REMARK    1  A    between atoms: C_2  and  C_3
REMARK    2  A    between atoms: C_3  and  C_4
REMARK    3  A    between atoms: C_4  and  N_5
REMARK    4  A    between atoms: N_17  and  C_18
REMARK    5  A    between atoms: C_23  and  N_24
REMARK                            x       y       z     vdW  Elec       q    Type
REMARK                         _______ _______ _______ _____ _____    ______ ____
ROOT
ATOM      1  C   UNL     1       2.038   8.646  17.859  0.00  0.00    +0.000 C 
ENDROOT
BRANCH   1   3
ATOM      2  O   UNL     1       2.245   7.323  19.853  0.00  0.00    +0.000 OA
ATOM      3  C   UNL     1       2.376   7.385  18.634  0.00  0.00    +0.000 C 
ATOM      4  N   UNL     1       2.748   6.338  17.802  0.00  0.00    +0.000 N 
ATOM      5  H   UNL     1       3.115   6.594  16.885  0.00  0.00    +0.000 HD
BRANCH   4   6
ATOM      6  C   UNL     1       2.825   4.957  18.141  0.00  0.00    +0.000 A 
ATOM      7  C   UNL     1       1.688   4.142  18.027  0.00  0.00    +0.000 A 
ATOM      8  C   UNL     1       1.749   2.770  18.271  0.00  0.00    +0.000 A 
ATOM      9  C   UNL     1       2.947   2.163  18.624  0.00  0.00    +0.000 A 
ATOM     10  C   UNL     1       4.092   2.941  18.751  0.00  0.00    +0.000 A 
ATOM     11  C   UNL     1       4.037   4.333  18.523  0.00  0.00    +0.000 A 
BRANCH  11  12
ATOM     12  N   UNL     1       5.280   5.098  18.732  0.00  0.00    +0.000 N 
ATOM     13  O   UNL     1       5.587   5.954  17.889  0.00  0.00    +0.000 OA
ATOM     14  O   UNL     1       5.955   4.843  19.739  0.00  0.00    +0.000 OA
ENDBRANCH  11  12
ENDBRANCH   4   6
ENDBRANCH   1   3
BRANCH   1  15
ATOM     15  C   UNL     1       1.846   9.879  18.757  0.00  0.00    +0.000 C 
BRANCH  15  16
ATOM     16  N   UNL     1       0.437  10.332  18.792  0.00  0.00    +0.000 NA
ATOM     17  C   UNL     1      -0.301   9.859  19.990  0.00  0.00    +0.000 C 
ATOM     18  C   UNL     1       0.237  10.430  21.312  0.00  0.00    +0.000 C 
ATOM     19  N   UNL     1       0.215  11.895  21.312  0.00  0.00    +0.000 N 
ATOM     20  C   UNL     1      -0.766  12.501  22.083  0.00  0.00    +0.000 A 
ATOM     21  C   UNL     1      -0.593  13.807  22.543  0.00  0.00    +0.000 A 
ATOM     22  C   UNL     1      -1.506  14.357  23.444  0.00  0.00    +0.000 A 
ATOM     23  C   UNL     1      -2.592  13.602  23.858  0.00  0.00    +0.000 A 
ATOM     24  C   UNL     1      -2.716  12.327  23.343  0.00  0.00    +0.000 A 
ATOM     25  N   UNL     1      -1.834  11.773  22.480  0.00  0.00    +0.000 NA
ATOM     26  C   UNL     1       0.718  12.558  20.096  0.00  0.00    +0.000 C 
ATOM     27  C   UNL     1       0.327  11.814  18.787  0.00  0.00    +0.000 C 
ENDBRANCH  15  16
ENDBRANCH   1  15
TORSDOF 5
ENDMDL
MODEL 9
REMARK VINA RESULT:      -7.2      1.402      1.483
REMARK  Name = 
REMARK  5 active torsions:
REMARK  status: ('A' for Active; 'I' for Inactive)
REMARK    1  A    between atoms: C_2  and  C_3
REMARK    2  A    between atoms: C_3  and  C_4
REMARK    3  A    between atoms: C_4  and  N_5
REMARK    4  A    between atoms: N_17  and  C_18
REMARK    5  A    between atoms: C_23  and  N_24
REMARK                            x       y       z     vdW  Elec       q    Type
REMARK                         _______ _______ _______ _____ _____    ______ ____
ROOT
ATOM      1  C   UNL     1       8.423   9.172  17.837  0.00  0.00    +0.000 C 
ENDROOT
BRANCH   1   3
ATOM      2  O   UNL     1       9.352   9.925  19.920  0.00  0.00    +0.000 OA
ATOM      3  C   UNL     1       8.852  10.227  18.841  0.00  0.00    +0.000 C 
ATOM      4  N   UNL     1       8.690  11.516  18.352  0.00  0.00    +0.000 N 
ATOM      5  H   UNL     1       7.998  11.639  17.612  0.00  0.00    +0.000 HD
BRANCH   4   6
ATOM      6  C   UNL     1       9.263  12.711  18.874  0.00  0.00    +0.000 A 
ATOM      7  C   UNL     1       8.594  13.431  19.876  0.00  0.00    +0.000 A 
ATOM      8  C   UNL     1       9.166  14.558  20.467  0.00  0.00    +0.000 A 
ATOM      9  C   UNL     1      10.427  14.996  20.089  0.00  0.00    +0.000 A 
ATOM     10  C   UNL     1      11.117  14.310  19.096  0.00  0.00    +0.000 A 
ATOM     11  C   UNL     1      10.540  13.178  18.479  0.00  0.00    +0.000 A 
BRANCH  11  12
ATOM     12  N   UNL     1      11.308  12.538  17.398  0.00  0.00    +0.000 N 
ATOM     13  O   UNL     1      11.773  11.407  17.602  0.00  0.00    +0.000 OA
ATOM     14  O   UNL     1      11.453  13.165  16.339  0.00  0.00    +0.000 OA
ENDBRANCH  11  12
ENDBRANCH   4   6
ENDBRANCH   1   3
BRANCH   1  15
ATOM     15  C   UNL     1       8.155   7.799  18.475  0.00  0.00    +0.000 C 
BRANCH  15  16
ATOM     16  N   UNL     1       7.765   6.782  17.473  0.00  0.00    +0.000 NA
ATOM     17  C   UNL     1       7.525   5.441  18.061  0.00  0.00    +0.000 C 
ATOM     18  C   UNL     1       6.328   5.395  19.025  0.00  0.00    +0.000 C 
ATOM     19  N   UNL     1       5.093   5.833  18.367  0.00  0.00    +0.000 N 
ATOM     20  C   UNL     1       4.175   4.843  18.049  0.00  0.00    +0.000 A 
ATOM     21  C   UNL     1       2.825   5.160  17.889  0.00  0.00    +0.000 A 
ATOM     22  C   UNL     1       1.884   4.143  17.723  0.00  0.00    +0.000 A 
ATOM     23  C   UNL     1       2.306   2.824  17.698  0.00  0.00    +0.000 A 
ATOM     24  C   UNL     1       3.658   2.583  17.836  0.00  0.00    +0.000 A 
ATOM     25  N   UNL     1       4.583   3.554  18.011  0.00  0.00    +0.000 NA
ATOM     26  C   UNL     1       5.185   7.052  17.545  0.00  0.00    +0.000 C 
ATOM     27  C   UNL     1       6.520   7.157  16.753  0.00  0.00    +0.000 C 
ENDBRANCH  15  16
ENDBRANCH   1  15
TORSDOF 5
ENDMDL
