MODEL 1
REMARK VINA RESULT:      -9.1      0.000      0.000
REMARK  Name = 
REMARK  8 active torsions:
REMARK  status: ('A' for Active; 'I' for Inactive)
REMARK    1  A    between atoms: C_1  and  C_2
REMARK    2  A    between atoms: C_2  and  O_3
REMARK    3  A    between atoms: O_3  and  C_4
REMARK    4  A    between atoms: C_4  and  C_6
REMARK    5  A    between atoms: N_9  and  C_10
REMARK    6  A    between atoms: C_10  and  C_11
REMARK    7  A    between atoms: N_14  and  C_15
REMARK    8  A    between atoms: C_15  and  C_16
REMARK                            x       y       z     vdW  Elec       q    Type
REMARK                         _______ _______ _______ _____ _____    ______ ____
ROOT
ATOM      1  C   UNL     1       6.049   4.370  14.819  0.00  0.00    +0.000 A 
ATOM      2  N   UNL     1       5.234   3.548  15.500  0.00  0.00    +0.000 NA
ATOM      3  C   UNL     1       5.220   3.656  16.835  0.00  0.00    +0.000 A 
ATOM      4  N   UNL     1       4.387   2.714  17.398  0.00  0.00    +0.000 N 
ATOM      5  C   UNL     1       6.024   4.616  17.520  0.00  0.00    +0.000 A 
ATOM      6  C   UNL     1       6.121   4.869  18.924  0.00  0.00    +0.000 A 
ATOM      7  C   UNL     1       6.977   5.835  19.457  0.00  0.00    +0.000 A 
ATOM      8  C   UNL     1       7.767   6.582  18.608  0.00  0.00    +0.000 A 
ATOM      9  C   UNL     1       7.683   6.361  17.235  0.00  0.00    +0.000 A 
ATOM     10  C   UNL     1       6.831   5.409  16.688  0.00  0.00    +0.000 A 
ATOM     11  N   UNL     1       6.850   5.298  15.361  0.00  0.00    +0.000 NA
ATOM     12  H   UNL     1       3.882   2.180  16.698  0.00  0.00    +0.000 HD
ENDROOT
BRANCH   1  13
ATOM     13  C   UNL     1       6.174   4.129  13.339  0.00  0.00    +0.000 C 
ATOM     14  O   UNL     1       7.165   4.372  12.666  0.00  0.00    +0.000 OA
BRANCH  13  15
ATOM     15  O   UNL     1       4.977   3.696  12.847  0.00  0.00    +0.000 OA
BRANCH  15  17
ATOM     16  C   UNL     1       3.730   3.229  10.865  0.00  0.00    +0.000 C 
ATOM     17  C   UNL     1       5.036   2.991  11.602  0.00  0.00    +0.000 C 
ENDBRANCH  15  17
ENDBRANCH  13  15
ENDBRANCH   1  13
BRANCH   4  18
ATOM     18  C   UNL     1       3.966   2.666  18.772  0.00  0.00    +0.000 C 
BRANCH  18  19
ATOM     19  C   UNL     1       2.453   2.813  18.997  0.00  0.00    +0.000 C 
ATOM     20  C   UNL     1       1.725   3.652  17.945  0.00  0.00    +0.000 C 
ATOM     21  C   UNL     1       2.143   5.126  17.960  0.00  0.00    +0.000 C 
ATOM     22  N   UNL     1       2.125   5.763  19.290  0.00  0.00    +0.000 NA
ATOM     23  C   UNL     1       2.744   4.942  20.342  0.00  0.00    +0.000 C 
ATOM     24  C   UNL     1       2.228   3.499  20.353  0.00  0.00    +0.000 C 
BRANCH  22  25
ATOM     25  C   UNL     1       2.779   7.094  19.189  0.00  0.00    +0.000 C 
BRANCH  25  26
ATOM     26  C   UNL     1       1.826   8.263  19.270  0.00  0.00    +0.000 A 
ATOM     27  C   UNL     1       1.515   9.018  18.131  0.00  0.00    +0.000 A 
ATOM     28  C   UNL     1       0.543  10.019  18.194  0.00  0.00    +0.000 A 
ATOM     29  C   UNL     1      -0.120  10.284  19.393  0.00  0.00    +0.000 A 
ATOM     30  C   UNL     1       0.206   9.561  20.539  0.00  0.00    +0.000 A 
ATOM     31  C   UNL     1       1.175   8.565  20.471  0.00  0.00    +0.000 A 
ATOM     32  F   UNL     1       1.454   7.866  21.582  0.00  0.00    +0.000 F 
ENDBRANCH  25  26
ENDBRANCH  22  25
ENDBRANCH  18  19
ENDBRANCH   4  18
TORSDOF 7
ENDMDL
MODEL 2
REMARK VINA RESULT:      -9.1      0.834      1.211
REMARK  Name = 
REMARK  8 active torsions:
REMARK  status: ('A' for Active; 'I' for Inactive)
REMARK    1  A    between atoms: C_1  and  C_2
REMARK    2  A    between atoms: C_2  and  O_3
REMARK    3  A    between atoms: O_3  and  C_4
REMARK    4  A    between atoms: C_4  and  C_6
REMARK    5  A    between atoms: N_9  and  C_10
REMARK    6  A    between atoms: C_10  and  C_11
REMARK    7  A    between atoms: N_14  and  C_15
REMARK    8  A    between atoms: C_15  and  C_16
REMARK                            x       y       z     vdW  Elec       q    Type
REMARK                         _______ _______ _______ _____ _____    ______ ____
ROOT
ATOM      1  C   UNL     1       5.962   4.309  14.774  0.00  0.00    +0.000 A 
ATOM      2  N   UNL     1       5.172   3.482  15.476  0.00  0.00    +0.000 NA
ATOM      3  C   UNL     1       5.183   3.599  16.811  0.00  0.00    +0.000 A 
ATOM      4  N   UNL     1       4.374   2.650  17.397  0.00  0.00    +0.000 N 
ATOM      5  C   UNL     1       5.987   4.575  17.473  0.00  0.00    +0.000 A 
ATOM      6  C   UNL     1       6.109   4.840  18.873  0.00  0.00    +0.000 A 
ATOM      7  C   UNL     1       6.962   5.821  19.381  0.00  0.00    +0.000 A 
ATOM      8  C   UNL     1       7.725   6.573  18.511  0.00  0.00    +0.000 A 
ATOM      9  C   UNL     1       7.616   6.340  17.142  0.00  0.00    +0.000 A 
ATOM     10  C   UNL     1       6.767   5.373  16.619  0.00  0.00    +0.000 A 
ATOM     11  N   UNL     1       6.761   5.253  15.293  0.00  0.00    +0.000 NA
ATOM     12  H   UNL     1       3.863   2.104  16.711  0.00  0.00    +0.000 HD
ENDROOT
BRANCH   1  13
ATOM     13  C   UNL     1       6.061   4.059  13.293  0.00  0.00    +0.000 C 
ATOM     14  O   UNL     1       7.015   4.354  12.590  0.00  0.00    +0.000 OA
BRANCH  13  15
ATOM     15  O   UNL     1       4.879   3.548  12.839  0.00  0.00    +0.000 OA
BRANCH  15  17
ATOM     16  C   UNL     1       3.742   3.468  10.741  0.00  0.00    +0.000 C 
ATOM     17  C   UNL     1       4.921   2.944  11.541  0.00  0.00    +0.000 C 
ENDBRANCH  15  17
ENDBRANCH  13  15
ENDBRANCH   1  13
BRANCH   4  18
ATOM     18  C   UNL     1       3.982   2.606  18.779  0.00  0.00    +0.000 C 
BRANCH  18  19
ATOM     19  C   UNL     1       2.469   2.696  19.031  0.00  0.00    +0.000 C 
ATOM     20  C   UNL     1       1.698   3.554  18.026  0.00  0.00    +0.000 C 
ATOM     21  C   UNL     1       2.070   5.038  18.097  0.00  0.00    +0.000 C 
ATOM     22  N   UNL     1       2.053   5.618  19.453  0.00  0.00    +0.000 NA
ATOM     23  C   UNL     1       2.713   4.775  20.461  0.00  0.00    +0.000 C 
ATOM     24  C   UNL     1       2.243   3.317  20.418  0.00  0.00    +0.000 C 
BRANCH  22  25
ATOM     25  C   UNL     1       2.663   6.973  19.398  0.00  0.00    +0.000 C 
BRANCH  25  26
ATOM     26  C   UNL     1       1.724   8.093  19.781  0.00  0.00    +0.000 A 
ATOM     27  C   UNL     1       1.201   8.183  21.077  0.00  0.00    +0.000 A 
ATOM     28  C   UNL     1       0.431   9.286  21.452  0.00  0.00    +0.000 A 
ATOM     29  C   UNL     1       0.167  10.305  20.535  0.00  0.00    +0.000 A 
ATOM     30  C   UNL     1       0.655  10.209  19.233  0.00  0.00    +0.000 A 
ATOM     31  C   UNL     1       1.421   9.107  18.865  0.00  0.00    +0.000 A 
ATOM     32  F   UNL     1       1.900   9.050  17.614  0.00  0.00    +0.000 F 
ENDBRANCH  25  26
ENDBRANCH  22  25
ENDBRANCH  18  19
ENDBRANCH   4  18
TORSDOF 7
ENDMDL
MODEL 3
REMARK VINA RESULT:      -8.2      1.125      1.797
REMARK  Name = 
REMARK  8 active torsions:
REMARK  status: ('A' for Active; 'I' for Inactive)
REMARK    1  A    between atoms: C_1  and  C_2
REMARK    2  A    between atoms: C_2  and  O_3
REMARK    3  A    between atoms: O_3  and  C_4
REMARK    4  A    between atoms: C_4  and  C_6
REMARK    5  A    between atoms: N_9  and  C_10
REMARK    6  A    between atoms: C_10  and  C_11
REMARK    7  A    between atoms: N_14  and  C_15
REMARK    8  A    between atoms: C_15  and  C_16
REMARK                            x       y       z     vdW  Elec       q    Type
REMARK                         _______ _______ _______ _____ _____    ______ ____
ROOT
ATOM      1  C   UNL     1       5.768   4.188  14.890  0.00  0.00    +0.000 A 
ATOM      2  N   UNL     1       4.949   3.381  15.584  0.00  0.00    +0.000 NA
ATOM      3  C   UNL     1       4.963   3.485  16.919  0.00  0.00    +0.000 A 
ATOM      4  N   UNL     1       4.122   2.558  17.495  0.00  0.00    +0.000 N 
ATOM      5  C   UNL     1       5.800   4.425  17.592  0.00  0.00    +0.000 A 
ATOM      6  C   UNL     1       5.931   4.671  18.994  0.00  0.00    +0.000 A 
ATOM      7  C   UNL     1       6.816   5.616  19.513  0.00  0.00    +0.000 A 
ATOM      8  C   UNL     1       7.606   6.350  18.651  0.00  0.00    +0.000 A 
ATOM      9  C   UNL     1       7.490   6.135  17.280  0.00  0.00    +0.000 A 
ATOM     10  C   UNL     1       6.608   5.204  16.746  0.00  0.00    +0.000 A 
ATOM     11  N   UNL     1       6.599   5.098  15.419  0.00  0.00    +0.000 NA
ATOM     12  H   UNL     1       3.592   2.037  16.803  0.00  0.00    +0.000 HD
ENDROOT
BRANCH   1  13
ATOM     13  C   UNL     1       5.859   3.950  13.406  0.00  0.00    +0.000 C 
ATOM     14  O   UNL     1       4.931   3.613  12.688  0.00  0.00    +0.000 OA
BRANCH  13  15
ATOM     15  O   UNL     1       7.159   4.067  13.008  0.00  0.00    +0.000 OA
BRANCH  15  17
ATOM     16  C   UNL     1       8.550   5.956  12.561  0.00  0.00    +0.000 C 
ATOM     17  C   UNL     1       7.421   5.086  12.036  0.00  0.00    +0.000 C 
ENDBRANCH  15  17
ENDBRANCH  13  15
ENDBRANCH   1  13
BRANCH   4  18
ATOM     18  C   UNL     1       3.727   2.513  18.877  0.00  0.00    +0.000 C 
BRANCH  18  19
ATOM     19  C   UNL     1       2.225   2.709  19.133  0.00  0.00    +0.000 C 
ATOM     20  C   UNL     1       1.518   3.639  18.144  0.00  0.00    +0.000 C 
ATOM     21  C   UNL     1       1.998   5.091  18.240  0.00  0.00    +0.000 C 
ATOM     22  N   UNL     1       2.024   5.646  19.606  0.00  0.00    +0.000 NA
ATOM     23  C   UNL     1       2.621   4.740  20.598  0.00  0.00    +0.000 C 
ATOM     24  C   UNL     1       2.046   3.321  20.531  0.00  0.00    +0.000 C 
BRANCH  22  25
ATOM     25  C   UNL     1       2.732   6.954  19.574  0.00  0.00    +0.000 C 
BRANCH  25  26
ATOM     26  C   UNL     1       1.817   8.156  19.580  0.00  0.00    +0.000 A 
ATOM     27  C   UNL     1       1.171   8.563  20.755  0.00  0.00    +0.000 A 
ATOM     28  C   UNL     1       0.424   9.742  20.776  0.00  0.00    +0.000 A 
ATOM     29  C   UNL     1       0.305  10.522  19.625  0.00  0.00    +0.000 A 
ATOM     30  C   UNL     1       0.916  10.109  18.442  0.00  0.00    +0.000 A 
ATOM     31  C   UNL     1       1.659   8.932  18.427  0.00  0.00    +0.000 A 
ATOM     32  F   UNL     1       2.258   8.568  17.283  0.00  0.00    +0.000 F 
ENDBRANCH  25  26
ENDBRANCH  22  25
ENDBRANCH  18  19
ENDBRANCH   4  18
TORSDOF 7
ENDMDL
MODEL 4
REMARK VINA RESULT:      -8.0      3.211      5.519
REMARK  Name = 
REMARK  8 active torsions:
REMARK  status: ('A' for Active; 'I' for Inactive)
REMARK    1  A    between atoms: C_1  and  C_2
REMARK    2  A    between atoms: C_2  and  O_3
REMARK    3  A    between atoms: O_3  and  C_4
REMARK    4  A    between atoms: C_4  and  C_6
REMARK    5  A    between atoms: N_9  and  C_10
REMARK    6  A    between atoms: C_10  and  C_11
REMARK    7  A    between atoms: N_14  and  C_15
REMARK    8  A    between atoms: C_15  and  C_16
REMARK                            x       y       z     vdW  Elec       q    Type
REMARK                         _______ _______ _______ _____ _____    ______ ____
ROOT
ATOM      1  C   UNL     1       5.155   5.763  17.252  0.00  0.00    +0.000 A 
ATOM      2  N   UNL     1       4.473   6.919  17.212  0.00  0.00    +0.000 NA
ATOM      3  C   UNL     1       3.429   7.051  18.042  0.00  0.00    +0.000 A 
ATOM      4  N   UNL     1       2.793   8.258  17.846  0.00  0.00    +0.000 N 
ATOM      5  C   UNL     1       3.056   6.017  18.951  0.00  0.00    +0.000 A 
ATOM      6  C   UNL     1       1.989   5.998  19.902  0.00  0.00    +0.000 A 
ATOM      7  C   UNL     1       1.727   4.896  20.717  0.00  0.00    +0.000 A 
ATOM      8  C   UNL     1       2.521   3.772  20.613  0.00  0.00    +0.000 A 
ATOM      9  C   UNL     1       3.573   3.770  19.701  0.00  0.00    +0.000 A 
ATOM     10  C   UNL     1       3.852   4.861  18.887  0.00  0.00    +0.000 A 
ATOM     11  N   UNL     1       4.886   4.726  18.059  0.00  0.00    +0.000 NA
ATOM     12  H   UNL     1       3.282   8.846  17.179  0.00  0.00    +0.000 HD
ENDROOT
BRANCH   1  13
ATOM     13  C   UNL     1       6.220   5.566  16.207  0.00  0.00    +0.000 C 
ATOM     14  O   UNL     1       7.282   6.168  16.159  0.00  0.00    +0.000 OA
BRANCH  13  15
ATOM     15  O   UNL     1       5.771   4.689  15.262  0.00  0.00    +0.000 OA
BRANCH  15  17
ATOM     16  C   UNL     1       5.929   3.655  13.115  0.00  0.00    +0.000 C 
ATOM     17  C   UNL     1       6.689   4.393  14.203  0.00  0.00    +0.000 C 
ENDBRANCH  15  17
ENDBRANCH  13  15
ENDBRANCH   1  13
BRANCH   4  18
ATOM     18  C   UNL     1       1.776   8.827  18.688  0.00  0.00    +0.000 C 
BRANCH  18  19
ATOM     19  C   UNL     1       1.110  10.098  18.138  0.00  0.00    +0.000 C 
ATOM     20  C   UNL     1       1.602  11.405  18.763  0.00  0.00    +0.000 C 
ATOM     21  C   UNL     1       1.239  11.532  20.246  0.00  0.00    +0.000 C 
ATOM     22  N   UNL     1      -0.176  11.259  20.565  0.00  0.00    +0.000 NA
ATOM     23  C   UNL     1      -0.703  10.054  19.909  0.00  0.00    +0.000 C 
ATOM     24  C   UNL     1      -0.400  10.011  18.408  0.00  0.00    +0.000 C 
BRANCH  22  25
ATOM     25  C   UNL     1      -0.323  11.180  22.042  0.00  0.00    +0.000 C 
BRANCH  25  26
ATOM     26  C   UNL     1      -1.235  12.229  22.633  0.00  0.00    +0.000 A 
ATOM     27  C   UNL     1      -2.499  11.886  23.129  0.00  0.00    +0.000 A 
ATOM     28  C   UNL     1      -3.283  12.842  23.780  0.00  0.00    +0.000 A 
ATOM     29  C   UNL     1      -2.818  14.149  23.934  0.00  0.00    +0.000 A 
ATOM     30  C   UNL     1      -1.576  14.508  23.414  0.00  0.00    +0.000 A 
ATOM     31  C   UNL     1      -0.799  13.552  22.767  0.00  0.00    +0.000 A 
ATOM     32  F   UNL     1       0.403  13.915  22.297  0.00  0.00    +0.000 F 
ENDBRANCH  25  26
ENDBRANCH  22  25
ENDBRANCH  18  19
ENDBRANCH   4  18
TORSDOF 7
ENDMDL
MODEL 5
REMARK VINA RESULT:      -7.9      2.932      5.237
REMARK  Name = 
REMARK  8 active torsions:
REMARK  status: ('A' for Active; 'I' for Inactive)
REMARK    1  A    between atoms: C_1  and  C_2
REMARK    2  A    between atoms: C_2  and  O_3
REMARK    3  A    between atoms: O_3  and  C_4
REMARK    4  A    between atoms: C_4  and  C_6
REMARK    5  A    between atoms: N_9  and  C_10
REMARK    6  A    between atoms: C_10  and  C_11
REMARK    7  A    between atoms: N_14  and  C_15
REMARK    8  A    between atoms: C_15  and  C_16
REMARK                            x       y       z     vdW  Elec       q    Type
REMARK                         _______ _______ _______ _____ _____    ______ ____
ROOT
ATOM      1  C   UNL     1       5.423   5.588  17.312  0.00  0.00    +0.000 A 
ATOM      2  N   UNL     1       4.759   6.752  17.227  0.00  0.00    +0.000 NA
ATOM      3  C   UNL     1       3.673   6.903  17.996  0.00  0.00    +0.000 A 
ATOM      4  N   UNL     1       3.065   8.116  17.759  0.00  0.00    +0.000 N 
ATOM      5  C   UNL     1       3.235   5.879  18.889  0.00  0.00    +0.000 A 
ATOM      6  C   UNL     1       2.116   5.879  19.778  0.00  0.00    +0.000 A 
ATOM      7  C   UNL     1       1.794   4.786  20.583  0.00  0.00    +0.000 A 
ATOM      8  C   UNL     1       2.577   3.651  20.530  0.00  0.00    +0.000 A 
ATOM      9  C   UNL     1       3.680   3.630  19.678  0.00  0.00    +0.000 A 
ATOM     10  C   UNL     1       4.018   4.713  18.876  0.00  0.00    +0.000 A 
ATOM     11  N   UNL     1       5.095   4.560  18.108  0.00  0.00    +0.000 NA
ATOM     12  H   UNL     1       3.598   8.694  17.117  0.00  0.00    +0.000 HD
ENDROOT
BRANCH   1  13
ATOM     13  C   UNL     1       6.542   5.371  16.330  0.00  0.00    +0.000 C 
ATOM     14  O   UNL     1       7.470   6.141  16.136  0.00  0.00    +0.000 OA
BRANCH  13  15
ATOM     15  O   UNL     1       6.304   4.232  15.615  0.00  0.00    +0.000 OA
BRANCH  15  17
ATOM     16  C   UNL     1       6.209   3.702  13.289  0.00  0.00    +0.000 C 
ATOM     17  C   UNL     1       5.500   4.393  14.441  0.00  0.00    +0.000 C 
ENDBRANCH  15  17
ENDBRANCH  13  15
ENDBRANCH   1  13
BRANCH   4  18
ATOM     18  C   UNL     1       2.009   8.703  18.538  0.00  0.00    +0.000 C 
BRANCH  18  19
ATOM     19  C   UNL     1       1.258   9.857  17.855  0.00  0.00    +0.000 C 
ATOM     20  C   UNL     1       1.793  11.254  18.177  0.00  0.00    +0.000 C 
ATOM     21  C   UNL     1       1.603  11.644  19.647  0.00  0.00    +0.000 C 
ATOM     22  N   UNL     1       0.242  11.433  20.174  0.00  0.00    +0.000 NA
ATOM     23  C   UNL     1      -0.334  10.130  19.809  0.00  0.00    +0.000 C 
ATOM     24  C   UNL     1      -0.209   9.821  18.313  0.00  0.00    +0.000 C 
BRANCH  22  25
ATOM     25  C   UNL     1       0.269  11.617  21.649  0.00  0.00    +0.000 C 
BRANCH  25  26
ATOM     26  C   UNL     1      -0.959  12.289  22.215  0.00  0.00    +0.000 A 
ATOM     27  C   UNL     1      -1.301  13.596  21.842  0.00  0.00    +0.000 A 
ATOM     28  C   UNL     1      -2.501  14.162  22.279  0.00  0.00    +0.000 A 
ATOM     29  C   UNL     1      -3.366  13.435  23.099  0.00  0.00    +0.000 A 
ATOM     30  C   UNL     1      -3.019  12.147  23.503  0.00  0.00    +0.000 A 
ATOM     31  C   UNL     1      -1.822  11.588  23.065  0.00  0.00    +0.000 A 
ATOM     32  F   UNL     1      -1.522  10.338  23.447  0.00  0.00    +0.000 F 
ENDBRANCH  25  26
ENDBRANCH  22  25
ENDBRANCH  18  19
ENDBRANCH   4  18
TORSDOF 7
ENDMDL
MODEL 6
REMARK VINA RESULT:      -7.8      5.099      9.298
REMARK  Name = 
REMARK  8 active torsions:
REMARK  status: ('A' for Active; 'I' for Inactive)
REMARK    1  A    between atoms: C_1  and  C_2
REMARK    2  A    between atoms: C_2  and  O_3
REMARK    3  A    between atoms: O_3  and  C_4
REMARK    4  A    between atoms: C_4  and  C_6
REMARK    5  A    between atoms: N_9  and  C_10
REMARK    6  A    between atoms: C_10  and  C_11
REMARK    7  A    between atoms: N_14  and  C_15
REMARK    8  A    between atoms: C_15  and  C_16
REMARK                            x       y       z     vdW  Elec       q    Type
REMARK                         _______ _______ _______ _____ _____    ______ ____
ROOT
ATOM      1  C   UNL     1      -3.282  10.178  14.862  0.00  0.00    +0.000 A 
ATOM      2  N   UNL     1      -2.169   9.875  15.548  0.00  0.00    +0.000 NA
ATOM      3  C   UNL     1      -2.099  10.277  16.824  0.00  0.00    +0.000 A 
ATOM      4  N   UNL     1      -0.881   9.950  17.379  0.00  0.00    +0.000 N 
ATOM      5  C   UNL     1      -3.169  10.986  17.448  0.00  0.00    +0.000 A 
ATOM      6  C   UNL     1      -3.263  11.474  18.789  0.00  0.00    +0.000 A 
ATOM      7  C   UNL     1      -4.373  12.178  19.257  0.00  0.00    +0.000 A 
ATOM      8  C   UNL     1      -5.430  12.422  18.404  0.00  0.00    +0.000 A 
ATOM      9  C   UNL     1      -5.367  11.948  17.096  0.00  0.00    +0.000 A 
ATOM     10  C   UNL     1      -4.273  11.239  16.616  0.00  0.00    +0.000 A 
ATOM     11  N   UNL     1      -4.340  10.845  15.346  0.00  0.00    +0.000 NA
ATOM     12  H   UNL     1      -0.308   9.397  16.750  0.00  0.00    +0.000 HD
ENDROOT
BRANCH   1  13
ATOM     13  C   UNL     1      -3.279   9.863  13.390  0.00  0.00    +0.000 C 
ATOM     14  O   UNL     1      -2.323   9.433  12.762  0.00  0.00    +0.000 OA
BRANCH  13  15
ATOM     15  O   UNL     1      -4.476  10.231  12.845  0.00  0.00    +0.000 OA
BRANCH  15  17
ATOM     16  C   UNL     1      -6.263   9.233  11.615  0.00  0.00    +0.000 C 
ATOM     17  C   UNL     1      -4.797   9.628  11.587  0.00  0.00    +0.000 C 
ENDBRANCH  15  17
ENDBRANCH  13  15
ENDBRANCH   1  13
BRANCH   4  18
ATOM     18  C   UNL     1      -0.533  10.036  18.771  0.00  0.00    +0.000 C 
BRANCH  18  19
ATOM     19  C   UNL     1       0.932  10.402  19.056  0.00  0.00    +0.000 C 
ATOM     20  C   UNL     1       1.950   9.770  18.103  0.00  0.00    +0.000 C 
ATOM     21  C   UNL     1       2.025   8.245  18.232  0.00  0.00    +0.000 C 
ATOM     22  N   UNL     1       2.169   7.746  19.613  0.00  0.00    +0.000 NA
ATOM     23  C   UNL     1       1.261   8.395  20.570  0.00  0.00    +0.000 C 
ATOM     24  C   UNL     1       1.287   9.924  20.473  0.00  0.00    +0.000 C 
BRANCH  22  25
ATOM     25  C   UNL     1       1.982   6.270  19.606  0.00  0.00    +0.000 C 
BRANCH  25  26
ATOM     26  C   UNL     1       2.885   5.534  18.646  0.00  0.00    +0.000 A 
ATOM     27  C   UNL     1       4.256   5.820  18.584  0.00  0.00    +0.000 A 
ATOM     28  C   UNL     1       5.100   5.052  17.780  0.00  0.00    +0.000 A 
ATOM     29  C   UNL     1       4.586   3.998  17.023  0.00  0.00    +0.000 A 
ATOM     30  C   UNL     1       3.219   3.726  17.051  0.00  0.00    +0.000 A 
ATOM     31  C   UNL     1       2.382   4.496  17.855  0.00  0.00    +0.000 A 
ATOM     32  F   UNL     1       1.074   4.199  17.885  0.00  0.00    +0.000 F 
ENDBRANCH  25  26
ENDBRANCH  22  25
ENDBRANCH  18  19
ENDBRANCH   4  18
TORSDOF 7
ENDMDL
MODEL 7
REMARK VINA RESULT:      -7.7      4.201      8.098
REMARK  Name = 
REMARK  8 active torsions:
REMARK  status: ('A' for Active; 'I' for Inactive)
REMARK    1  A    between atoms: C_1  and  C_2
REMARK    2  A    between atoms: C_2  and  O_3
REMARK    3  A    between atoms: O_3  and  C_4
REMARK    4  A    between atoms: C_4  and  C_6
REMARK    5  A    between atoms: N_9  and  C_10
REMARK    6  A    between atoms: C_10  and  C_11
REMARK    7  A    between atoms: N_14  and  C_15
REMARK    8  A    between atoms: C_15  and  C_16
REMARK                            x       y       z     vdW  Elec       q    Type
REMARK                         _______ _______ _______ _____ _____    ______ ____
ROOT
ATOM      1  C   UNL     1       0.648   9.268  21.828  0.00  0.00    +0.000 A 
ATOM      2  N   UNL     1       0.895   7.957  21.975  0.00  0.00    +0.000 NA
ATOM      3  C   UNL     1       1.443   7.309  20.938  0.00  0.00    +0.000 A 
ATOM      4  N   UNL     1       1.583   5.966  21.213  0.00  0.00    +0.000 N 
ATOM      5  C   UNL     1       1.773   7.979  19.723  0.00  0.00    +0.000 A 
ATOM      6  C   UNL     1       2.365   7.448  18.535  0.00  0.00    +0.000 A 
ATOM      7  C   UNL     1       2.610   8.227  17.403  0.00  0.00    +0.000 A 
ATOM      8  C   UNL     1       2.272   9.565  17.414  0.00  0.00    +0.000 A 
ATOM      9  C   UNL     1       1.702  10.108  18.563  0.00  0.00    +0.000 A 
ATOM     10  C   UNL     1       1.459   9.349  19.701  0.00  0.00    +0.000 A 
ATOM     11  N   UNL     1       0.908   9.992  20.729  0.00  0.00    +0.000 NA
ATOM     12  H   UNL     1       1.326   5.741  22.169  0.00  0.00    +0.000 HD
ENDROOT
BRANCH   1  13
ATOM     13  C   UNL     1      -0.113   9.945  22.936  0.00  0.00    +0.000 C 
ATOM     14  O   UNL     1       0.095   9.791  24.130  0.00  0.00    +0.000 OA
BRANCH  13  15
ATOM     15  O   UNL     1      -1.137  10.673  22.403  0.00  0.00    +0.000 OA
BRANCH  15  17
ATOM     16  C   UNL     1      -2.693  12.454  22.741  0.00  0.00    +0.000 C 
ATOM     17  C   UNL     1      -1.241  12.026  22.862  0.00  0.00    +0.000 C 
ENDBRANCH  15  17
ENDBRANCH  13  15
ENDBRANCH   1  13
BRANCH   4  18
ATOM     18  C   UNL     1       2.314   5.011  20.427  0.00  0.00    +0.000 C 
BRANCH  18  19
ATOM     19  C   UNL     1       1.504   3.791  19.961  0.00  0.00    +0.000 C 
ATOM     20  C   UNL     1       2.209   2.444  20.136  0.00  0.00    +0.000 C 
ATOM     21  C   UNL     1       3.448   2.298  19.247  0.00  0.00    +0.000 C 
ATOM     22  N   UNL     1       3.236   2.636  17.827  0.00  0.00    +0.000 NA
ATOM     23  C   UNL     1       2.485   3.884  17.626  0.00  0.00    +0.000 C 
ATOM     24  C   UNL     1       1.203   3.949  18.463  0.00  0.00    +0.000 C 
BRANCH  22  25
ATOM     25  C   UNL     1       4.558   2.685  17.148  0.00  0.00    +0.000 C 
BRANCH  25  26
ATOM     26  C   UNL     1       5.104   4.079  16.949  0.00  0.00    +0.000 A 
ATOM     27  C   UNL     1       5.009   4.718  15.705  0.00  0.00    +0.000 A 
ATOM     28  C   UNL     1       5.409   6.049  15.565  0.00  0.00    +0.000 A 
ATOM     29  C   UNL     1       5.916   6.751  16.659  0.00  0.00    +0.000 A 
ATOM     30  C   UNL     1       6.046   6.115  17.892  0.00  0.00    +0.000 A 
ATOM     31  C   UNL     1       5.645   4.788  18.026  0.00  0.00    +0.000 A 
ATOM     32  F   UNL     1       5.757   4.205  19.228  0.00  0.00    +0.000 F 
ENDBRANCH  25  26
ENDBRANCH  22  25
ENDBRANCH  18  19
ENDBRANCH   4  18
TORSDOF 7
ENDMDL
MODEL 8
REMARK VINA RESULT:      -7.6      3.311      6.051
REMARK  Name = 
REMARK  8 active torsions:
REMARK  status: ('A' for Active; 'I' for Inactive)
REMARK    1  A    between atoms: C_1  and  C_2
REMARK    2  A    between atoms: C_2  and  O_3
REMARK    3  A    between atoms: O_3  and  C_4
REMARK    4  A    between atoms: C_4  and  C_6
REMARK    5  A    between atoms: N_9  and  C_10
REMARK    6  A    between atoms: C_10  and  C_11
REMARK    7  A    between atoms: N_14  and  C_15
REMARK    8  A    between atoms: C_15  and  C_16
REMARK                            x       y       z     vdW  Elec       q    Type
REMARK                         _______ _______ _______ _____ _____    ______ ____
ROOT
ATOM      1  C   UNL     1       5.145   5.961  17.361  0.00  0.00    +0.000 A 
ATOM      2  N   UNL     1       4.443   7.104  17.321  0.00  0.00    +0.000 NA
ATOM      3  C   UNL     1       3.360   7.195  18.105  0.00  0.00    +0.000 A 
ATOM      4  N   UNL     1       2.711   8.395  17.913  0.00  0.00    +0.000 N 
ATOM      5  C   UNL     1       2.967   6.129  18.969  0.00  0.00    +0.000 A 
ATOM      6  C   UNL     1       1.858   6.064  19.869  0.00  0.00    +0.000 A 
ATOM      7  C   UNL     1       1.581   4.935  20.641  0.00  0.00    +0.000 A 
ATOM      8  C   UNL     1       2.401   3.829  20.543  0.00  0.00    +0.000 A 
ATOM      9  C   UNL     1       3.494   3.872  19.680  0.00  0.00    +0.000 A 
ATOM     10  C   UNL     1       3.788   4.990  18.910  0.00  0.00    +0.000 A 
ATOM     11  N   UNL     1       4.860   4.897  18.126  0.00  0.00    +0.000 NA
ATOM     12  H   UNL     1       3.217   9.010  17.285  0.00  0.00    +0.000 HD
ENDROOT
BRANCH   1  13
ATOM     13  C   UNL     1       6.260   5.813  16.360  0.00  0.00    +0.000 C 
ATOM     14  O   UNL     1       6.114   5.713  15.152  0.00  0.00    +0.000 OA
BRANCH  13  15
ATOM     15  O   UNL     1       7.449   5.701  17.020  0.00  0.00    +0.000 OA
BRANCH  15  17
ATOM     16  C   UNL     1       8.112   6.209  19.258  0.00  0.00    +0.000 C 
ATOM     17  C   UNL     1       7.779   6.787  17.894  0.00  0.00    +0.000 C 
ENDBRANCH  15  17
ENDBRANCH  13  15
ENDBRANCH   1  13
BRANCH   4  18
ATOM     18  C   UNL     1       1.645   8.921  18.722  0.00  0.00    +0.000 C 
BRANCH  18  19
ATOM     19  C   UNL     1       1.017  10.225  18.205  0.00  0.00    +0.000 C 
ATOM     20  C   UNL     1       1.553  11.501  18.857  0.00  0.00    +0.000 C 
ATOM     21  C   UNL     1       1.203  11.606  20.345  0.00  0.00    +0.000 C 
ATOM     22  N   UNL     1      -0.217  11.370  20.666  0.00  0.00    +0.000 NA
ATOM     23  C   UNL     1      -0.787  10.197  19.987  0.00  0.00    +0.000 C 
ATOM     24  C   UNL     1      -0.494  10.180  18.483  0.00  0.00    +0.000 C 
BRANCH  22  25
ATOM     25  C   UNL     1      -0.359  11.262  22.142  0.00  0.00    +0.000 C 
BRANCH  25  26
ATOM     26  C   UNL     1      -1.319  12.257  22.750  0.00  0.00    +0.000 A 
ATOM     27  C   UNL     1      -2.587  11.856  23.192  0.00  0.00    +0.000 A 
ATOM     28  C   UNL     1      -3.418  12.759  23.859  0.00  0.00    +0.000 A 
ATOM     29  C   UNL     1      -2.998  14.071  24.082  0.00  0.00    +0.000 A 
ATOM     30  C   UNL     1      -1.753  14.490  23.616  0.00  0.00    +0.000 A 
ATOM     31  C   UNL     1      -0.929  13.585  22.952  0.00  0.00    +0.000 A 
ATOM     32  F   UNL     1       0.275  14.004  22.535  0.00  0.00    +0.000 F 
ENDBRANCH  25  26
ENDBRANCH  22  25
ENDBRANCH  18  19
ENDBRANCH   4  18
TORSDOF 7
ENDMDL
MODEL 9
REMARK VINA RESULT:      -7.6      3.601      5.971
REMARK  Name = 
REMARK  8 active torsions:
REMARK  status: ('A' for Active; 'I' for Inactive)
REMARK    1  A    between atoms: C_1  and  C_2
REMARK    2  A    between atoms: C_2  and  O_3
REMARK    3  A    between atoms: O_3  and  C_4
REMARK    4  A    between atoms: C_4  and  C_6
REMARK    5  A    between atoms: N_9  and  C_10
REMARK    6  A    between atoms: C_10  and  C_11
REMARK    7  A    between atoms: N_14  and  C_15
REMARK    8  A    between atoms: C_15  and  C_16
REMARK                            x       y       z     vdW  Elec       q    Type
REMARK                         _______ _______ _______ _____ _____    ______ ____
ROOT
ATOM      1  C   UNL     1       4.244   5.932  17.302  0.00  0.00    +0.000 A 
ATOM      2  N   UNL     1       3.653   7.075  17.684  0.00  0.00    +0.000 NA
ATOM      3  C   UNL     1       2.770   7.010  18.690  0.00  0.00    +0.000 A 
ATOM      4  N   UNL     1       2.204   8.243  18.930  0.00  0.00    +0.000 N 
ATOM      5  C   UNL     1       2.472   5.781  19.351  0.00  0.00    +0.000 A 
ATOM      6  C   UNL     1       1.574   5.538  20.436  0.00  0.00    +0.000 A 
ATOM      7  C   UNL     1       1.365   4.265  20.970  0.00  0.00    +0.000 A 
ATOM      8  C   UNL     1       2.045   3.188  20.439  0.00  0.00    +0.000 A 
ATOM      9  C   UNL     1       2.933   3.400  19.387  0.00  0.00    +0.000 A 
ATOM     10  C   UNL     1       3.158   4.662  18.849  0.00  0.00    +0.000 A 
ATOM     11  N   UNL     1       4.031   4.724  17.846  0.00  0.00    +0.000 NA
ATOM     12  H   UNL     1       2.621   8.974  18.364  0.00  0.00    +0.000 HD
ENDROOT
BRANCH   1  13
ATOM     13  C   UNL     1       5.107   5.992  16.071  0.00  0.00    +0.000 C 
ATOM     14  O   UNL     1       5.164   6.933  15.294  0.00  0.00    +0.000 OA
BRANCH  13  15
ATOM     15  O   UNL     1       5.737   4.793  15.900  0.00  0.00    +0.000 OA
BRANCH  15  17
ATOM     16  C   UNL     1       7.605   4.549  17.368  0.00  0.00    +0.000 C 
ATOM     17  C   UNL     1       7.168   4.832  15.941  0.00  0.00    +0.000 C 
ENDBRANCH  15  17
ENDBRANCH  13  15
ENDBRANCH   1  13
BRANCH   4  18
ATOM     18  C   UNL     1       1.382   8.594  20.056  0.00  0.00    +0.000 C 
BRANCH  18  19
ATOM     19  C   UNL     1       0.133   9.423  19.718  0.00  0.00    +0.000 C 
ATOM     20  C   UNL     1       0.245  10.267  18.446  0.00  0.00    +0.000 C 
ATOM     21  C   UNL     1       1.286  11.385  18.559  0.00  0.00    +0.000 C 
ATOM     22  N   UNL     1       1.175  12.217  19.772  0.00  0.00    +0.000 NA
ATOM     23  C   UNL     1       0.981  11.438  21.003  0.00  0.00    +0.000 C 
ATOM     24  C   UNL     1      -0.135  10.394  20.879  0.00  0.00    +0.000 C 
BRANCH  22  25
ATOM     25  C   UNL     1       2.379  13.085  19.865  0.00  0.00    +0.000 C 
BRANCH  25  26
ATOM     26  C   UNL     1       2.279  14.373  19.084  0.00  0.00    +0.000 A 
ATOM     27  C   UNL     1       1.198  15.246  19.270  0.00  0.00    +0.000 A 
ATOM     28  C   UNL     1       1.177  16.488  18.630  0.00  0.00    +0.000 A 
ATOM     29  C   UNL     1       2.227  16.866  17.792  0.00  0.00    +0.000 A 
ATOM     30  C   UNL     1       3.290  15.992  17.573  0.00  0.00    +0.000 A 
ATOM     31  C   UNL     1       3.305  14.756  18.213  0.00  0.00    +0.000 A 
ATOM     32  F   UNL     1       4.351  13.941  18.006  0.00  0.00    +0.000 F 
ENDBRANCH  25  26
ENDBRANCH  22  25
ENDBRANCH  18  19
ENDBRANCH   4  18
TORSDOF 7
ENDMDL
