MODEL 1
REMARK VINA RESULT:      -6.9      0.000      0.000
REMARK  Name = 
REMARK  12 active torsions:
REMARK  status: ('A' for Active; 'I' for Inactive)
REMARK    1  A    between atoms: C_1  and  C_2
REMARK    2  A    between atoms: C_2  and  C_3
REMARK    3  A    between atoms: C_3  and  O_4
REMARK    4  A    between atoms: O_4  and  C_5
REMARK    5  A    between atoms: C_8  and  C_9
REMARK    6  A    between atoms: C_9  and  N_10
REMARK    7  A    between atoms: C_13  and  C_14
REMARK    8  A    between atoms: C_14  and  O_16
REMARK    9  A    between atoms: O_16  and  C_17
REMARK   10  A    between atoms: C_17  and  C_18
REMARK   11  A    between atoms: C_21  and  O_22
REMARK   12  A    between atoms: O_22  and  C_23
REMARK                            x       y       z     vdW  Elec       q    Type
REMARK                         _______ _______ _______ _____ _____    ______ ____
ROOT
ATOM      1  C   UNL     1       5.903   4.868  16.601  0.00  0.00    +0.000 A 
ATOM      2  C   UNL     1       4.942   3.909  16.986  0.00  0.00    +0.000 A 
ATOM      3  C   UNL     1       3.818   4.233  17.768  0.00  0.00    +0.000 A 
ATOM      4  C   UNL     1       2.843   3.251  18.120  0.00  0.00    +0.000 A 
ATOM      5  N   UNL     1       1.799   3.617  18.902  0.00  0.00    +0.000 NA
ATOM      6  C   UNL     1       1.626   4.874  19.366  0.00  0.00    +0.000 A 
ATOM      7  C   UNL     1       2.527   5.901  19.048  0.00  0.00    +0.000 A 
ATOM      8  C   UNL     1       3.650   5.573  18.215  0.00  0.00    +0.000 A 
ATOM      9  C   UNL     1       4.605   6.532  17.797  0.00  0.00    +0.000 A 
ATOM     10  C   UNL     1       5.704   6.211  16.998  0.00  0.00    +0.000 A 
ENDROOT
BRANCH   7  11
ATOM     11  C   UNL     1       2.225   7.259  19.619  0.00  0.00    +0.000 C 
ATOM     12  O   UNL     1       1.788   7.403  20.748  0.00  0.00    +0.000 OA
BRANCH  11  13
ATOM     13  O   UNL     1       2.434   8.359  18.850  0.00  0.00    +0.000 OA
BRANCH  13  14
ATOM     14  C   UNL     1       1.647   8.759  17.781  0.00  0.00    +0.000 C 
ATOM     15  C   UNL     1       0.654   9.806  18.252  0.00  0.00    +0.000 C 
ENDBRANCH  13  14
ENDBRANCH  11  13
ENDBRANCH   7  11
BRANCH  10  16
ATOM     16  O   UNL     1       6.501   7.259  16.655  0.00  0.00    +0.000 OA
ATOM     17  C   UNL     1       7.534   7.838  17.354  0.00  0.00    +0.000 C 
ENDBRANCH  10  16
BRANCH   1  18
ATOM     18  O   UNL     1       6.991   4.494  15.859  0.00  0.00    +0.000 OA
BRANCH  18  19
ATOM     19  C   UNL     1       7.084   4.675  14.485  0.00  0.00    +0.000 C 
BRANCH  19  21
ATOM     20  C   UNL     1       6.482   3.583  12.295  0.00  0.00    +0.000 C 
ATOM     21  C   UNL     1       6.027   3.893  13.715  0.00  0.00    +0.000 C 
ENDBRANCH  19  21
ENDBRANCH  18  19
ENDBRANCH   1  18
BRANCH   4  22
ATOM     22  C   UNL     1       2.838   1.801  17.650  0.00  0.00    +0.000 C 
BRANCH  22  23
ATOM     23  N   UNL     1       3.784   1.009  18.428  0.00  0.00    +0.000 NA
ATOM     24  H   UNL     1       4.335   1.651  19.040  0.00  0.00    +0.000 HD
ATOM     25  H   UNL     1       4.451   0.554  17.763  0.00  0.00    +0.000 HD
ENDBRANCH  22  23
ENDBRANCH   4  22
TORSDOF 9
ENDMDL
MODEL 2
REMARK VINA RESULT:      -6.8      3.133      4.045
REMARK  Name = 
REMARK  12 active torsions:
REMARK  status: ('A' for Active; 'I' for Inactive)
REMARK    1  A    between atoms: C_1  and  C_2
REMARK    2  A    between atoms: C_2  and  C_3
REMARK    3  A    between atoms: C_3  and  O_4
REMARK    4  A    between atoms: O_4  and  C_5
REMARK    5  A    between atoms: C_8  and  C_9
REMARK    6  A    between atoms: C_9  and  N_10
REMARK    7  A    between atoms: C_13  and  C_14
REMARK    8  A    between atoms: C_14  and  O_16
REMARK    9  A    between atoms: O_16  and  C_17
REMARK   10  A    between atoms: C_17  and  C_18
REMARK   11  A    between atoms: C_21  and  O_22
REMARK   12  A    between atoms: O_22  and  C_23
REMARK                            x       y       z     vdW  Elec       q    Type
REMARK                         _______ _______ _______ _____ _____    ______ ____
ROOT
ATOM      1  C   UNL     1       5.991   3.988  14.356  0.00  0.00    +0.000 A 
ATOM      2  C   UNL     1       4.956   3.717  15.277  0.00  0.00    +0.000 A 
ATOM      3  C   UNL     1       5.025   4.100  16.629  0.00  0.00    +0.000 A 
ATOM      4  C   UNL     1       3.951   3.842  17.534  0.00  0.00    +0.000 A 
ATOM      5  N   UNL     1       4.089   4.206  18.832  0.00  0.00    +0.000 NA
ATOM      6  C   UNL     1       5.195   4.813  19.319  0.00  0.00    +0.000 A 
ATOM      7  C   UNL     1       6.284   5.120  18.489  0.00  0.00    +0.000 A 
ATOM      8  C   UNL     1       6.191   4.764  17.101  0.00  0.00    +0.000 A 
ATOM      9  C   UNL     1       7.209   5.056  16.161  0.00  0.00    +0.000 A 
ATOM     10  C   UNL     1       7.125   4.698  14.814  0.00  0.00    +0.000 A 
ENDROOT
BRANCH   7  11
ATOM     11  C   UNL     1       7.455   5.800  19.144  0.00  0.00    +0.000 C 
ATOM     12  O   UNL     1       7.850   5.481  20.253  0.00  0.00    +0.000 OA
BRANCH  11  13
ATOM     13  O   UNL     1       8.085   6.807  18.487  0.00  0.00    +0.000 OA
BRANCH  13  14
ATOM     14  C   UNL     1       7.465   7.887  17.878  0.00  0.00    +0.000 C 
ATOM     15  C   UNL     1       8.326   9.125  18.052  0.00  0.00    +0.000 C 
ENDBRANCH  13  14
ENDBRANCH  11  13
ENDBRANCH   7  11
BRANCH  10  16
ATOM     16  O   UNL     1       8.174   5.091  14.040  0.00  0.00    +0.000 OA
ATOM     17  C   UNL     1       8.171   5.715  12.816  0.00  0.00    +0.000 C 
ENDBRANCH  10  16
BRANCH   1  18
ATOM     18  O   UNL     1       5.884   3.571  13.056  0.00  0.00    +0.000 OA
BRANCH  18  19
ATOM     19  C   UNL     1       4.939   4.066  12.165  0.00  0.00    +0.000 C 
BRANCH  19  21
ATOM     20  C   UNL     1       3.325   3.548  10.301  0.00  0.00    +0.000 C 
ATOM     21  C   UNL     1       4.276   2.970  11.341  0.00  0.00    +0.000 C 
ENDBRANCH  19  21
ENDBRANCH  18  19
ENDBRANCH   1  18
BRANCH   4  22
ATOM     22  C   UNL     1       2.611   3.220  17.163  0.00  0.00    +0.000 C 
BRANCH  22  23
ATOM     23  N   UNL     1       1.517   4.123  17.505  0.00  0.00    +0.000 NA
ATOM     24  H   UNL     1       0.777   3.579  18.003  0.00  0.00    +0.000 HD
ATOM     25  H   UNL     1       1.103   4.482  16.614  0.00  0.00    +0.000 HD
ENDBRANCH  22  23
ENDBRANCH   4  22
TORSDOF 9
ENDMDL
MODEL 3
REMARK VINA RESULT:      -6.6      1.064      1.384
REMARK  Name = 
REMARK  12 active torsions:
REMARK  status: ('A' for Active; 'I' for Inactive)
REMARK    1  A    between atoms: C_1  and  C_2
REMARK    2  A    between atoms: C_2  and  C_3
REMARK    3  A    between atoms: C_3  and  O_4
REMARK    4  A    between atoms: O_4  and  C_5
REMARK    5  A    between atoms: C_8  and  C_9
REMARK    6  A    between atoms: C_9  and  N_10
REMARK    7  A    between atoms: C_13  and  C_14
REMARK    8  A    between atoms: C_14  and  O_16
REMARK    9  A    between atoms: O_16  and  C_17
REMARK   10  A    between atoms: C_17  and  C_18
REMARK   11  A    between atoms: C_21  and  O_22
REMARK   12  A    between atoms: O_22  and  C_23
REMARK                            x       y       z     vdW  Elec       q    Type
REMARK                         _______ _______ _______ _____ _____    ______ ____
ROOT
ATOM      1  C   UNL     1       5.784   4.982  16.751  0.00  0.00    +0.000 A 
ATOM      2  C   UNL     1       4.766   4.091  17.153  0.00  0.00    +0.000 A 
ATOM      3  C   UNL     1       3.630   4.510  17.870  0.00  0.00    +0.000 A 
ATOM      4  C   UNL     1       2.599   3.594  18.239  0.00  0.00    +0.000 A 
ATOM      5  N   UNL     1       1.545   4.052  18.956  0.00  0.00    +0.000 NA
ATOM      6  C   UNL     1       1.412   5.341  19.340  0.00  0.00    +0.000 A 
ATOM      7  C   UNL     1       2.371   6.306  18.999  0.00  0.00    +0.000 A 
ATOM      8  C   UNL     1       3.508   5.881  18.231  0.00  0.00    +0.000 A 
ATOM      9  C   UNL     1       4.521   6.770  17.797  0.00  0.00    +0.000 A 
ATOM     10  C   UNL     1       5.633   6.354  17.062  0.00  0.00    +0.000 A 
ENDROOT
BRANCH   7  11
ATOM     11  C   UNL     1       2.112   7.708  19.478  0.00  0.00    +0.000 C 
ATOM     12  O   UNL     1       2.066   8.655  18.711  0.00  0.00    +0.000 OA
BRANCH  11  13
ATOM     13  O   UNL     1       1.934   7.930  20.806  0.00  0.00    +0.000 OA
BRANCH  13  14
ATOM     14  C   UNL     1       1.191   8.960  21.361  0.00  0.00    +0.000 C 
ATOM     15  C   UNL     1      -0.224   8.476  21.620  0.00  0.00    +0.000 C 
ENDBRANCH  13  14
ENDBRANCH  11  13
ENDBRANCH   7  11
BRANCH  10  16
ATOM     16  O   UNL     1       6.490   7.344  16.691  0.00  0.00    +0.000 OA
ATOM     17  C   UNL     1       7.560   7.875  17.371  0.00  0.00    +0.000 C 
ENDBRANCH  10  16
BRANCH   1  18
ATOM     18  O   UNL     1       6.881   4.518  16.076  0.00  0.00    +0.000 OA
BRANCH  18  19
ATOM     19  C   UNL     1       7.042   4.630  14.701  0.00  0.00    +0.000 C 
BRANCH  19  21
ATOM     20  C   UNL     1       6.433   3.627  12.470  0.00  0.00    +0.000 C 
ATOM     21  C   UNL     1       6.009   3.828  13.920  0.00  0.00    +0.000 C 
ENDBRANCH  19  21
ENDBRANCH  18  19
ENDBRANCH   1  18
BRANCH   4  22
ATOM     22  C   UNL     1       2.544   2.121  17.853  0.00  0.00    +0.000 C 
BRANCH  22  23
ATOM     23  N   UNL     1       1.602   1.405  18.705  0.00  0.00    +0.000 NA
ATOM     24  H   UNL     1       1.246   0.572  18.184  0.00  0.00    +0.000 HD
ATOM     25  H   UNL     1       0.788   2.036  18.890  0.00  0.00    +0.000 HD
ENDBRANCH  22  23
ENDBRANCH   4  22
TORSDOF 9
ENDMDL
MODEL 4
REMARK VINA RESULT:      -6.6      2.840      6.396
REMARK  Name = 
REMARK  12 active torsions:
REMARK  status: ('A' for Active; 'I' for Inactive)
REMARK    1  A    between atoms: C_1  and  C_2
REMARK    2  A    between atoms: C_2  and  C_3
REMARK    3  A    between atoms: C_3  and  O_4
REMARK    4  A    between atoms: O_4  and  C_5
REMARK    5  A    between atoms: C_8  and  C_9
REMARK    6  A    between atoms: C_9  and  N_10
REMARK    7  A    between atoms: C_13  and  C_14
REMARK    8  A    between atoms: C_14  and  O_16
REMARK    9  A    between atoms: O_16  and  C_17
REMARK   10  A    between atoms: C_17  and  C_18
REMARK   11  A    between atoms: C_21  and  O_22
REMARK   12  A    between atoms: O_22  and  C_23
REMARK                            x       y       z     vdW  Elec       q    Type
REMARK                         _______ _______ _______ _____ _____    ______ ____
ROOT
ATOM      1  C   UNL     1       1.976   3.910  18.487  0.00  0.00    +0.000 A 
ATOM      2  C   UNL     1       2.034   5.319  18.421  0.00  0.00    +0.000 A 
ATOM      3  C   UNL     1       3.091   6.006  17.796  0.00  0.00    +0.000 A 
ATOM      4  C   UNL     1       3.112   7.432  17.716  0.00  0.00    +0.000 A 
ATOM      5  N   UNL     1       4.172   8.037  17.129  0.00  0.00    +0.000 NA
ATOM      6  C   UNL     1       5.217   7.360  16.605  0.00  0.00    +0.000 A 
ATOM      7  C   UNL     1       5.262   5.958  16.625  0.00  0.00    +0.000 A 
ATOM      8  C   UNL     1       4.160   5.260  17.228  0.00  0.00    +0.000 A 
ATOM      9  C   UNL     1       4.076   3.848  17.274  0.00  0.00    +0.000 A 
ATOM     10  C   UNL     1       3.012   3.169  17.872  0.00  0.00    +0.000 A 
ENDROOT
BRANCH   7  11
ATOM     11  C   UNL     1       6.473   5.317  16.007  0.00  0.00    +0.000 C 
ATOM     12  O   UNL     1       6.461   4.875  14.870  0.00  0.00    +0.000 OA
BRANCH  11  13
ATOM     13  O   UNL     1       7.612   5.215  16.739  0.00  0.00    +0.000 OA
BRANCH  13  14
ATOM     14  C   UNL     1       7.710   4.673  18.011  0.00  0.00    +0.000 C 
ATOM     15  C   UNL     1       7.882   5.793  19.022  0.00  0.00    +0.000 C 
ENDBRANCH  13  14
ENDBRANCH  11  13
ENDBRANCH   7  11
BRANCH  10  16
ATOM     16  O   UNL     1       3.068   1.811  17.792  0.00  0.00    +0.000 OA
ATOM     17  C   UNL     1       3.904   0.931  18.438  0.00  0.00    +0.000 C 
ENDBRANCH  10  16
BRANCH   1  18
ATOM     18  O   UNL     1       0.937   3.292  19.129  0.00  0.00    +0.000 OA
BRANCH  18  19
ATOM     19  C   UNL     1       0.676   3.437  20.486  0.00  0.00    +0.000 C 
BRANCH  19  21
ATOM     20  C   UNL     1       2.702   2.449  21.612  0.00  0.00    +0.000 C 
ATOM     21  C   UNL     1       1.930   3.725  21.300  0.00  0.00    +0.000 C 
ENDBRANCH  19  21
ENDBRANCH  18  19
ENDBRANCH   1  18
BRANCH   4  22
ATOM     22  C   UNL     1       2.005   8.361  18.199  0.00  0.00    +0.000 C 
BRANCH  22  23
ATOM     23  N   UNL     1       2.030   9.615  17.455  0.00  0.00    +0.000 NA
ATOM     24  H   UNL     1       1.289   9.584  16.720  0.00  0.00    +0.000 HD
ATOM     25  H   UNL     1       2.955   9.686  16.970  0.00  0.00    +0.000 HD
ENDBRANCH  22  23
ENDBRANCH   4  22
TORSDOF 9
ENDMDL
MODEL 5
REMARK VINA RESULT:      -6.6      2.036      6.280
REMARK  Name = 
REMARK  12 active torsions:
REMARK  status: ('A' for Active; 'I' for Inactive)
REMARK    1  A    between atoms: C_1  and  C_2
REMARK    2  A    between atoms: C_2  and  C_3
REMARK    3  A    between atoms: C_3  and  O_4
REMARK    4  A    between atoms: O_4  and  C_5
REMARK    5  A    between atoms: C_8  and  C_9
REMARK    6  A    between atoms: C_9  and  N_10
REMARK    7  A    between atoms: C_13  and  C_14
REMARK    8  A    between atoms: C_14  and  O_16
REMARK    9  A    between atoms: O_16  and  C_17
REMARK   10  A    between atoms: C_17  and  C_18
REMARK   11  A    between atoms: C_21  and  O_22
REMARK   12  A    between atoms: O_22  and  C_23
REMARK                            x       y       z     vdW  Elec       q    Type
REMARK                         _______ _______ _______ _____ _____    ______ ____
ROOT
ATOM      1  C   UNL     1       1.957   7.220  19.779  0.00  0.00    +0.000 A 
ATOM      2  C   UNL     1       2.041   5.924  20.332  0.00  0.00    +0.000 A 
ATOM      3  C   UNL     1       2.862   4.919  19.789  0.00  0.00    +0.000 A 
ATOM      4  C   UNL     1       2.952   3.624  20.384  0.00  0.00    +0.000 A 
ATOM      5  N   UNL     1       3.736   2.689  19.797  0.00  0.00    +0.000 NA
ATOM      6  C   UNL     1       4.449   2.918  18.672  0.00  0.00    +0.000 A 
ATOM      7  C   UNL     1       4.431   4.169  18.039  0.00  0.00    +0.000 A 
ATOM      8  C   UNL     1       3.623   5.204  18.621  0.00  0.00    +0.000 A 
ATOM      9  C   UNL     1       3.554   6.516  18.093  0.00  0.00    +0.000 A 
ATOM     10  C   UNL     1       2.758   7.518  18.651  0.00  0.00    +0.000 A 
ENDROOT
BRANCH   7  11
ATOM     11  C   UNL     1       5.269   4.305  16.797  0.00  0.00    +0.000 C 
ATOM     12  O   UNL     1       4.820   4.077  15.687  0.00  0.00    +0.000 OA
BRANCH  11  13
ATOM     13  O   UNL     1       6.568   4.681  16.916  0.00  0.00    +0.000 OA
BRANCH  13  14
ATOM     14  C   UNL     1       7.045   5.980  16.834  0.00  0.00    +0.000 C 
ATOM     15  C   UNL     1       7.533   6.424  18.201  0.00  0.00    +0.000 C 
ENDBRANCH  13  14
ENDBRANCH  11  13
ENDBRANCH   7  11
BRANCH  10  16
ATOM     16  O   UNL     1       2.840   8.734  18.043  0.00  0.00    +0.000 OA
ATOM     17  C   UNL     1       1.836   9.604  17.690  0.00  0.00    +0.000 C 
ENDBRANCH  10  16
BRANCH   1  18
ATOM     18  O   UNL     1       1.123   8.154  20.332  0.00  0.00    +0.000 OA
BRANCH  18  19
ATOM     19  C   UNL     1       1.335   8.732  21.578  0.00  0.00    +0.000 C 
BRANCH  19  21
ATOM     20  C   UNL     1      -0.136   9.585  23.437  0.00  0.00    +0.000 C 
ATOM     21  C   UNL     1       0.237   9.714  21.966  0.00  0.00    +0.000 C 
ENDBRANCH  19  21
ENDBRANCH  18  19
ENDBRANCH   1  18
BRANCH   4  22
ATOM     22  C   UNL     1       2.270   3.196  21.677  0.00  0.00    +0.000 C 
BRANCH  22  23
ATOM     23  N   UNL     1       0.918   2.719  21.408  0.00  0.00    +0.000 NA
ATOM     24  H   UNL     1       0.979   1.795  20.924  0.00  0.00    +0.000 HD
ATOM     25  H   UNL     1       0.462   3.392  20.749  0.00  0.00    +0.000 HD
ENDBRANCH  22  23
ENDBRANCH   4  22
TORSDOF 9
ENDMDL
MODEL 6
REMARK VINA RESULT:      -6.5      2.087      6.610
REMARK  Name = 
REMARK  12 active torsions:
REMARK  status: ('A' for Active; 'I' for Inactive)
REMARK    1  A    between atoms: C_1  and  C_2
REMARK    2  A    between atoms: C_2  and  C_3
REMARK    3  A    between atoms: C_3  and  O_4
REMARK    4  A    between atoms: O_4  and  C_5
REMARK    5  A    between atoms: C_8  and  C_9
REMARK    6  A    between atoms: C_9  and  N_10
REMARK    7  A    between atoms: C_13  and  C_14
REMARK    8  A    between atoms: C_14  and  O_16
REMARK    9  A    between atoms: O_16  and  C_17
REMARK   10  A    between atoms: C_17  and  C_18
REMARK   11  A    between atoms: C_21  and  O_22
REMARK   12  A    between atoms: O_22  and  C_23
REMARK                            x       y       z     vdW  Elec       q    Type
REMARK                         _______ _______ _______ _____ _____    ______ ____
ROOT
ATOM      1  C   UNL     1       1.548   7.345  20.325  0.00  0.00    +0.000 A 
ATOM      2  C   UNL     1       1.800   6.000  20.671  0.00  0.00    +0.000 A 
ATOM      3  C   UNL     1       2.626   5.161  19.901  0.00  0.00    +0.000 A 
ATOM      4  C   UNL     1       2.890   3.812  20.289  0.00  0.00    +0.000 A 
ATOM      5  N   UNL     1       3.668   3.043  19.489  0.00  0.00    +0.000 NA
ATOM      6  C   UNL     1       4.218   3.489  18.338  0.00  0.00    +0.000 A 
ATOM      7  C   UNL     1       4.024   4.808  17.899  0.00  0.00    +0.000 A 
ATOM      8  C   UNL     1       3.214   5.672  18.711  0.00  0.00    +0.000 A 
ATOM      9  C   UNL     1       2.978   7.031  18.391  0.00  0.00    +0.000 A 
ATOM     10  C   UNL     1       2.179   7.868  19.172  0.00  0.00    +0.000 A 
ENDROOT
BRANCH   7  11
ATOM     11  C   UNL     1       4.691   5.189  16.607  0.00  0.00    +0.000 C 
ATOM     12  O   UNL     1       4.956   6.348  16.334  0.00  0.00    +0.000 OA
BRANCH  11  13
ATOM     13  O   UNL     1       4.998   4.217  15.710  0.00  0.00    +0.000 OA
BRANCH  13  14
ATOM     14  C   UNL     1       6.225   4.052  15.085  0.00  0.00    +0.000 C 
ATOM     15  C   UNL     1       6.005   3.826  13.600  0.00  0.00    +0.000 C 
ENDBRANCH  13  14
ENDBRANCH  11  13
ENDBRANCH   7  11
BRANCH  10  16
ATOM     16  O   UNL     1       2.090   9.157  18.742  0.00  0.00    +0.000 OA
ATOM     17  C   UNL     1       1.060   9.792  18.091  0.00  0.00    +0.000 C 
ENDBRANCH  10  16
BRANCH   1  18
ATOM     18  O   UNL     1       0.716   8.111  21.097  0.00  0.00    +0.000 OA
BRANCH  18  19
ATOM     19  C   UNL     1       1.167   8.987  22.077  0.00  0.00    +0.000 C 
BRANCH  19  21
ATOM     20  C   UNL     1      -0.609  10.652  22.730  0.00  0.00    +0.000 C 
ATOM     21  C   UNL     1       0.086   9.344  23.089  0.00  0.00    +0.000 C 
ENDBRANCH  19  21
ENDBRANCH  18  19
ENDBRANCH   1  18
BRANCH   4  22
ATOM     22  C   UNL     1       2.406   3.149  21.572  0.00  0.00    +0.000 C 
BRANCH  22  23
ATOM     23  N   UNL     1       1.011   2.744  21.443  0.00  0.00    +0.000 NA
ATOM     24  H   UNL     1       0.794   2.608  20.430  0.00  0.00    +0.000 HD
ATOM     25  H   UNL     1       0.412   3.526  21.794  0.00  0.00    +0.000 HD
ENDBRANCH  22  23
ENDBRANCH   4  22
TORSDOF 9
ENDMDL
MODEL 7
REMARK VINA RESULT:      -6.5      2.645      6.334
REMARK  Name = 
REMARK  12 active torsions:
REMARK  status: ('A' for Active; 'I' for Inactive)
REMARK    1  A    between atoms: C_1  and  C_2
REMARK    2  A    between atoms: C_2  and  C_3
REMARK    3  A    between atoms: C_3  and  O_4
REMARK    4  A    between atoms: O_4  and  C_5
REMARK    5  A    between atoms: C_8  and  C_9
REMARK    6  A    between atoms: C_9  and  N_10
REMARK    7  A    between atoms: C_13  and  C_14
REMARK    8  A    between atoms: C_14  and  O_16
REMARK    9  A    between atoms: O_16  and  C_17
REMARK   10  A    between atoms: C_17  and  C_18
REMARK   11  A    between atoms: C_21  and  O_22
REMARK   12  A    between atoms: O_22  and  C_23
REMARK                            x       y       z     vdW  Elec       q    Type
REMARK                         _______ _______ _______ _____ _____    ______ ____
ROOT
ATOM      1  C   UNL     1       3.326   4.360  20.093  0.00  0.00    +0.000 A 
ATOM      2  C   UNL     1       2.988   5.560  19.431  0.00  0.00    +0.000 A 
ATOM      3  C   UNL     1       3.688   6.028  18.305  0.00  0.00    +0.000 A 
ATOM      4  C   UNL     1       3.308   7.230  17.634  0.00  0.00    +0.000 A 
ATOM      5  N   UNL     1       4.041   7.646  16.573  0.00  0.00    +0.000 NA
ATOM      6  C   UNL     1       5.119   6.977  16.108  0.00  0.00    +0.000 A 
ATOM      7  C   UNL     1       5.544   5.777  16.698  0.00  0.00    +0.000 A 
ATOM      8  C   UNL     1       4.800   5.282  17.823  0.00  0.00    +0.000 A 
ATOM      9  C   UNL     1       5.111   4.066  18.476  0.00  0.00    +0.000 A 
ATOM     10  C   UNL     1       4.396   3.591  19.578  0.00  0.00    +0.000 A 
ENDROOT
BRANCH   7  11
ATOM     11  C   UNL     1       6.753   5.121  16.089  0.00  0.00    +0.000 C 
ATOM     12  O   UNL     1       7.766   4.908  16.733  0.00  0.00    +0.000 OA
BRANCH  11  13
ATOM     13  O   UNL     1       6.720   4.765  14.779  0.00  0.00    +0.000 OA
BRANCH  13  14
ATOM     14  C   UNL     1       5.747   3.982  14.178  0.00  0.00    +0.000 C 
ATOM     15  C   UNL     1       6.204   3.594  12.783  0.00  0.00    +0.000 C 
ENDBRANCH  13  14
ENDBRANCH  11  13
ENDBRANCH   7  11
BRANCH  10  16
ATOM     16  O   UNL     1       4.802   2.385  20.061  0.00  0.00    +0.000 OA
ATOM     17  C   UNL     1       4.482   1.119  19.633  0.00  0.00    +0.000 C 
ENDBRANCH  10  16
BRANCH   1  18
ATOM     18  O   UNL     1       2.626   3.962  21.200  0.00  0.00    +0.000 OA
BRANCH  18  19
ATOM     19  C   UNL     1       1.609   3.016  21.168  0.00  0.00    +0.000 C 
BRANCH  19  21
ATOM     20  C   UNL     1       0.869   2.225  18.893  0.00  0.00    +0.000 C 
ATOM     21  C   UNL     1       0.640   3.231  20.014  0.00  0.00    +0.000 C 
ENDBRANCH  19  21
ENDBRANCH  18  19
ENDBRANCH   1  18
BRANCH   4  22
ATOM     22  C   UNL     1       2.096   8.088  17.975  0.00  0.00    +0.000 C 
BRANCH  22  23
ATOM     23  N   UNL     1       2.318   9.470  17.566  0.00  0.00    +0.000 NA
ATOM     24  H   UNL     1       3.132   9.851  18.099  0.00  0.00    +0.000 HD
ATOM     25  H   UNL     1       1.474  10.027  17.834  0.00  0.00    +0.000 HD
ENDBRANCH  22  23
ENDBRANCH   4  22
TORSDOF 9
ENDMDL
MODEL 8
REMARK VINA RESULT:      -6.5      3.008      4.055
REMARK  Name = 
REMARK  12 active torsions:
REMARK  status: ('A' for Active; 'I' for Inactive)
REMARK    1  A    between atoms: C_1  and  C_2
REMARK    2  A    between atoms: C_2  and  C_3
REMARK    3  A    between atoms: C_3  and  O_4
REMARK    4  A    between atoms: O_4  and  C_5
REMARK    5  A    between atoms: C_8  and  C_9
REMARK    6  A    between atoms: C_9  and  N_10
REMARK    7  A    between atoms: C_13  and  C_14
REMARK    8  A    between atoms: C_14  and  O_16
REMARK    9  A    between atoms: O_16  and  C_17
REMARK   10  A    between atoms: C_17  and  C_18
REMARK   11  A    between atoms: C_21  and  O_22
REMARK   12  A    between atoms: O_22  and  C_23
REMARK                            x       y       z     vdW  Elec       q    Type
REMARK                         _______ _______ _______ _____ _____    ______ ____
ROOT
ATOM      1  C   UNL     1       5.759   4.272  14.316  0.00  0.00    +0.000 A 
ATOM      2  C   UNL     1       4.747   4.153  15.293  0.00  0.00    +0.000 A 
ATOM      3  C   UNL     1       4.941   4.527  16.636  0.00  0.00    +0.000 A 
ATOM      4  C   UNL     1       3.892   4.425  17.599  0.00  0.00    +0.000 A 
ATOM      5  N   UNL     1       4.150   4.771  18.884  0.00  0.00    +0.000 NA
ATOM      6  C   UNL     1       5.354   5.216  19.305  0.00  0.00    +0.000 A 
ATOM      7  C   UNL     1       6.429   5.364  18.417  0.00  0.00    +0.000 A 
ATOM      8  C   UNL     1       6.213   5.020  17.039  0.00  0.00    +0.000 A 
ATOM      9  C   UNL     1       7.210   5.163  16.044  0.00  0.00    +0.000 A 
ATOM     10  C   UNL     1       7.005   4.817  14.707  0.00  0.00    +0.000 A 
ENDROOT
BRANCH   7  11
ATOM     11  C   UNL     1       7.718   5.873  19.002  0.00  0.00    +0.000 C 
ATOM     12  O   UNL     1       8.265   5.318  19.940  0.00  0.00    +0.000 OA
BRANCH  11  13
ATOM     13  O   UNL     1       8.284   6.991  18.479  0.00  0.00    +0.000 OA
BRANCH  13  14
ATOM     14  C   UNL     1       7.600   8.040  17.883  0.00  0.00    +0.000 C 
ATOM     15  C   UNL     1       8.358   9.334  18.123  0.00  0.00    +0.000 C 
ENDBRANCH  13  14
ENDBRANCH  11  13
ENDBRANCH   7  11
BRANCH  10  16
ATOM     16  O   UNL     1       8.055   5.055  13.875  0.00  0.00    +0.000 OA
ATOM     17  C   UNL     1       8.146   5.911  12.804  0.00  0.00    +0.000 C 
ENDBRANCH  10  16
BRANCH   1  18
ATOM     18  O   UNL     1       5.525   3.871  13.028  0.00  0.00    +0.000 OA
BRANCH  18  19
ATOM     19  C   UNL     1       6.320   2.955  12.352  0.00  0.00    +0.000 C 
BRANCH  19  21
ATOM     20  C   UNL     1       6.254   0.777  11.087  0.00  0.00    +0.000 C 
ATOM     21  C   UNL     1       5.525   2.079  11.393  0.00  0.00    +0.000 C 
ENDBRANCH  19  21
ENDBRANCH  18  19
ENDBRANCH   1  18
BRANCH   4  22
ATOM     22  C   UNL     1       2.459   3.999  17.305  0.00  0.00    +0.000 C 
BRANCH  22  23
ATOM     23  N   UNL     1       2.306   2.561  17.496  0.00  0.00    +0.000 NA
ATOM     24  H   UNL     1       3.254   2.129  17.573  0.00  0.00    +0.000 HD
ATOM     25  H   UNL     1       1.846   2.168  16.642  0.00  0.00    +0.000 HD
ENDBRANCH  22  23
ENDBRANCH   4  22
TORSDOF 9
ENDMDL
MODEL 9
REMARK VINA RESULT:      -6.4      1.911      6.413
REMARK  Name = 
REMARK  12 active torsions:
REMARK  status: ('A' for Active; 'I' for Inactive)
REMARK    1  A    between atoms: C_1  and  C_2
REMARK    2  A    between atoms: C_2  and  C_3
REMARK    3  A    between atoms: C_3  and  O_4
REMARK    4  A    between atoms: O_4  and  C_5
REMARK    5  A    between atoms: C_8  and  C_9
REMARK    6  A    between atoms: C_9  and  N_10
REMARK    7  A    between atoms: C_13  and  C_14
REMARK    8  A    between atoms: C_14  and  O_16
REMARK    9  A    between atoms: O_16  and  C_17
REMARK   10  A    between atoms: C_17  and  C_18
REMARK   11  A    between atoms: C_21  and  O_22
REMARK   12  A    between atoms: O_22  and  C_23
REMARK                            x       y       z     vdW  Elec       q    Type
REMARK                         _______ _______ _______ _____ _____    ______ ____
ROOT
ATOM      1  C   UNL     1       1.973   6.890  19.916  0.00  0.00    +0.000 A 
ATOM      2  C   UNL     1       2.458   5.574  20.073  0.00  0.00    +0.000 A 
ATOM      3  C   UNL     1       3.374   4.991  19.179  0.00  0.00    +0.000 A 
ATOM      4  C   UNL     1       3.874   3.668  19.377  0.00  0.00    +0.000 A 
ATOM      5  N   UNL     1       4.729   3.149  18.463  0.00  0.00    +0.000 NA
ATOM      6  C   UNL     1       5.144   3.824  17.368  0.00  0.00    +0.000 A 
ATOM      7  C   UNL     1       4.716   5.135  17.113  0.00  0.00    +0.000 A 
ATOM      8  C   UNL     1       3.813   5.741  18.052  0.00  0.00    +0.000 A 
ATOM      9  C   UNL     1       3.343   7.069  17.921  0.00  0.00    +0.000 A 
ATOM     10  C   UNL     1       2.455   7.654  18.827  0.00  0.00    +0.000 A 
ENDROOT
BRANCH   7  11
ATOM     11  C   UNL     1       5.250   5.785  15.866  0.00  0.00    +0.000 C 
ATOM     12  O   UNL     1       5.605   6.951  15.847  0.00  0.00    +0.000 OA
BRANCH  11  13
ATOM     13  O   UNL     1       5.328   5.055  14.724  0.00  0.00    +0.000 OA
BRANCH  13  14
ATOM     14  C   UNL     1       6.486   4.508  14.192  0.00  0.00    +0.000 C 
ATOM     15  C   UNL     1       6.123   3.587  13.040  0.00  0.00    +0.000 C 
ENDBRANCH  13  14
ENDBRANCH  11  13
ENDBRANCH   7  11
BRANCH  10  16
ATOM     16  O   UNL     1       2.136   8.953  18.574  0.00  0.00    +0.000 OA
ATOM     17  C   UNL     1       1.037   9.475  17.935  0.00  0.00    +0.000 C 
ENDBRANCH  10  16
BRANCH   1  18
ATOM     18  O   UNL     1       1.064   7.401  20.802  0.00  0.00    +0.000 OA
BRANCH  18  19
ATOM     19  C   UNL     1       1.304   8.520  21.591  0.00  0.00    +0.000 C 
BRANCH  19  21
ATOM     20  C   UNL     1      -0.275   9.631  23.210  0.00  0.00    +0.000 C 
ATOM     21  C   UNL     1       0.076   9.407  21.744  0.00  0.00    +0.000 C 
ENDBRANCH  19  21
ENDBRANCH  18  19
ENDBRANCH   1  18
BRANCH   4  22
ATOM     22  C   UNL     1       3.565   2.776  20.573  0.00  0.00    +0.000 C 
BRANCH  22  23
ATOM     23  N   UNL     1       4.713   1.932  20.890  0.00  0.00    +0.000 NA
ATOM     24  H   UNL     1       4.722   1.119  20.234  0.00  0.00    +0.000 HD
ATOM     25  H   UNL     1       4.583   1.558  21.858  0.00  0.00    +0.000 HD
ENDBRANCH  22  23
ENDBRANCH   4  22
TORSDOF 9
ENDMDL
