MODEL 1
REMARK VINA RESULT:      -7.0      0.000      0.000
REMARK  Name = 
REMARK  9 active torsions:
REMARK  status: ('A' for Active; 'I' for Inactive)
REMARK    1  A    between atoms: C_1  and  C_2
REMARK    2  A    between atoms: C_2  and  O_3
REMARK    3  A    between atoms: O_3  and  C_4
REMARK    4  A    between atoms: C_4  and  C_6
REMARK    5  A    between atoms: C_6  and  C_7
REMARK    6  A    between atoms: C_7  and  C_8
REMARK    7  A    between atoms: C_10  and  C_11
REMARK    8  A    between atoms: C_11  and  S_12
REMARK    9  A    between atoms: S_12  and  C_13
REMARK                            x       y       z     vdW  Elec       q    Type
REMARK                         _______ _______ _______ _____ _____    ______ ____
ROOT
ATOM      1  C   UNL     1       2.579   4.324  19.442  0.00  0.00    +0.000 C 
ATOM      2  C   UNL     1       3.859   5.170  19.627  0.00  0.00    +0.000 C 
ATOM      3  C   UNL     1       3.967   5.999  18.339  0.00  0.00    +0.000 C 
ATOM      4  O   UNL     1       3.374   5.202  17.381  0.00  0.00    +0.000 OA
ATOM      5  C   UNL     1       2.573   4.273  17.944  0.00  0.00    +0.000 C 
ATOM      6  O   UNL     1       1.795   3.602  17.283  0.00  0.00    +0.000 OA
ENDROOT
BRANCH   1   7
ATOM      7  C   UNL     1       2.718   2.960  20.095  0.00  0.00    +0.000 C 
ATOM      8  O   UNL     1       1.718   2.330  20.416  0.00  0.00    +0.000 OA
BRANCH   7   9
ATOM      9  O   UNL     1       3.958   2.480  20.378  0.00  0.00    +0.000 OA
BRANCH   9  11
ATOM     10  C   UNL     1       3.912   1.204  18.384  0.00  0.00    +0.000 C 
ATOM     11  C   UNL     1       4.614   1.472  19.703  0.00  0.00    +0.000 C 
ENDBRANCH   9  11
ENDBRANCH   7   9
ENDBRANCH   1   7
BRANCH   1  12
ATOM     12  C   UNL     1       1.273   5.007  19.937  0.00  0.00    +0.000 C 
ATOM     13  C   UNL     1       1.514   6.118  20.969  0.00  0.00    +0.000 C 
ENDBRANCH   1  12
BRANCH   3  14
ATOM     14  C   UNL     1       5.429   6.333  17.977  0.00  0.00    +0.000 C 
BRANCH  14  15
ATOM     15  S   UNL     1       6.449   4.823  18.057  0.00  0.00    +0.000 S 
BRANCH  15  16
ATOM     16  C   UNL     1       6.592   4.558  16.277  0.00  0.00    +0.000 A 
ATOM     17  N   UNL     1       7.513   5.193  15.514  0.00  0.00    +0.000 NA
ATOM     18  C   UNL     1       7.223   4.788  14.262  0.00  0.00    +0.000 A 
ATOM     19  C   UNL     1       7.846   5.152  13.067  0.00  0.00    +0.000 A 
ATOM     20  C   UNL     1       7.340   4.603  11.872  0.00  0.00    +0.000 A 
ATOM     21  C   UNL     1       6.240   3.715  11.902  0.00  0.00    +0.000 A 
ATOM     22  C   UNL     1       5.636   3.369  13.126  0.00  0.00    +0.000 A 
ATOM     23  C   UNL     1       6.159   3.933  14.288  0.00  0.00    +0.000 A 
ATOM     24  N   UNL     1       5.751   3.777  15.556  0.00  0.00    +0.000 N 
ATOM     25  H   UNL     1       4.952   3.204  15.905  0.00  0.00    +0.000 HD
ENDBRANCH  15  16
ENDBRANCH  14  15
ENDBRANCH   3  14
TORSDOF 7
ENDMDL
MODEL 2
REMARK VINA RESULT:      -7.0      4.357      8.026
REMARK  Name = 
REMARK  9 active torsions:
REMARK  status: ('A' for Active; 'I' for Inactive)
REMARK    1  A    between atoms: C_1  and  C_2
REMARK    2  A    between atoms: C_2  and  O_3
REMARK    3  A    between atoms: O_3  and  C_4
REMARK    4  A    between atoms: C_4  and  C_6
REMARK    5  A    between atoms: C_6  and  C_7
REMARK    6  A    between atoms: C_7  and  C_8
REMARK    7  A    between atoms: C_10  and  C_11
REMARK    8  A    between atoms: C_11  and  S_12
REMARK    9  A    between atoms: S_12  and  C_13
REMARK                            x       y       z     vdW  Elec       q    Type
REMARK                         _______ _______ _______ _____ _____    ______ ____
ROOT
ATOM      1  C   UNL     1       3.648   4.031  17.814  0.00  0.00    +0.000 C 
ATOM      2  C   UNL     1       2.694   5.246  17.880  0.00  0.00    +0.000 C 
ATOM      3  C   UNL     1       3.458   6.296  18.698  0.00  0.00    +0.000 C 
ATOM      4  O   UNL     1       4.251   5.546  19.543  0.00  0.00    +0.000 OA
ATOM      5  C   UNL     1       4.407   4.288  19.081  0.00  0.00    +0.000 C 
ATOM      6  O   UNL     1       5.229   3.520  19.556  0.00  0.00    +0.000 OA
ENDROOT
BRANCH   1   7
ATOM      7  C   UNL     1       2.878   2.722  17.823  0.00  0.00    +0.000 C 
ATOM      8  O   UNL     1       3.478   1.658  17.731  0.00  0.00    +0.000 OA
BRANCH   7   9
ATOM      9  O   UNL     1       1.519   2.749  17.866  0.00  0.00    +0.000 OA
BRANCH   9  11
ATOM     10  C   UNL     1       0.923   3.066  20.136  0.00  0.00    +0.000 C 
ATOM     11  C   UNL     1       0.728   2.243  18.875  0.00  0.00    +0.000 C 
ENDBRANCH   9  11
ENDBRANCH   7   9
ENDBRANCH   1   7
BRANCH   1  12
ATOM     12  C   UNL     1       4.635   4.046  16.613  0.00  0.00    +0.000 C 
ATOM     13  C   UNL     1       4.992   5.459  16.129  0.00  0.00    +0.000 C 
ENDBRANCH   1  12
BRANCH   3  14
ATOM     14  C   UNL     1       2.514   7.230  19.482  0.00  0.00    +0.000 C 
BRANCH  14  15
ATOM     15  S   UNL     1       1.954   8.592  18.407  0.00  0.00    +0.000 S 
BRANCH  15  16
ATOM     16  C   UNL     1       0.908   9.419  19.623  0.00  0.00    +0.000 A 
ATOM     17  N   UNL     1       0.330  10.623  19.393  0.00  0.00    +0.000 NA
ATOM     18  C   UNL     1      -0.274  10.914  20.562  0.00  0.00    +0.000 A 
ATOM     19  C   UNL     1      -1.006  12.054  20.899  0.00  0.00    +0.000 A 
ATOM     20  C   UNL     1      -1.526  12.134  22.206  0.00  0.00    +0.000 A 
ATOM     21  C   UNL     1      -1.305  11.087  23.131  0.00  0.00    +0.000 A 
ATOM     22  C   UNL     1      -0.562   9.950  22.756  0.00  0.00    +0.000 A 
ATOM     23  C   UNL     1      -0.060   9.905  21.457  0.00  0.00    +0.000 A 
ATOM     24  N   UNL     1       0.685   8.953  20.876  0.00  0.00    +0.000 N 
ATOM     25  H   UNL     1       1.034   8.066  21.301  0.00  0.00    +0.000 HD
ENDBRANCH  15  16
ENDBRANCH  14  15
ENDBRANCH   3  14
TORSDOF 7
ENDMDL
MODEL 3
REMARK VINA RESULT:      -7.0      2.930      6.545
REMARK  Name = 
REMARK  9 active torsions:
REMARK  status: ('A' for Active; 'I' for Inactive)
REMARK    1  A    between atoms: C_1  and  C_2
REMARK    2  A    between atoms: C_2  and  O_3
REMARK    3  A    between atoms: O_3  and  C_4
REMARK    4  A    between atoms: C_4  and  C_6
REMARK    5  A    between atoms: C_6  and  C_7
REMARK    6  A    between atoms: C_7  and  C_8
REMARK    7  A    between atoms: C_10  and  C_11
REMARK    8  A    between atoms: C_11  and  S_12
REMARK    9  A    between atoms: S_12  and  C_13
REMARK                            x       y       z     vdW  Elec       q    Type
REMARK                         _______ _______ _______ _____ _____    ______ ____
ROOT
ATOM      1  C   UNL     1       6.940   5.842  17.784  0.00  0.00    +0.000 C 
ATOM      2  C   UNL     1       6.081   6.796  16.922  0.00  0.00    +0.000 C 
ATOM      3  C   UNL     1       4.919   7.207  17.837  0.00  0.00    +0.000 C 
ATOM      4  O   UNL     1       4.751   6.119  18.670  0.00  0.00    +0.000 OA
ATOM      5  C   UNL     1       5.856   5.345  18.694  0.00  0.00    +0.000 C 
ATOM      6  O   UNL     1       6.005   4.452  19.513  0.00  0.00    +0.000 OA
ENDROOT
BRANCH   1   7
ATOM      7  C   UNL     1       7.571   4.751  16.939  0.00  0.00    +0.000 C 
ATOM      8  O   UNL     1       8.436   4.028  17.419  0.00  0.00    +0.000 OA
BRANCH   7   9
ATOM      9  O   UNL     1       7.215   4.630  15.632  0.00  0.00    +0.000 OA
BRANCH   9  11
ATOM     10  C   UNL     1       6.235   3.866  13.616  0.00  0.00    +0.000 C 
ATOM     11  C   UNL     1       6.217   3.820  15.134  0.00  0.00    +0.000 C 
ENDBRANCH   9  11
ENDBRANCH   7   9
ENDBRANCH   1   7
BRANCH   1  12
ATOM     12  C   UNL     1       8.038   6.545  18.632  0.00  0.00    +0.000 C 
ATOM     13  C   UNL     1       8.269   8.012  18.242  0.00  0.00    +0.000 C 
ENDBRANCH   1  12
BRANCH   3  14
ATOM     14  C   UNL     1       3.633   7.523  17.046  0.00  0.00    +0.000 C 
BRANCH  14  15
ATOM     15  S   UNL     1       2.277   7.921  18.199  0.00  0.00    +0.000 S 
BRANCH  15  16
ATOM     16  C   UNL     1       2.115   6.279  18.928  0.00  0.00    +0.000 A 
ATOM     17  N   UNL     1       1.664   5.209  18.229  0.00  0.00    +0.000 NA
ATOM     18  C   UNL     1       1.613   4.226  19.150  0.00  0.00    +0.000 A 
ATOM     19  C   UNL     1       1.195   2.905  18.984  0.00  0.00    +0.000 A 
ATOM     20  C   UNL     1       1.215   2.066  20.116  0.00  0.00    +0.000 A 
ATOM     21  C   UNL     1       1.647   2.563  21.368  0.00  0.00    +0.000 A 
ATOM     22  C   UNL     1       2.064   3.902  21.498  0.00  0.00    +0.000 A 
ATOM     23  C   UNL     1       2.028   4.704  20.359  0.00  0.00    +0.000 A 
ATOM     24  N   UNL     1       2.351   6.000  20.233  0.00  0.00    +0.000 N 
ATOM     25  H   UNL     1       2.682   6.652  20.977  0.00  0.00    +0.000 HD
ENDBRANCH  15  16
ENDBRANCH  14  15
ENDBRANCH   3  14
TORSDOF 7
ENDMDL
MODEL 4
REMARK VINA RESULT:      -6.9      3.143      6.762
REMARK  Name = 
REMARK  9 active torsions:
REMARK  status: ('A' for Active; 'I' for Inactive)
REMARK    1  A    between atoms: C_1  and  C_2
REMARK    2  A    between atoms: C_2  and  O_3
REMARK    3  A    between atoms: O_3  and  C_4
REMARK    4  A    between atoms: C_4  and  C_6
REMARK    5  A    between atoms: C_6  and  C_7
REMARK    6  A    between atoms: C_7  and  C_8
REMARK    7  A    between atoms: C_10  and  C_11
REMARK    8  A    between atoms: C_11  and  S_12
REMARK    9  A    between atoms: S_12  and  C_13
REMARK                            x       y       z     vdW  Elec       q    Type
REMARK                         _______ _______ _______ _____ _____    ______ ____
ROOT
ATOM      1  C   UNL     1       6.468   5.094  16.428  0.00  0.00    +0.000 C 
ATOM      2  C   UNL     1       5.001   4.662  16.657  0.00  0.00    +0.000 C 
ATOM      3  C   UNL     1       4.939   4.268  18.139  0.00  0.00    +0.000 C 
ATOM      4  O   UNL     1       6.214   3.817  18.417  0.00  0.00    +0.000 OA
ATOM      5  C   UNL     1       7.102   4.271  17.509  0.00  0.00    +0.000 C 
ATOM      6  O   UNL     1       8.308   4.168  17.674  0.00  0.00    +0.000 OA
ENDROOT
BRANCH   1   7
ATOM      7  C   UNL     1       6.940   4.730  15.032  0.00  0.00    +0.000 C 
ATOM      8  O   UNL     1       7.863   5.350  14.517  0.00  0.00    +0.000 OA
BRANCH   7   9
ATOM      9  O   UNL     1       6.287   3.760  14.339  0.00  0.00    +0.000 OA
BRANCH   9  11
ATOM     10  C   UNL     1       4.904   3.502  12.433  0.00  0.00    +0.000 C 
ATOM     11  C   UNL     1       6.322   3.571  12.974  0.00  0.00    +0.000 C 
ENDBRANCH   9  11
ENDBRANCH   7   9
ENDBRANCH   1   7
BRANCH   1  12
ATOM     12  C   UNL     1       6.751   6.599  16.697  0.00  0.00    +0.000 C 
ATOM     13  C   UNL     1       5.481   7.433  16.916  0.00  0.00    +0.000 C 
ENDBRANCH   1  12
BRANCH   3  14
ATOM     14  C   UNL     1       3.878   3.182  18.414  0.00  0.00    +0.000 C 
BRANCH  14  15
ATOM     15  S   UNL     1       3.163   3.418  20.074  0.00  0.00    +0.000 S 
BRANCH  15  16
ATOM     16  C   UNL     1       2.566   5.102  19.821  0.00  0.00    +0.000 A 
ATOM     17  N   UNL     1       2.575   5.708  18.609  0.00  0.00    +0.000 NA
ATOM     18  C   UNL     1       2.141   6.956  18.875  0.00  0.00    +0.000 A 
ATOM     19  C   UNL     1       1.976   8.022  17.989  0.00  0.00    +0.000 A 
ATOM     20  C   UNL     1       1.524   9.248  18.518  0.00  0.00    +0.000 A 
ATOM     21  C   UNL     1       1.252   9.374  19.900  0.00  0.00    +0.000 A 
ATOM     22  C   UNL     1       1.429   8.277  20.765  0.00  0.00    +0.000 A 
ATOM     23  C   UNL     1       1.881   7.081  20.209  0.00  0.00    +0.000 A 
ATOM     24  N   UNL     1       2.143   5.916  20.819  0.00  0.00    +0.000 N 
ATOM     25  H   UNL     1       2.064   5.694  21.836  0.00  0.00    +0.000 HD
ENDBRANCH  15  16
ENDBRANCH  14  15
ENDBRANCH   3  14
TORSDOF 7
ENDMDL
MODEL 5
REMARK VINA RESULT:      -6.9      4.324      7.990
REMARK  Name = 
REMARK  9 active torsions:
REMARK  status: ('A' for Active; 'I' for Inactive)
REMARK    1  A    between atoms: C_1  and  C_2
REMARK    2  A    between atoms: C_2  and  O_3
REMARK    3  A    between atoms: O_3  and  C_4
REMARK    4  A    between atoms: C_4  and  C_6
REMARK    5  A    between atoms: C_6  and  C_7
REMARK    6  A    between atoms: C_7  and  C_8
REMARK    7  A    between atoms: C_10  and  C_11
REMARK    8  A    between atoms: C_11  and  S_12
REMARK    9  A    between atoms: S_12  and  C_13
REMARK                            x       y       z     vdW  Elec       q    Type
REMARK                         _______ _______ _______ _____ _____    ______ ____
ROOT
ATOM      1  C   UNL     1       3.695   3.899  17.921  0.00  0.00    +0.000 C 
ATOM      2  C   UNL     1       2.604   4.994  17.970  0.00  0.00    +0.000 C 
ATOM      3  C   UNL     1       3.325   6.237  18.510  0.00  0.00    +0.000 C 
ATOM      4  O   UNL     1       4.319   5.719  19.316  0.00  0.00    +0.000 OA
ATOM      5  C   UNL     1       4.578   4.431  19.009  0.00  0.00    +0.000 C 
ATOM      6  O   UNL     1       5.553   3.843  19.450  0.00  0.00    +0.000 OA
ENDROOT
BRANCH   1   7
ATOM      7  C   UNL     1       3.116   2.529  18.225  0.00  0.00    +0.000 C 
ATOM      8  O   UNL     1       3.664   1.523  17.793  0.00  0.00    +0.000 OA
BRANCH   7   9
ATOM      9  O   UNL     1       1.952   2.437  18.922  0.00  0.00    +0.000 OA
BRANCH   9  11
ATOM     10  C   UNL     1       1.263   3.566  20.887  0.00  0.00    +0.000 C 
ATOM     11  C   UNL     1       1.831   2.292  20.288  0.00  0.00    +0.000 C 
ENDBRANCH   9  11
ENDBRANCH   7   9
ENDBRANCH   1   7
BRANCH   1  12
ATOM     12  C   UNL     1       4.498   3.841  16.591  0.00  0.00    +0.000 C 
ATOM     13  C   UNL     1       5.047   5.204  16.146  0.00  0.00    +0.000 C 
ENDBRANCH   1  12
BRANCH   3  14
ATOM     14  C   UNL     1       2.380   7.167  19.298  0.00  0.00    +0.000 C 
BRANCH  14  15
ATOM     15  S   UNL     1       1.997   8.647  18.305  0.00  0.00    +0.000 S 
BRANCH  15  16
ATOM     16  C   UNL     1       1.055   9.526  19.569  0.00  0.00    +0.000 A 
ATOM     17  N   UNL     1       0.963   9.089  20.848  0.00  0.00    +0.000 NA
ATOM     18  C   UNL     1       0.115   9.965  21.423  0.00  0.00    +0.000 A 
ATOM     19  C   UNL     1      -0.356   9.980  22.737  0.00  0.00    +0.000 A 
ATOM     20  C   UNL     1      -1.262  10.998  23.095  0.00  0.00    +0.000 A 
ATOM     21  C   UNL     1      -1.668  11.962  22.144  0.00  0.00    +0.000 A 
ATOM     22  C   UNL     1      -1.171  11.918  20.826  0.00  0.00    +0.000 A 
ATOM     23  C   UNL     1      -0.280  10.895  20.506  0.00  0.00    +0.000 A 
ATOM     24  N   UNL     1       0.309  10.631  19.329  0.00  0.00    +0.000 N 
ATOM     25  H   UNL     1       0.196  11.145  18.428  0.00  0.00    +0.000 HD
ENDBRANCH  15  16
ENDBRANCH  14  15
ENDBRANCH   3  14
TORSDOF 7
ENDMDL
MODEL 6
REMARK VINA RESULT:      -6.9      1.551      2.508
REMARK  Name = 
REMARK  9 active torsions:
REMARK  status: ('A' for Active; 'I' for Inactive)
REMARK    1  A    between atoms: C_1  and  C_2
REMARK    2  A    between atoms: C_2  and  O_3
REMARK    3  A    between atoms: O_3  and  C_4
REMARK    4  A    between atoms: C_4  and  C_6
REMARK    5  A    between atoms: C_6  and  C_7
REMARK    6  A    between atoms: C_7  and  C_8
REMARK    7  A    between atoms: C_10  and  C_11
REMARK    8  A    between atoms: C_11  and  S_12
REMARK    9  A    between atoms: S_12  and  C_13
REMARK                            x       y       z     vdW  Elec       q    Type
REMARK                         _______ _______ _______ _____ _____    ______ ____
ROOT
ATOM      1  C   UNL     1       2.523   6.063  19.098  0.00  0.00    +0.000 C 
ATOM      2  C   UNL     1       4.025   5.837  19.385  0.00  0.00    +0.000 C 
ATOM      3  C   UNL     1       4.575   5.199  18.102  0.00  0.00    +0.000 C 
ATOM      4  O   UNL     1       3.497   4.508  17.587  0.00  0.00    +0.000 OA
ATOM      5  C   UNL     1       2.333   4.970  18.090  0.00  0.00    +0.000 C 
ATOM      6  O   UNL     1       1.251   4.648  17.623  0.00  0.00    +0.000 OA
ENDROOT
BRANCH   1   7
ATOM      7  C   UNL     1       1.686   5.885  20.352  0.00  0.00    +0.000 C 
ATOM      8  O   UNL     1       1.352   6.863  21.009  0.00  0.00    +0.000 OA
BRANCH   7   9
ATOM      9  O   UNL     1       1.371   4.630  20.770  0.00  0.00    +0.000 OA
BRANCH   9  11
ATOM     10  C   UNL     1       1.469   2.473  21.743  0.00  0.00    +0.000 C 
ATOM     11  C   UNL     1       2.157   3.814  21.556  0.00  0.00    +0.000 C 
ENDBRANCH   9  11
ENDBRANCH   7   9
ENDBRANCH   1   7
BRANCH   1  12
ATOM     12  C   UNL     1       2.188   7.431  18.439  0.00  0.00    +0.000 C 
ATOM     13  C   UNL     1       3.312   7.975  17.546  0.00  0.00    +0.000 C 
ENDBRANCH   1  12
BRANCH   3  14
ATOM     14  C   UNL     1       5.771   4.264  18.377  0.00  0.00    +0.000 C 
BRANCH  14  15
ATOM     15  S   UNL     1       7.316   5.053  17.817  0.00  0.00    +0.000 S 
BRANCH  15  16
ATOM     16  C   UNL     1       7.065   4.803  16.048  0.00  0.00    +0.000 A 
ATOM     17  N   UNL     1       6.215   3.870  15.554  0.00  0.00    +0.000 NA
ATOM     18  C   UNL     1       6.393   3.952  14.221  0.00  0.00    +0.000 A 
ATOM     19  C   UNL     1       5.782   3.199  13.217  0.00  0.00    +0.000 A 
ATOM     20  C   UNL     1       6.154   3.462  11.884  0.00  0.00    +0.000 A 
ATOM     21  C   UNL     1       7.113   4.458  11.592  0.00  0.00    +0.000 A 
ATOM     22  C   UNL     1       7.710   5.201  12.630  0.00  0.00    +0.000 A 
ATOM     23  C   UNL     1       7.321   4.912  13.937  0.00  0.00    +0.000 A 
ATOM     24  N   UNL     1       7.753   5.460  15.083  0.00  0.00    +0.000 N 
ATOM     25  H   UNL     1       8.474   6.204  15.204  0.00  0.00    +0.000 HD
ENDBRANCH  15  16
ENDBRANCH  14  15
ENDBRANCH   3  14
TORSDOF 7
ENDMDL
MODEL 7
REMARK VINA RESULT:      -6.9      3.421      7.267
REMARK  Name = 
REMARK  9 active torsions:
REMARK  status: ('A' for Active; 'I' for Inactive)
REMARK    1  A    between atoms: C_1  and  C_2
REMARK    2  A    between atoms: C_2  and  O_3
REMARK    3  A    between atoms: O_3  and  C_4
REMARK    4  A    between atoms: C_4  and  C_6
REMARK    5  A    between atoms: C_6  and  C_7
REMARK    6  A    between atoms: C_7  and  C_8
REMARK    7  A    between atoms: C_10  and  C_11
REMARK    8  A    between atoms: C_11  and  S_12
REMARK    9  A    between atoms: S_12  and  C_13
REMARK                            x       y       z     vdW  Elec       q    Type
REMARK                         _______ _______ _______ _____ _____    ______ ____
ROOT
ATOM      1  C   UNL     1       6.881   5.669  16.833  0.00  0.00    +0.000 C 
ATOM      2  C   UNL     1       5.410   5.771  17.298  0.00  0.00    +0.000 C 
ATOM      3  C   UNL     1       5.438   5.348  18.773  0.00  0.00    +0.000 C 
ATOM      4  O   UNL     1       6.494   4.462  18.844  0.00  0.00    +0.000 OA
ATOM      5  C   UNL     1       7.337   4.620  17.803  0.00  0.00    +0.000 C 
ATOM      6  O   UNL     1       8.436   4.089  17.772  0.00  0.00    +0.000 OA
ENDROOT
BRANCH   1   7
ATOM      7  C   UNL     1       6.974   5.235  15.381  0.00  0.00    +0.000 C 
ATOM      8  O   UNL     1       7.875   5.664  14.671  0.00  0.00    +0.000 OA
BRANCH   7   9
ATOM      9  O   UNL     1       6.013   4.423  14.866  0.00  0.00    +0.000 OA
BRANCH   9  11
ATOM     10  C   UNL     1       5.019   3.774  12.817  0.00  0.00    +0.000 C 
ATOM     11  C   UNL     1       6.161   3.566  13.796  0.00  0.00    +0.000 C 
ENDBRANCH   9  11
ENDBRANCH   7   9
ENDBRANCH   1   7
BRANCH   1  12
ATOM     12  C   UNL     1       7.720   6.961  17.045  0.00  0.00    +0.000 C 
ATOM     13  C   UNL     1       6.899   8.147  17.571  0.00  0.00    +0.000 C 
ENDBRANCH   1  12
BRANCH   3  14
ATOM     14  C   UNL     1       4.114   4.694  19.220  0.00  0.00    +0.000 C 
BRANCH  14  15
ATOM     15  S   UNL     1       2.790   5.097  18.033  0.00  0.00    +0.000 S 
BRANCH  15  16
ATOM     16  C   UNL     1       2.300   6.669  18.772  0.00  0.00    +0.000 A 
ATOM     17  N   UNL     1       2.042   6.807  20.095  0.00  0.00    +0.000 NA
ATOM     18  C   UNL     1       1.633   8.086  20.207  0.00  0.00    +0.000 A 
ATOM     19  C   UNL     1       1.216   8.765  21.353  0.00  0.00    +0.000 A 
ATOM     20  C   UNL     1       0.812  10.107  21.208  0.00  0.00    +0.000 A 
ATOM     21  C   UNL     1       0.835  10.727  19.937  0.00  0.00    +0.000 A 
ATOM     22  C   UNL     1       1.263  10.013  18.802  0.00  0.00    +0.000 A 
ATOM     23  C   UNL     1       1.653   8.686  18.981  0.00  0.00    +0.000 A 
ATOM     24  N   UNL     1       2.075   7.802  18.065  0.00  0.00    +0.000 N 
ATOM     25  H   UNL     1       2.180   7.948  17.037  0.00  0.00    +0.000 HD
ENDBRANCH  15  16
ENDBRANCH  14  15
ENDBRANCH   3  14
TORSDOF 7
ENDMDL
MODEL 8
REMARK VINA RESULT:      -6.8      0.964      1.172
REMARK  Name = 
REMARK  9 active torsions:
REMARK  status: ('A' for Active; 'I' for Inactive)
REMARK    1  A    between atoms: C_1  and  C_2
REMARK    2  A    between atoms: C_2  and  O_3
REMARK    3  A    between atoms: O_3  and  C_4
REMARK    4  A    between atoms: C_4  and  C_6
REMARK    5  A    between atoms: C_6  and  C_7
REMARK    6  A    between atoms: C_7  and  C_8
REMARK    7  A    between atoms: C_10  and  C_11
REMARK    8  A    between atoms: C_11  and  S_12
REMARK    9  A    between atoms: S_12  and  C_13
REMARK                            x       y       z     vdW  Elec       q    Type
REMARK                         _______ _______ _______ _____ _____    ______ ____
ROOT
ATOM      1  C   UNL     1       3.049   3.702  19.176  0.00  0.00    +0.000 C 
ATOM      2  C   UNL     1       4.143   4.783  19.336  0.00  0.00    +0.000 C 
ATOM      3  C   UNL     1       3.732   5.899  18.366  0.00  0.00    +0.000 C 
ATOM      4  O   UNL     1       3.065   5.233  17.358  0.00  0.00    +0.000 OA
ATOM      5  C   UNL     1       2.643   4.019  17.768  0.00  0.00    +0.000 C 
ATOM      6  O   UNL     1       1.859   3.349  17.113  0.00  0.00    +0.000 OA
ENDROOT
BRANCH   1   7
ATOM      7  C   UNL     1       3.621   2.306  19.343  0.00  0.00    +0.000 C 
ATOM      8  O   UNL     1       2.976   1.332  18.977  0.00  0.00    +0.000 OA
BRANCH   7   9
ATOM      9  O   UNL     1       4.822   2.148  19.961  0.00  0.00    +0.000 OA
BRANCH   9  11
ATOM     10  C   UNL     1       5.646   0.136  20.899  0.00  0.00    +0.000 C 
ATOM     11  C   UNL     1       5.041   1.504  21.160  0.00  0.00    +0.000 C 
ENDBRANCH   9  11
ENDBRANCH   7   9
ENDBRANCH   1   7
BRANCH   1  12
ATOM     12  C   UNL     1       1.822   3.877  20.115  0.00  0.00    +0.000 C 
ATOM     13  C   UNL     1       2.116   3.531  21.581  0.00  0.00    +0.000 C 
ENDBRANCH   1  12
BRANCH   3  14
ATOM     14  C   UNL     1       4.946   6.682  17.825  0.00  0.00    +0.000 C 
BRANCH  14  15
ATOM     15  S   UNL     1       6.462   5.687  18.016  0.00  0.00    +0.000 S 
BRANCH  15  16
ATOM     16  C   UNL     1       6.564   5.106  16.311  0.00  0.00    +0.000 A 
ATOM     17  N   UNL     1       7.490   5.566  15.435  0.00  0.00    +0.000 NA
ATOM     18  C   UNL     1       7.165   4.955  14.279  0.00  0.00    +0.000 A 
ATOM     19  C   UNL     1       7.776   5.081  13.031  0.00  0.00    +0.000 A 
ATOM     20  C   UNL     1       7.232   4.346  11.958  0.00  0.00    +0.000 A 
ATOM     21  C   UNL     1       6.106   3.515  12.159  0.00  0.00    +0.000 A 
ATOM     22  C   UNL     1       5.515   3.410  13.433  0.00  0.00    +0.000 A 
ATOM     23  C   UNL     1       6.076   4.154  14.470  0.00  0.00    +0.000 A 
ATOM     24  N   UNL     1       5.687   4.238  15.751  0.00  0.00    +0.000 N 
ATOM     25  H   UNL     1       4.877   3.763  16.206  0.00  0.00    +0.000 HD
ENDBRANCH  15  16
ENDBRANCH  14  15
ENDBRANCH   3  14
TORSDOF 7
ENDMDL
MODEL 9
REMARK VINA RESULT:      -6.8      1.158      1.449
REMARK  Name = 
REMARK  9 active torsions:
REMARK  status: ('A' for Active; 'I' for Inactive)
REMARK    1  A    between atoms: C_1  and  C_2
REMARK    2  A    between atoms: C_2  and  O_3
REMARK    3  A    between atoms: O_3  and  C_4
REMARK    4  A    between atoms: C_4  and  C_6
REMARK    5  A    between atoms: C_6  and  C_7
REMARK    6  A    between atoms: C_7  and  C_8
REMARK    7  A    between atoms: C_10  and  C_11
REMARK    8  A    between atoms: C_11  and  S_12
REMARK    9  A    between atoms: S_12  and  C_13
REMARK                            x       y       z     vdW  Elec       q    Type
REMARK                         _______ _______ _______ _____ _____    ______ ____
ROOT
ATOM      1  C   UNL     1       3.216   5.089  19.325  0.00  0.00    +0.000 C 
ATOM      2  C   UNL     1       4.502   5.946  19.324  0.00  0.00    +0.000 C 
ATOM      3  C   UNL     1       4.505   6.640  17.954  0.00  0.00    +0.000 C 
ATOM      4  O   UNL     1       3.844   5.752  17.131  0.00  0.00    +0.000 OA
ATOM      5  C   UNL     1       3.094   4.887  17.845  0.00  0.00    +0.000 C 
ATOM      6  O   UNL     1       2.271   4.154  17.318  0.00  0.00    +0.000 OA
ENDROOT
BRANCH   1   7
ATOM      7  C   UNL     1       3.412   3.798  20.100  0.00  0.00    +0.000 C 
ATOM      8  O   UNL     1       4.272   2.999  19.750  0.00  0.00    +0.000 OA
BRANCH   7   9
ATOM      9  O   UNL     1       2.584   3.512  21.140  0.00  0.00    +0.000 OA
BRANCH   9  11
ATOM     10  C   UNL     1       0.790   2.507  19.964  0.00  0.00    +0.000 C 
ATOM     11  C   UNL     1       1.678   2.474  21.195  0.00  0.00    +0.000 C 
ENDBRANCH   9  11
ENDBRANCH   7   9
ENDBRANCH   1   7
BRANCH   1  12
ATOM     12  C   UNL     1       1.948   5.822  19.848  0.00  0.00    +0.000 C 
ATOM     13  C   UNL     1       2.137   7.337  20.009  0.00  0.00    +0.000 C 
ENDBRANCH   1  12
BRANCH   3  14
ATOM     14  C   UNL     1       5.933   6.932  17.448  0.00  0.00    +0.000 C 
BRANCH  14  15
ATOM     15  S   UNL     1       6.975   5.448  17.639  0.00  0.00    +0.000 S 
BRANCH  15  16
ATOM     16  C   UNL     1       6.874   4.883  15.929  0.00  0.00    +0.000 A 
ATOM     17  N   UNL     1       7.687   5.355  14.953  0.00  0.00    +0.000 NA
ATOM     18  C   UNL     1       7.227   4.752  13.838  0.00  0.00    +0.000 A 
ATOM     19  C   UNL     1       7.684   4.892  12.526  0.00  0.00    +0.000 A 
ATOM     20  C   UNL     1       7.018   4.164  11.520  0.00  0.00    +0.000 A 
ATOM     21  C   UNL     1       5.927   3.326  11.847  0.00  0.00    +0.000 A 
ATOM     22  C   UNL     1       5.492   3.208  13.182  0.00  0.00    +0.000 A 
ATOM     23  C   UNL     1       6.172   3.944  14.151  0.00  0.00    +0.000 A 
ATOM     24  N   UNL     1       5.939   4.016  15.470  0.00  0.00    +0.000 N 
ATOM     25  H   UNL     1       5.191   3.533  16.014  0.00  0.00    +0.000 HD
ENDBRANCH  15  16
ENDBRANCH  14  15
ENDBRANCH   3  14
TORSDOF 7
ENDMDL
