MODEL 1
REMARK VINA RESULT:      -7.5      0.000      0.000
REMARK  Name = 
REMARK  5 active torsions:
REMARK  status: ('A' for Active; 'I' for Inactive)
REMARK    1  A    between atoms: C_1  and  O_2
REMARK    2  A    between atoms: O_2  and  C_3
REMARK    3  A    between atoms: C_6  and  N_7
REMARK    4  A    between atoms: C_8  and  S_9
REMARK    5  A    between atoms: N_10  and  C_11
REMARK                            x       y       z     vdW  Elec       q    Type
REMARK                         _______ _______ _______ _____ _____    ______ ____
ROOT
ATOM      1  N   UNL     1       6.980   5.696  15.640  0.00  0.00    +0.000 N 
ATOM      2  C   UNL     1       6.151   5.709  16.735  0.00  0.00    +0.000 C 
ATOM      3  N   UNL     1       4.855   5.609  16.669  0.00  0.00    +0.000 NA
ATOM      4  H   UNL     1       7.952   5.915  15.817  0.00  0.00    +0.000 HD
ENDROOT
BRANCH   3   5
ATOM      5  C   UNL     1       3.943   5.663  17.746  0.00  0.00    +0.000 A 
ATOM      6  C   UNL     1       3.434   6.881  18.219  0.00  0.00    +0.000 A 
ATOM      7  C   UNL     1       2.549   6.943  19.294  0.00  0.00    +0.000 A 
ATOM      8  C   UNL     1       2.079   5.769  19.866  0.00  0.00    +0.000 A 
ATOM      9  C   UNL     1       2.468   4.528  19.346  0.00  0.00    +0.000 A 
ATOM     10  C   UNL     1       1.928   3.340  19.842  0.00  0.00    +0.000 A 
ATOM     11  N   UNL     1       2.216   2.108  19.370  0.00  0.00    +0.000 NA
ATOM     12  C   UNL     1       3.094   2.056  18.351  0.00  0.00    +0.000 A 
ATOM     13  C   UNL     1       3.709   3.171  17.794  0.00  0.00    +0.000 A 
ATOM     14  C   UNL     1       3.401   4.456  18.284  0.00  0.00    +0.000 A 
ENDBRANCH   3   5
BRANCH   1  18
ATOM     15  C   UNL     1       6.387   3.414  12.141  0.00  0.00    +0.000 A 
ATOM     16  C   UNL     1       5.523   3.296  13.229  0.00  0.00    +0.000 A 
ATOM     17  C   UNL     1       5.702   4.087  14.368  0.00  0.00    +0.000 A 
ATOM     18  C   UNL     1       6.770   4.987  14.449  0.00  0.00    +0.000 A 
ATOM     19  C   UNL     1       7.620   5.107  13.346  0.00  0.00    +0.000 A 
ATOM     20  C   UNL     1       7.433   4.332  12.198  0.00  0.00    +0.000 A 
BRANCH  15  22
ATOM     21  C   UNL     1       6.895   1.367  11.072  0.00  0.00    +0.000 C 
ATOM     22  O   UNL     1       6.131   2.566  11.100  0.00  0.00    +0.000 OA
ENDBRANCH  15  22
ENDBRANCH   1  18
BRANCH   2  23
ATOM     23  S   UNL     1       7.104   5.924  18.199  0.00  0.00    +0.000 S 
ATOM     24  H   UNL     1       6.778   7.213  18.368  0.00  0.00    +0.000 HD
ENDBRANCH   2  23
TORSDOF 4
ENDMDL
MODEL 2
REMARK VINA RESULT:      -7.3      0.845      1.341
REMARK  Name = 
REMARK  5 active torsions:
REMARK  status: ('A' for Active; 'I' for Inactive)
REMARK    1  A    between atoms: C_1  and  O_2
REMARK    2  A    between atoms: O_2  and  C_3
REMARK    3  A    between atoms: C_6  and  N_7
REMARK    4  A    between atoms: C_8  and  S_9
REMARK    5  A    between atoms: N_10  and  C_11
REMARK                            x       y       z     vdW  Elec       q    Type
REMARK                         _______ _______ _______ _____ _____    ______ ____
ROOT
ATOM      1  N   UNL     1       7.091   5.873  15.534  0.00  0.00    +0.000 N 
ATOM      2  C   UNL     1       6.283   6.092  16.623  0.00  0.00    +0.000 C 
ATOM      3  N   UNL     1       4.985   6.016  16.595  0.00  0.00    +0.000 NA
ATOM      4  H   UNL     1       8.071   6.093  15.658  0.00  0.00    +0.000 HD
ENDROOT
BRANCH   3   5
ATOM      5  C   UNL     1       4.094   6.275  17.660  0.00  0.00    +0.000 A 
ATOM      6  C   UNL     1       3.367   7.471  17.737  0.00  0.00    +0.000 A 
ATOM      7  C   UNL     1       2.501   7.741  18.796  0.00  0.00    +0.000 A 
ATOM      8  C   UNL     1       2.276   6.772  19.764  0.00  0.00    +0.000 A 
ATOM      9  C   UNL     1       2.889   5.518  19.660  0.00  0.00    +0.000 A 
ATOM     10  C   UNL     1       2.597   4.497  20.566  0.00  0.00    +0.000 A 
ATOM     11  N   UNL     1       3.111   3.249  20.512  0.00  0.00    +0.000 NA
ATOM     12  C   UNL     1       3.968   3.006  19.503  0.00  0.00    +0.000 A 
ATOM     13  C   UNL     1       4.347   3.952  18.557  0.00  0.00    +0.000 A 
ATOM     14  C   UNL     1       3.804   5.251  18.612  0.00  0.00    +0.000 A 
ENDBRANCH   3   5
BRANCH   1  18
ATOM     15  C   UNL     1       6.287   3.319  12.273  0.00  0.00    +0.000 A 
ATOM     16  C   UNL     1       7.327   4.247  12.218  0.00  0.00    +0.000 A 
ATOM     17  C   UNL     1       7.613   5.060  13.319  0.00  0.00    +0.000 A 
ATOM     18  C   UNL     1       6.841   4.979  14.483  0.00  0.00    +0.000 A 
ATOM     19  C   UNL     1       5.811   4.036  14.531  0.00  0.00    +0.000 A 
ATOM     20  C   UNL     1       5.533   3.209  13.439  0.00  0.00    +0.000 A 
BRANCH  15  22
ATOM     21  C   UNL     1       6.499   1.246  11.155  0.00  0.00    +0.000 C 
ATOM     22  O   UNL     1       6.082   2.606  11.125  0.00  0.00    +0.000 OA
ENDBRANCH  15  22
ENDBRANCH   1  18
BRANCH   2  23
ATOM     23  S   UNL     1       7.268   6.525  18.016  0.00  0.00    +0.000 S 
ATOM     24  H   UNL     1       7.881   7.555  17.416  0.00  0.00    +0.000 HD
ENDBRANCH   2  23
TORSDOF 4
ENDMDL
MODEL 3
REMARK VINA RESULT:      -6.9      0.914      1.401
REMARK  Name = 
REMARK  5 active torsions:
REMARK  status: ('A' for Active; 'I' for Inactive)
REMARK    1  A    between atoms: C_1  and  O_2
REMARK    2  A    between atoms: O_2  and  C_3
REMARK    3  A    between atoms: C_6  and  N_7
REMARK    4  A    between atoms: C_8  and  S_9
REMARK    5  A    between atoms: N_10  and  C_11
REMARK                            x       y       z     vdW  Elec       q    Type
REMARK                         _______ _______ _______ _____ _____    ______ ____
ROOT
ATOM      1  N   UNL     1       6.783   5.496  16.685  0.00  0.00    +0.000 N 
ATOM      2  C   UNL     1       5.873   5.556  17.712  0.00  0.00    +0.000 C 
ATOM      3  N   UNL     1       4.585   5.613  17.541  0.00  0.00    +0.000 NA
ATOM      4  H   UNL     1       7.756   5.589  16.949  0.00  0.00    +0.000 HD
ENDROOT
BRANCH   3   5
ATOM      5  C   UNL     1       3.598   5.726  18.546  0.00  0.00    +0.000 A 
ATOM      6  C   UNL     1       3.106   6.972  18.957  0.00  0.00    +0.000 A 
ATOM      7  C   UNL     1       2.147   7.092  19.962  0.00  0.00    +0.000 A 
ATOM      8  C   UNL     1       1.589   5.950  20.519  0.00  0.00    +0.000 A 
ATOM      9  C   UNL     1       1.963   4.684  20.052  0.00  0.00    +0.000 A 
ATOM     10  C   UNL     1       1.341   3.529  20.527  0.00  0.00    +0.000 A 
ATOM     11  N   UNL     1       1.612   2.277  20.100  0.00  0.00    +0.000 NA
ATOM     12  C   UNL     1       2.560   2.168  19.151  0.00  0.00    +0.000 A 
ATOM     13  C   UNL     1       3.259   3.247  18.621  0.00  0.00    +0.000 A 
ATOM     14  C   UNL     1       2.969   4.553  19.063  0.00  0.00    +0.000 A 
ENDBRANCH   3   5
BRANCH   1  18
ATOM     15  C   UNL     1       6.175   3.774  12.881  0.00  0.00    +0.000 A 
ATOM     16  C   UNL     1       7.267   4.607  13.125  0.00  0.00    +0.000 A 
ATOM     17  C   UNL     1       7.484   5.139  14.400  0.00  0.00    +0.000 A 
ATOM     18  C   UNL     1       6.593   4.871  15.444  0.00  0.00    +0.000 A 
ATOM     19  C   UNL     1       5.511   4.023  15.191  0.00  0.00    +0.000 A 
ATOM     20  C   UNL     1       5.301   3.474  13.923  0.00  0.00    +0.000 A 
BRANCH  15  22
ATOM     21  C   UNL     1       5.719   1.969  11.423  0.00  0.00    +0.000 C 
ATOM     22  O   UNL     1       6.050   3.342  11.591  0.00  0.00    +0.000 OA
ENDBRANCH  15  22
ENDBRANCH   1  18
BRANCH   2  23
ATOM     23  S   UNL     1       6.719   5.590  19.255  0.00  0.00    +0.000 S 
ATOM     24  H   UNL     1       5.734   5.002  19.948  0.00  0.00    +0.000 HD
ENDBRANCH   2  23
TORSDOF 4
ENDMDL
MODEL 4
REMARK VINA RESULT:      -6.9      1.384      2.606
REMARK  Name = 
REMARK  5 active torsions:
REMARK  status: ('A' for Active; 'I' for Inactive)
REMARK    1  A    between atoms: C_1  and  O_2
REMARK    2  A    between atoms: O_2  and  C_3
REMARK    3  A    between atoms: C_6  and  N_7
REMARK    4  A    between atoms: C_8  and  S_9
REMARK    5  A    between atoms: N_10  and  C_11
REMARK                            x       y       z     vdW  Elec       q    Type
REMARK                         _______ _______ _______ _____ _____    ______ ____
ROOT
ATOM      1  N   UNL     1       7.000   5.667  15.579  0.00  0.00    +0.000 N 
ATOM      2  C   UNL     1       6.288   5.575  16.750  0.00  0.00    +0.000 C 
ATOM      3  N   UNL     1       5.009   5.343  16.809  0.00  0.00    +0.000 NA
ATOM      4  H   UNL     1       7.958   5.981  15.666  0.00  0.00    +0.000 HD
ENDROOT
BRANCH   3   5
ATOM      5  C   UNL     1       4.209   5.285  17.972  0.00  0.00    +0.000 A 
ATOM      6  C   UNL     1       4.299   4.217  18.874  0.00  0.00    +0.000 A 
ATOM      7  C   UNL     1       3.499   4.144  20.013  0.00  0.00    +0.000 A 
ATOM      8  C   UNL     1       2.646   5.194  20.323  0.00  0.00    +0.000 A 
ATOM      9  C   UNL     1       2.613   6.336  19.513  0.00  0.00    +0.000 A 
ATOM     10  C   UNL     1       1.838   7.443  19.861  0.00  0.00    +0.000 A 
ATOM     11  N   UNL     1       1.784   8.596  19.160  0.00  0.00    +0.000 NA
ATOM     12  C   UNL     1       2.537   8.647  18.046  0.00  0.00    +0.000 A 
ATOM     13  C   UNL     1       3.329   7.598  17.592  0.00  0.00    +0.000 A 
ATOM     14  C   UNL     1       3.390   6.398  18.330  0.00  0.00    +0.000 A 
ENDBRANCH   3   5
BRANCH   1  18
ATOM     15  C   UNL     1       6.256   3.393  12.103  0.00  0.00    +0.000 A 
ATOM     16  C   UNL     1       5.380   3.352  13.188  0.00  0.00    +0.000 A 
ATOM     17  C   UNL     1       5.612   4.142  14.319  0.00  0.00    +0.000 A 
ATOM     18  C   UNL     1       6.743   4.961  14.395  0.00  0.00    +0.000 A 
ATOM     19  C   UNL     1       7.606   5.005  13.296  0.00  0.00    +0.000 A 
ATOM     20  C   UNL     1       7.367   4.231  12.156  0.00  0.00    +0.000 A 
BRANCH  15  22
ATOM     21  C   UNL     1       6.259   1.181  11.267  0.00  0.00    +0.000 C 
ATOM     22  O   UNL     1       5.943   2.554  11.071  0.00  0.00    +0.000 OA
ENDBRANCH  15  22
ENDBRANCH   1  18
BRANCH   2  23
ATOM     23  S   UNL     1       7.357   5.861  18.119  0.00  0.00    +0.000 S 
ATOM     24  H   UNL     1       6.442   6.506  18.855  0.00  0.00    +0.000 HD
ENDBRANCH   2  23
TORSDOF 4
ENDMDL
MODEL 5
REMARK VINA RESULT:      -6.8      5.280      7.903
REMARK  Name = 
REMARK  5 active torsions:
REMARK  status: ('A' for Active; 'I' for Inactive)
REMARK    1  A    between atoms: C_1  and  O_2
REMARK    2  A    between atoms: O_2  and  C_3
REMARK    3  A    between atoms: C_6  and  N_7
REMARK    4  A    between atoms: C_8  and  S_9
REMARK    5  A    between atoms: N_10  and  C_11
REMARK                            x       y       z     vdW  Elec       q    Type
REMARK                         _______ _______ _______ _____ _____    ______ ____
ROOT
ATOM      1  N   UNL     1       1.811   7.583  21.058  0.00  0.00    +0.000 N 
ATOM      2  C   UNL     1       1.205   8.785  20.785  0.00  0.00    +0.000 C 
ATOM      3  N   UNL     1       1.162   9.327  19.604  0.00  0.00    +0.000 NA
ATOM      4  H   UNL     1       1.890   7.338  22.037  0.00  0.00    +0.000 HD
ENDROOT
BRANCH   3   5
ATOM      5  C   UNL     1       0.600  10.578  19.263  0.00  0.00    +0.000 A 
ATOM      6  C   UNL     1       1.336  11.767  19.362  0.00  0.00    +0.000 A 
ATOM      7  C   UNL     1       0.783  13.006  19.046  0.00  0.00    +0.000 A 
ATOM      8  C   UNL     1      -0.505  13.073  18.533  0.00  0.00    +0.000 A 
ATOM      9  C   UNL     1      -1.233  11.899  18.303  0.00  0.00    +0.000 A 
ATOM     10  C   UNL     1      -2.489  11.938  17.695  0.00  0.00    +0.000 A 
ATOM     11  N   UNL     1      -3.235  10.851  17.400  0.00  0.00    +0.000 NA
ATOM     12  C   UNL     1      -2.705   9.661  17.735  0.00  0.00    +0.000 A 
ATOM     13  C   UNL     1      -1.475   9.505  18.364  0.00  0.00    +0.000 A 
ATOM     14  C   UNL     1      -0.694  10.639  18.664  0.00  0.00    +0.000 A 
ENDBRANCH   3   5
BRANCH   1  18
ATOM     15  C   UNL     1       1.959   4.352  18.349  0.00  0.00    +0.000 A 
ATOM     16  C   UNL     1       2.473   5.602  18.003  0.00  0.00    +0.000 A 
ATOM     17  C   UNL     1       2.459   6.655  18.923  0.00  0.00    +0.000 A 
ATOM     18  C   UNL     1       1.899   6.483  20.193  0.00  0.00    +0.000 A 
ATOM     19  C   UNL     1       1.400   5.222  20.532  0.00  0.00    +0.000 A 
ATOM     20  C   UNL     1       1.430   4.162  19.623  0.00  0.00    +0.000 A 
BRANCH  15  22
ATOM     21  C   UNL     1       2.543   2.149  17.719  0.00  0.00    +0.000 C 
ATOM     22  O   UNL     1       1.999   3.412  17.357  0.00  0.00    +0.000 OA
ENDBRANCH  15  22
ENDBRANCH   1  18
BRANCH   2  23
ATOM     23  S   UNL     1       0.554   9.472  22.269  0.00  0.00    +0.000 S 
ATOM     24  H   UNL     1       0.587   8.325  22.960  0.00  0.00    +0.000 HD
ENDBRANCH   2  23
TORSDOF 4
ENDMDL
MODEL 6
REMARK VINA RESULT:      -6.8      5.826      8.395
REMARK  Name = 
REMARK  5 active torsions:
REMARK  status: ('A' for Active; 'I' for Inactive)
REMARK    1  A    between atoms: C_1  and  O_2
REMARK    2  A    between atoms: O_2  and  C_3
REMARK    3  A    between atoms: C_6  and  N_7
REMARK    4  A    between atoms: C_8  and  S_9
REMARK    5  A    between atoms: N_10  and  C_11
REMARK                            x       y       z     vdW  Elec       q    Type
REMARK                         _______ _______ _______ _____ _____    ______ ____
ROOT
ATOM      1  N   UNL     1       2.287   8.795  18.097  0.00  0.00    +0.000 N 
ATOM      2  C   UNL     1       1.328   9.739  18.372  0.00  0.00    +0.000 C 
ATOM      3  N   UNL     1       0.100   9.458  18.694  0.00  0.00    +0.000 NA
ATOM      4  H   UNL     1       3.163   9.146  17.732  0.00  0.00    +0.000 HD
ENDROOT
BRANCH   3   5
ATOM      5  C   UNL     1      -0.946  10.376  18.941  0.00  0.00    +0.000 A 
ATOM      6  C   UNL     1      -0.914  11.251  20.035  0.00  0.00    +0.000 A 
ATOM      7  C   UNL     1      -1.952  12.145  20.295  0.00  0.00    +0.000 A 
ATOM      8  C   UNL     1      -3.011  12.247  19.404  0.00  0.00    +0.000 A 
ATOM      9  C   UNL     1      -3.022  11.478  18.234  0.00  0.00    +0.000 A 
ATOM     10  C   UNL     1      -4.026  11.638  17.277  0.00  0.00    +0.000 A 
ATOM     11  N   UNL     1      -4.087  10.969  16.106  0.00  0.00    +0.000 NA
ATOM     12  C   UNL     1      -3.097  10.087  15.877  0.00  0.00    +0.000 A 
ATOM     13  C   UNL     1      -2.061   9.830  16.767  0.00  0.00    +0.000 A 
ATOM     14  C   UNL     1      -1.995  10.535  17.986  0.00  0.00    +0.000 A 
ENDBRANCH   3   5
BRANCH   1  18
ATOM     15  C   UNL     1       2.454   4.912  19.739  0.00  0.00    +0.000 A 
ATOM     16  C   UNL     1       2.807   5.144  18.409  0.00  0.00    +0.000 A 
ATOM     17  C   UNL     1       2.790   6.440  17.886  0.00  0.00    +0.000 A 
ATOM     18  C   UNL     1       2.387   7.522  18.676  0.00  0.00    +0.000 A 
ATOM     19  C   UNL     1       2.050   7.278  20.011  0.00  0.00    +0.000 A 
ATOM     20  C   UNL     1       2.084   5.987  20.543  0.00  0.00    +0.000 A 
BRANCH  15  22
ATOM     21  C   UNL     1       2.030   3.336  21.450  0.00  0.00    +0.000 C 
ATOM     22  O   UNL     1       2.479   3.601  20.127  0.00  0.00    +0.000 OA
ENDBRANCH  15  22
ENDBRANCH   1  18
BRANCH   2  23
ATOM     23  S   UNL     1       2.008  11.351  18.175  0.00  0.00    +0.000 S 
ATOM     24  H   UNL     1       0.842  11.994  18.323  0.00  0.00    +0.000 HD
ENDBRANCH   2  23
TORSDOF 4
ENDMDL
MODEL 7
REMARK VINA RESULT:      -6.7      5.301      7.856
REMARK  Name = 
REMARK  5 active torsions:
REMARK  status: ('A' for Active; 'I' for Inactive)
REMARK    1  A    between atoms: C_1  and  O_2
REMARK    2  A    between atoms: O_2  and  C_3
REMARK    3  A    between atoms: C_6  and  N_7
REMARK    4  A    between atoms: C_8  and  S_9
REMARK    5  A    between atoms: N_10  and  C_11
REMARK                            x       y       z     vdW  Elec       q    Type
REMARK                         _______ _______ _______ _____ _____    ______ ____
ROOT
ATOM      1  N   UNL     1       1.842   7.527  21.058  0.00  0.00    +0.000 N 
ATOM      2  C   UNL     1       1.203   8.730  20.883  0.00  0.00    +0.000 C 
ATOM      3  N   UNL     1       1.121   9.353  19.743  0.00  0.00    +0.000 NA
ATOM      4  H   UNL     1       1.948   7.216  22.015  0.00  0.00    +0.000 HD
ENDROOT
BRANCH   3   5
ATOM      5  C   UNL     1       0.525  10.611  19.503  0.00  0.00    +0.000 A 
ATOM      6  C   UNL     1       1.204  11.809  19.763  0.00  0.00    +0.000 A 
ATOM      7  C   UNL     1       0.614  13.053  19.547  0.00  0.00    +0.000 A 
ATOM      8  C   UNL     1      -0.648  13.125  18.974  0.00  0.00    +0.000 A 
ATOM      9  C   UNL     1      -1.312  11.955  18.585  0.00  0.00    +0.000 A 
ATOM     10  C   UNL     1      -2.536  12.011  17.916  0.00  0.00    +0.000 A 
ATOM     11  N   UNL     1      -3.219  10.935  17.470  0.00  0.00    +0.000 NA
ATOM     12  C   UNL     1      -2.656   9.736  17.710  0.00  0.00    +0.000 A 
ATOM     13  C   UNL     1      -1.454   9.561  18.385  0.00  0.00    +0.000 A 
ATOM     14  C   UNL     1      -0.739  10.686  18.843  0.00  0.00    +0.000 A 
ENDBRANCH   3   5
BRANCH   1  18
ATOM     15  C   UNL     1       2.230   4.330  18.331  0.00  0.00    +0.000 A 
ATOM     16  C   UNL     1       1.587   4.154  19.556  0.00  0.00    +0.000 A 
ATOM     17  C   UNL     1       1.426   5.229  20.435  0.00  0.00    +0.000 A 
ATOM     18  C   UNL     1       1.934   6.492  20.116  0.00  0.00    +0.000 A 
ATOM     19  C   UNL     1       2.564   6.660  18.879  0.00  0.00    +0.000 A 
ATOM     20  C   UNL     1       2.710   5.592  17.989  0.00  0.00    +0.000 A 
BRANCH  15  22
ATOM     21  C   UNL     1       2.865   2.054  18.243  0.00  0.00    +0.000 C 
ATOM     22  O   UNL     1       2.357   3.201  17.572  0.00  0.00    +0.000 OA
ENDBRANCH  15  22
ENDBRANCH   1  18
BRANCH   2  23
ATOM     23  S   UNL     1       0.571   9.297  22.424  0.00  0.00    +0.000 S 
ATOM     24  H   UNL     1      -0.125  10.317  21.903  0.00  0.00    +0.000 HD
ENDBRANCH   2  23
TORSDOF 4
ENDMDL
MODEL 8
REMARK VINA RESULT:      -6.7      5.604      8.054
REMARK  Name = 
REMARK  5 active torsions:
REMARK  status: ('A' for Active; 'I' for Inactive)
REMARK    1  A    between atoms: C_1  and  O_2
REMARK    2  A    between atoms: O_2  and  C_3
REMARK    3  A    between atoms: C_6  and  N_7
REMARK    4  A    between atoms: C_8  and  S_9
REMARK    5  A    between atoms: N_10  and  C_11
REMARK                            x       y       z     vdW  Elec       q    Type
REMARK                         _______ _______ _______ _____ _____    ______ ____
ROOT
ATOM      1  N   UNL     1       1.827   8.080  20.992  0.00  0.00    +0.000 N 
ATOM      2  C   UNL     1       0.801   8.993  20.992  0.00  0.00    +0.000 C 
ATOM      3  N   UNL     1       0.279   9.503  19.915  0.00  0.00    +0.000 NA
ATOM      4  H   UNL     1       2.229   7.864  21.895  0.00  0.00    +0.000 HD
ENDROOT
BRANCH   3   5
ATOM      5  C   UNL     1      -0.740  10.479  19.844  0.00  0.00    +0.000 A 
ATOM      6  C   UNL     1      -0.865  11.484  20.813  0.00  0.00    +0.000 A 
ATOM      7  C   UNL     1      -1.879  12.438  20.759  0.00  0.00    +0.000 A 
ATOM      8  C   UNL     1      -2.745  12.460  19.675  0.00  0.00    +0.000 A 
ATOM      9  C   UNL     1      -2.581  11.550  18.624  0.00  0.00    +0.000 A 
ATOM     10  C   UNL     1      -3.376  11.621  17.479  0.00  0.00    +0.000 A 
ATOM     11  N   UNL     1      -3.254  10.810  16.406  0.00  0.00    +0.000 NA
ATOM     12  C   UNL     1      -2.291   9.873  16.479  0.00  0.00    +0.000 A 
ATOM     13  C   UNL     1      -1.456   9.698  17.576  0.00  0.00    +0.000 A 
ATOM     14  C   UNL     1      -1.581  10.549  18.692  0.00  0.00    +0.000 A 
ENDBRANCH   3   5
BRANCH   1  18
ATOM     15  C   UNL     1       2.659   5.054  18.171  0.00  0.00    +0.000 A 
ATOM     16  C   UNL     1       2.125   4.742  19.421  0.00  0.00    +0.000 A 
ATOM     17  C   UNL     1       1.812   5.754  20.333  0.00  0.00    +0.000 A 
ATOM     18  C   UNL     1       2.061   7.095  20.021  0.00  0.00    +0.000 A 
ATOM     19  C   UNL     1       2.584   7.396  18.760  0.00  0.00    +0.000 A 
ATOM     20  C   UNL     1       2.880   6.388  17.838  0.00  0.00    +0.000 A 
BRANCH  15  22
ATOM     21  C   UNL     1       2.424   2.730  17.804  0.00  0.00    +0.000 C 
ATOM     22  O   UNL     1       2.954   3.980  17.379  0.00  0.00    +0.000 OA
ENDBRANCH  15  22
ENDBRANCH   1  18
BRANCH   2  23
ATOM     23  S   UNL     1       0.354   9.383  22.649  0.00  0.00    +0.000 S 
ATOM     24  H   UNL     1       0.558   8.147  23.125  0.00  0.00    +0.000 HD
ENDBRANCH   2  23
TORSDOF 4
ENDMDL
MODEL 9
REMARK VINA RESULT:      -6.6      3.863      5.755
REMARK  Name = 
REMARK  5 active torsions:
REMARK  status: ('A' for Active; 'I' for Inactive)
REMARK    1  A    between atoms: C_1  and  O_2
REMARK    2  A    between atoms: O_2  and  C_3
REMARK    3  A    between atoms: C_6  and  N_7
REMARK    4  A    between atoms: C_8  and  S_9
REMARK    5  A    between atoms: N_10  and  C_11
REMARK                            x       y       z     vdW  Elec       q    Type
REMARK                         _______ _______ _______ _____ _____    ______ ____
ROOT
ATOM      1  N   UNL     1       3.561   5.405  19.806  0.00  0.00    +0.000 N 
ATOM      2  C   UNL     1       2.526   6.307  19.760  0.00  0.00    +0.000 C 
ATOM      3  N   UNL     1       2.632   7.515  19.288  0.00  0.00    +0.000 NA
ATOM      4  H   UNL     1       3.382   4.550  20.316  0.00  0.00    +0.000 HD
ENDROOT
BRANCH   3   5
ATOM      5  C   UNL     1       1.626   8.506  19.255  0.00  0.00    +0.000 A 
ATOM      6  C   UNL     1       0.969   8.850  18.066  0.00  0.00    +0.000 A 
ATOM      7  C   UNL     1      -0.010   9.840  18.023  0.00  0.00    +0.000 A 
ATOM      8  C   UNL     1      -0.421  10.452  19.199  0.00  0.00    +0.000 A 
ATOM      9  C   UNL     1       0.122  10.053  20.427  0.00  0.00    +0.000 A 
ATOM     10  C   UNL     1      -0.350  10.583  21.629  0.00  0.00    +0.000 A 
ATOM     11  N   UNL     1       0.089  10.222  22.854  0.00  0.00    +0.000 NA
ATOM     12  C   UNL     1       1.056   9.286  22.884  0.00  0.00    +0.000 A 
ATOM     13  C   UNL     1       1.615   8.706  21.750  0.00  0.00    +0.000 A 
ATOM     14  C   UNL     1       1.150   9.079  20.473  0.00  0.00    +0.000 A 
ENDBRANCH   3   5
BRANCH   1  18
ATOM     15  C   UNL     1       6.685   4.923  17.011  0.00  0.00    +0.000 A 
ATOM     16  C   UNL     1       5.350   4.821  16.620  0.00  0.00    +0.000 A 
ATOM     17  C   UNL     1       4.320   5.025  17.544  0.00  0.00    +0.000 A 
ATOM     18  C   UNL     1       4.612   5.302  18.883  0.00  0.00    +0.000 A 
ATOM     19  C   UNL     1       5.953   5.415  19.261  0.00  0.00    +0.000 A 
ATOM     20  C   UNL     1       6.984   5.231  18.336  0.00  0.00    +0.000 A 
BRANCH  15  22
ATOM     21  C   UNL     1       7.134   4.814  14.692  0.00  0.00    +0.000 C 
ATOM     22  O   UNL     1       7.600   4.671  16.028  0.00  0.00    +0.000 OA
ENDBRANCH  15  22
ENDBRANCH   1  18
BRANCH   2  23
ATOM     23  S   UNL     1       1.083   5.592  20.470  0.00  0.00    +0.000 S 
ATOM     24  H   UNL     1       0.497   5.310  19.298  0.00  0.00    +0.000 HD
ENDBRANCH   2  23
TORSDOF 4
ENDMDL
