MODEL 1
REMARK VINA RESULT:      -8.6      0.000      0.000
REMARK  Name = 
REMARK  4 active torsions:
REMARK  status: ('A' for Active; 'I' for Inactive)
REMARK    1  A    between atoms: C_1  and  C_2
REMARK    2  A    between atoms: C_6  and  N_7
REMARK    3  A    between atoms: C_8  and  O_10
REMARK    4  A    between atoms: O_10  and  C_11
REMARK                            x       y       z     vdW  Elec       q    Type
REMARK                         _______ _______ _______ _____ _____    ______ ____
ROOT
ATOM      1  N   UNL     1       6.332   3.928  16.214  0.00  0.00    +0.000 N 
ATOM      2  C   UNL     1       6.854   4.643  17.266  0.00  0.00    +0.000 C 
ATOM      3  O   UNL     1       7.739   5.489  17.227  0.00  0.00    +0.000 OA
ATOM      4  H   UNL     1       5.601   3.283  16.479  0.00  0.00    +0.000 HD
ENDROOT
BRANCH   1  10
ATOM      5  C   UNL     1       5.074   2.803  11.578  0.00  0.00    +0.000 C 
ATOM      6  C   UNL     1       5.946   3.559  12.540  0.00  0.00    +0.000 A 
ATOM      7  C   UNL     1       6.948   4.410  12.066  0.00  0.00    +0.000 A 
ATOM      8  C   UNL     1       7.751   5.111  12.963  0.00  0.00    +0.000 A 
ATOM      9  C   UNL     1       7.567   4.962  14.340  0.00  0.00    +0.000 A 
ATOM     10  C   UNL     1       6.581   4.111  14.838  0.00  0.00    +0.000 A 
ATOM     11  C   UNL     1       5.767   3.417  13.927  0.00  0.00    +0.000 A 
ENDBRANCH   1  10
BRANCH   2  12
ATOM     12  O   UNL     1       6.129   4.341  18.412  0.00  0.00    +0.000 OA
BRANCH  12  13
ATOM     13  C   UNL     1       4.807   4.843  18.380  0.00  0.00    +0.000 A 
ATOM     14  C   UNL     1       4.623   6.215  18.127  0.00  0.00    +0.000 A 
ATOM     15  C   UNL     1       3.346   6.734  18.003  0.00  0.00    +0.000 A 
ATOM     16  C   UNL     1       2.256   5.880  18.103  0.00  0.00    +0.000 A 
ATOM     17  C   UNL     1       2.436   4.503  18.327  0.00  0.00    +0.000 A 
ATOM     18  C   UNL     1       1.324   3.656  18.398  0.00  0.00    +0.000 A 
ATOM     19  C   UNL     1       1.500   2.297  18.609  0.00  0.00    +0.000 A 
ATOM     20  C   UNL     1       2.793   1.831  18.745  0.00  0.00    +0.000 A 
ATOM     21  N   UNL     1       3.896   2.614  18.674  0.00  0.00    +0.000 NA
ATOM     22  C   UNL     1       3.732   3.947  18.472  0.00  0.00    +0.000 A 
ENDBRANCH  12  13
ENDBRANCH   2  12
TORSDOF 3
ENDMDL
MODEL 2
REMARK VINA RESULT:      -8.3      3.089      6.984
REMARK  Name = 
REMARK  4 active torsions:
REMARK  status: ('A' for Active; 'I' for Inactive)
REMARK    1  A    between atoms: C_1  and  C_2
REMARK    2  A    between atoms: C_6  and  N_7
REMARK    3  A    between atoms: C_8  and  O_10
REMARK    4  A    between atoms: O_10  and  C_11
REMARK                            x       y       z     vdW  Elec       q    Type
REMARK                         _______ _______ _______ _____ _____    ______ ____
ROOT
ATOM      1  N   UNL     1       2.829   6.362  20.086  0.00  0.00    +0.000 N 
ATOM      2  C   UNL     1       2.314   5.123  20.386  0.00  0.00    +0.000 C 
ATOM      3  O   UNL     1       1.139   4.827  20.563  0.00  0.00    +0.000 OA
ATOM      4  H   UNL     1       3.834   6.373  19.978  0.00  0.00    +0.000 HD
ENDROOT
BRANCH   1  10
ATOM      5  C   UNL     1      -0.078  10.027  21.650  0.00  0.00    +0.000 C 
ATOM      6  C   UNL     1       0.686   9.359  20.543  0.00  0.00    +0.000 A 
ATOM      7  C   UNL     1       0.688   9.904  19.257  0.00  0.00    +0.000 A 
ATOM      8  C   UNL     1       1.402   9.281  18.235  0.00  0.00    +0.000 A 
ATOM      9  C   UNL     1       2.114   8.105  18.487  0.00  0.00    +0.000 A 
ATOM     10  C   UNL     1       2.120   7.536  19.761  0.00  0.00    +0.000 A 
ATOM     11  C   UNL     1       1.407   8.177  20.788  0.00  0.00    +0.000 A 
ENDBRANCH   1  10
BRANCH   2  12
ATOM     12  O   UNL     1       3.344   4.191  20.348  0.00  0.00    +0.000 OA
BRANCH  12  13
ATOM     13  C   UNL     1       3.900   4.032  19.056  0.00  0.00    +0.000 A 
ATOM     14  C   UNL     1       3.088   3.481  18.048  0.00  0.00    +0.000 A 
ATOM     15  C   UNL     1       3.562   3.384  16.750  0.00  0.00    +0.000 A 
ATOM     16  C   UNL     1       4.831   3.862  16.455  0.00  0.00    +0.000 A 
ATOM     17  C   UNL     1       5.635   4.440  17.456  0.00  0.00    +0.000 A 
ATOM     18  C   UNL     1       6.901   4.940  17.131  0.00  0.00    +0.000 A 
ATOM     19  C   UNL     1       7.691   5.518  18.113  0.00  0.00    +0.000 A 
ATOM     20  C   UNL     1       7.181   5.575  19.395  0.00  0.00    +0.000 A 
ATOM     21  N   UNL     1       5.959   5.112  19.750  0.00  0.00    +0.000 NA
ATOM     22  C   UNL     1       5.181   4.539  18.794  0.00  0.00    +0.000 A 
ENDBRANCH  12  13
ENDBRANCH   2  12
TORSDOF 3
ENDMDL
MODEL 3
REMARK VINA RESULT:      -8.2      1.493      2.387
REMARK  Name = 
REMARK  4 active torsions:
REMARK  status: ('A' for Active; 'I' for Inactive)
REMARK    1  A    between atoms: C_1  and  C_2
REMARK    2  A    between atoms: C_6  and  N_7
REMARK    3  A    between atoms: C_8  and  O_10
REMARK    4  A    between atoms: O_10  and  C_11
REMARK                            x       y       z     vdW  Elec       q    Type
REMARK                         _______ _______ _______ _____ _____    ______ ____
ROOT
ATOM      1  N   UNL     1       6.416   4.392  16.023  0.00  0.00    +0.000 N 
ATOM      2  C   UNL     1       5.459   5.105  16.705  0.00  0.00    +0.000 C 
ATOM      3  O   UNL     1       4.729   5.985  16.265  0.00  0.00    +0.000 OA
ATOM      4  H   UNL     1       6.898   3.707  16.588  0.00  0.00    +0.000 HD
ENDROOT
BRANCH   1  10
ATOM      5  C   UNL     1       5.270   2.568  11.584  0.00  0.00    +0.000 C 
ATOM      6  C   UNL     1       6.090   3.496  12.434  0.00  0.00    +0.000 A 
ATOM      7  C   UNL     1       7.050   4.326  11.850  0.00  0.00    +0.000 A 
ATOM      8  C   UNL     1       7.805   5.187  12.643  0.00  0.00    +0.000 A 
ATOM      9  C   UNL     1       7.614   5.221  14.027  0.00  0.00    +0.000 A 
ATOM     10  C   UNL     1       6.669   4.395  14.636  0.00  0.00    +0.000 A 
ATOM     11  C   UNL     1       5.904   3.538  13.827  0.00  0.00    +0.000 A 
ENDBRANCH   1  10
BRANCH   2  12
ATOM     12  O   UNL     1       5.353   4.590  17.991  0.00  0.00    +0.000 OA
BRANCH  12  13
ATOM     13  C   UNL     1       4.134   3.907  18.216  0.00  0.00    +0.000 A 
ATOM     14  C   UNL     1       3.999   2.604  17.701  0.00  0.00    +0.000 A 
ATOM     15  C   UNL     1       2.858   1.866  17.968  0.00  0.00    +0.000 A 
ATOM     16  C   UNL     1       1.868   2.417  18.770  0.00  0.00    +0.000 A 
ATOM     17  C   UNL     1       2.012   3.709  19.310  0.00  0.00    +0.000 A 
ATOM     18  C   UNL     1       1.014   4.234  20.138  0.00  0.00    +0.000 A 
ATOM     19  C   UNL     1       1.158   5.503  20.678  0.00  0.00    +0.000 A 
ATOM     20  C   UNL     1       2.306   6.206  20.368  0.00  0.00    +0.000 A 
ATOM     21  N   UNL     1       3.299   5.731  19.579  0.00  0.00    +0.000 NA
ATOM     22  C   UNL     1       3.163   4.491  19.042  0.00  0.00    +0.000 A 
ENDBRANCH  12  13
ENDBRANCH   2  12
TORSDOF 3
ENDMDL
MODEL 4
REMARK VINA RESULT:      -8.0      1.002      1.051
REMARK  Name = 
REMARK  4 active torsions:
REMARK  status: ('A' for Active; 'I' for Inactive)
REMARK    1  A    between atoms: C_1  and  C_2
REMARK    2  A    between atoms: C_6  and  N_7
REMARK    3  A    between atoms: C_8  and  O_10
REMARK    4  A    between atoms: O_10  and  C_11
REMARK                            x       y       z     vdW  Elec       q    Type
REMARK                         _______ _______ _______ _____ _____    ______ ____
ROOT
ATOM      1  N   UNL     1       6.437   4.903  15.948  0.00  0.00    +0.000 N 
ATOM      2  C   UNL     1       6.136   6.070  16.611  0.00  0.00    +0.000 C 
ATOM      3  O   UNL     1       6.104   7.203  16.149  0.00  0.00    +0.000 OA
ATOM      4  H   UNL     1       6.397   4.078  16.531  0.00  0.00    +0.000 HD
ENDROOT
BRANCH   1  10
ATOM      5  C   UNL     1       4.680   3.046  11.729  0.00  0.00    +0.000 C 
ATOM      6  C   UNL     1       5.741   3.808  12.469  0.00  0.00    +0.000 A 
ATOM      7  C   UNL     1       6.852   4.315  11.789  0.00  0.00    +0.000 A 
ATOM      8  C   UNL     1       7.831   5.023  12.481  0.00  0.00    +0.000 A 
ATOM      9  C   UNL     1       7.716   5.225  13.859  0.00  0.00    +0.000 A 
ATOM     10  C   UNL     1       6.622   4.721  14.563  0.00  0.00    +0.000 A 
ATOM     11  C   UNL     1       5.632   4.018  13.856  0.00  0.00    +0.000 A 
ENDBRANCH   1  10
BRANCH   2  12
ATOM     12  O   UNL     1       5.748   5.757  17.908  0.00  0.00    +0.000 OA
BRANCH  12  13
ATOM     13  C   UNL     1       4.343   5.743  18.078  0.00  0.00    +0.000 A 
ATOM     14  C   UNL     1       3.667   6.978  18.113  0.00  0.00    +0.000 A 
ATOM     15  C   UNL     1       2.285   7.011  18.193  0.00  0.00    +0.000 A 
ATOM     16  C   UNL     1       1.579   5.816  18.210  0.00  0.00    +0.000 A 
ATOM     17  C   UNL     1       2.250   4.581  18.148  0.00  0.00    +0.000 A 
ATOM     18  C   UNL     1       1.517   3.388  18.139  0.00  0.00    +0.000 A 
ATOM     19  C   UNL     1       2.175   2.171  18.068  0.00  0.00    +0.000 A 
ATOM     20  C   UNL     1       3.555   2.189  18.007  0.00  0.00    +0.000 A 
ATOM     21  N   UNL     1       4.301   3.320  18.004  0.00  0.00    +0.000 NA
ATOM     22  C   UNL     1       3.664   4.517  18.079  0.00  0.00    +0.000 A 
ENDBRANCH  12  13
ENDBRANCH   2  12
TORSDOF 3
ENDMDL
MODEL 5
REMARK VINA RESULT:      -8.0      4.747      7.047
REMARK  Name = 
REMARK  4 active torsions:
REMARK  status: ('A' for Active; 'I' for Inactive)
REMARK    1  A    between atoms: C_1  and  C_2
REMARK    2  A    between atoms: C_6  and  N_7
REMARK    3  A    between atoms: C_8  and  O_10
REMARK    4  A    between atoms: O_10  and  C_11
REMARK                            x       y       z     vdW  Elec       q    Type
REMARK                         _______ _______ _______ _____ _____    ______ ____
ROOT
ATOM      1  N   UNL     1       8.867   8.614  18.974  0.00  0.00    +0.000 N 
ATOM      2  C   UNL     1       8.002   7.963  18.126  0.00  0.00    +0.000 C 
ATOM      3  O   UNL     1       7.201   8.465  17.347  0.00  0.00    +0.000 OA
ATOM      4  H   UNL     1       9.443   7.994  19.526  0.00  0.00    +0.000 HD
ENDROOT
BRANCH   1  10
ATOM      5  C   UNL     1       9.596  12.592  21.798  0.00  0.00    +0.000 C 
ATOM      6  C   UNL     1       9.515  11.964  20.436  0.00  0.00    +0.000 A 
ATOM      7  C   UNL     1       9.719  12.736  19.290  0.00  0.00    +0.000 A 
ATOM      8  C   UNL     1       9.646  12.146  18.029  0.00  0.00    +0.000 A 
ATOM      9  C   UNL     1       9.361  10.784  17.902  0.00  0.00    +0.000 A 
ATOM     10  C   UNL     1       9.143   9.995  19.031  0.00  0.00    +0.000 A 
ATOM     11  C   UNL     1       9.230  10.594  20.299  0.00  0.00    +0.000 A 
ENDBRANCH   1  10
BRANCH   2  12
ATOM     12  O   UNL     1       8.252   6.598  18.197  0.00  0.00    +0.000 OA
BRANCH  12  13
ATOM     13  C   UNL     1       7.080   5.813  18.085  0.00  0.00    +0.000 A 
ATOM     14  C   UNL     1       6.253   5.690  19.217  0.00  0.00    +0.000 A 
ATOM     15  C   UNL     1       5.055   5.002  19.131  0.00  0.00    +0.000 A 
ATOM     16  C   UNL     1       4.670   4.462  17.911  0.00  0.00    +0.000 A 
ATOM     17  C   UNL     1       5.481   4.608  16.770  0.00  0.00    +0.000 A 
ATOM     18  C   UNL     1       5.062   4.080  15.544  0.00  0.00    +0.000 A 
ATOM     19  C   UNL     1       5.854   4.230  14.416  0.00  0.00    +0.000 A 
ATOM     20  C   UNL     1       7.049   4.908  14.558  0.00  0.00    +0.000 A 
ATOM     21  N   UNL     1       7.488   5.442  15.723  0.00  0.00    +0.000 NA
ATOM     22  C   UNL     1       6.719   5.295  16.833  0.00  0.00    +0.000 A 
ENDBRANCH  12  13
ENDBRANCH   2  12
TORSDOF 3
ENDMDL
MODEL 6
REMARK VINA RESULT:      -7.9      3.078      6.860
REMARK  Name = 
REMARK  4 active torsions:
REMARK  status: ('A' for Active; 'I' for Inactive)
REMARK    1  A    between atoms: C_1  and  C_2
REMARK    2  A    between atoms: C_6  and  N_7
REMARK    3  A    between atoms: C_8  and  O_10
REMARK    4  A    between atoms: O_10  and  C_11
REMARK                            x       y       z     vdW  Elec       q    Type
REMARK                         _______ _______ _______ _____ _____    ______ ____
ROOT
ATOM      1  N   UNL     1       2.766   6.059  20.458  0.00  0.00    +0.000 N 
ATOM      2  C   UNL     1       2.293   4.768  20.506  0.00  0.00    +0.000 C 
ATOM      3  O   UNL     1       1.127   4.404  20.594  0.00  0.00    +0.000 OA
ATOM      4  H   UNL     1       3.772   6.124  20.380  0.00  0.00    +0.000 HD
ENDROOT
BRANCH   1  10
ATOM      5  C   UNL     1       1.596   9.973  17.693  0.00  0.00    +0.000 C 
ATOM      6  C   UNL     1       1.432   9.183  18.959  0.00  0.00    +0.000 A 
ATOM      7  C   UNL     1       0.560   9.623  19.959  0.00  0.00    +0.000 A 
ATOM      8  C   UNL     1       0.411   8.884  21.130  0.00  0.00    +0.000 A 
ATOM      9  C   UNL     1       1.134   7.703  21.318  0.00  0.00    +0.000 A 
ATOM     10  C   UNL     1       2.018   7.248  20.339  0.00  0.00    +0.000 A 
ATOM     11  C   UNL     1       2.155   7.993  19.156  0.00  0.00    +0.000 A 
ENDBRANCH   1  10
BRANCH   2  12
ATOM     12  O   UNL     1       3.359   3.896  20.322  0.00  0.00    +0.000 OA
BRANCH  12  13
ATOM     13  C   UNL     1       3.869   3.915  19.003  0.00  0.00    +0.000 A 
ATOM     14  C   UNL     1       3.043   3.446  17.965  0.00  0.00    +0.000 A 
ATOM     15  C   UNL     1       3.467   3.523  16.650  0.00  0.00    +0.000 A 
ATOM     16  C   UNL     1       4.701   4.094  16.369  0.00  0.00    +0.000 A 
ATOM     17  C   UNL     1       5.518   4.590  17.402  0.00  0.00    +0.000 A 
ATOM     18  C   UNL     1       6.747   5.186  17.095  0.00  0.00    +0.000 A 
ATOM     19  C   UNL     1       7.549   5.684  18.109  0.00  0.00    +0.000 A 
ATOM     20  C   UNL     1       7.089   5.567  19.406  0.00  0.00    +0.000 A 
ATOM     21  N   UNL     1       5.904   5.006  19.746  0.00  0.00    +0.000 NA
ATOM     22  C   UNL     1       5.115   4.511  18.758  0.00  0.00    +0.000 A 
ENDBRANCH  12  13
ENDBRANCH   2  12
TORSDOF 3
ENDMDL
MODEL 7
REMARK VINA RESULT:      -7.9      1.343      2.525
REMARK  Name = 
REMARK  4 active torsions:
REMARK  status: ('A' for Active; 'I' for Inactive)
REMARK    1  A    between atoms: C_1  and  C_2
REMARK    2  A    between atoms: C_6  and  N_7
REMARK    3  A    between atoms: C_8  and  O_10
REMARK    4  A    between atoms: O_10  and  C_11
REMARK                            x       y       z     vdW  Elec       q    Type
REMARK                         _______ _______ _______ _____ _____    ______ ____
ROOT
ATOM      1  N   UNL     1       6.292   4.931  15.947  0.00  0.00    +0.000 N 
ATOM      2  C   UNL     1       7.087   4.698  17.046  0.00  0.00    +0.000 C 
ATOM      3  O   UNL     1       8.178   4.142  17.072  0.00  0.00    +0.000 OA
ATOM      4  H   UNL     1       5.430   5.412  16.160  0.00  0.00    +0.000 HD
ENDROOT
BRANCH   1  10
ATOM      5  C   UNL     1       5.315   2.513  11.760  0.00  0.00    +0.000 C 
ATOM      6  C   UNL     1       6.120   3.534  12.511  0.00  0.00    +0.000 A 
ATOM      7  C   UNL     1       7.134   4.248  11.868  0.00  0.00    +0.000 A 
ATOM      8  C   UNL     1       7.874   5.196  12.570  0.00  0.00    +0.000 A 
ATOM      9  C   UNL     1       7.615   5.435  13.922  0.00  0.00    +0.000 A 
ATOM     10  C   UNL     1       6.615   4.728  14.590  0.00  0.00    +0.000 A 
ATOM     11  C   UNL     1       5.865   3.782  13.872  0.00  0.00    +0.000 A 
ENDBRANCH   1  10
BRANCH   2  12
ATOM     12  O   UNL     1       6.506   5.306  18.152  0.00  0.00    +0.000 OA
BRANCH  12  13
ATOM     13  C   UNL     1       5.157   4.927  18.348  0.00  0.00    +0.000 A 
ATOM     14  C   UNL     1       4.896   3.636  18.843  0.00  0.00    +0.000 A 
ATOM     15  C   UNL     1       3.597   3.251  19.129  0.00  0.00    +0.000 A 
ATOM     16  C   UNL     1       2.565   4.163  18.950  0.00  0.00    +0.000 A 
ATOM     17  C   UNL     1       2.827   5.464  18.482  0.00  0.00    +0.000 A 
ATOM     18  C   UNL     1       1.775   6.376  18.334  0.00  0.00    +0.000 A 
ATOM     19  C   UNL     1       2.031   7.662  17.882  0.00  0.00    +0.000 A 
ATOM     20  C   UNL     1       3.340   7.991  17.593  0.00  0.00    +0.000 A 
ATOM     21  N   UNL     1       4.387   7.143  17.731  0.00  0.00    +0.000 NA
ATOM     22  C   UNL     1       4.144   5.880  18.168  0.00  0.00    +0.000 A 
ENDBRANCH  12  13
ENDBRANCH   2  12
TORSDOF 3
ENDMDL
MODEL 8
REMARK VINA RESULT:      -7.8      0.359      1.524
REMARK  Name = 
REMARK  4 active torsions:
REMARK  status: ('A' for Active; 'I' for Inactive)
REMARK    1  A    between atoms: C_1  and  C_2
REMARK    2  A    between atoms: C_6  and  N_7
REMARK    3  A    between atoms: C_8  and  O_10
REMARK    4  A    between atoms: O_10  and  C_11
REMARK                            x       y       z     vdW  Elec       q    Type
REMARK                         _______ _______ _______ _____ _____    ______ ____
ROOT
ATOM      1  N   UNL     1       6.222   3.846  16.067  0.00  0.00    +0.000 N 
ATOM      2  C   UNL     1       6.744   4.606  17.087  0.00  0.00    +0.000 C 
ATOM      3  O   UNL     1       7.600   5.479  17.005  0.00  0.00    +0.000 OA
ATOM      4  H   UNL     1       5.519   3.185  16.367  0.00  0.00    +0.000 HD
ENDROOT
BRANCH   1  10
ATOM      5  C   UNL     1       8.733   6.104  12.471  0.00  0.00    +0.000 C 
ATOM      6  C   UNL     1       7.687   5.115  12.900  0.00  0.00    +0.000 A 
ATOM      7  C   UNL     1       6.973   4.383  11.948  0.00  0.00    +0.000 A 
ATOM      8  C   UNL     1       6.006   3.466  12.354  0.00  0.00    +0.000 A 
ATOM      9  C   UNL     1       5.739   3.275  13.712  0.00  0.00    +0.000 A 
ATOM     10  C   UNL     1       6.431   4.001  14.681  0.00  0.00    +0.000 A 
ATOM     11  C   UNL     1       7.413   4.916  14.265  0.00  0.00    +0.000 A 
ENDBRANCH   1  10
BRANCH   2  12
ATOM     12  O   UNL     1       6.058   4.311  18.258  0.00  0.00    +0.000 OA
BRANCH  12  13
ATOM     13  C   UNL     1       4.741   4.830  18.275  0.00  0.00    +0.000 A 
ATOM     14  C   UNL     1       4.565   6.200  18.004  0.00  0.00    +0.000 A 
ATOM     15  C   UNL     1       3.291   6.735  17.927  0.00  0.00    +0.000 A 
ATOM     16  C   UNL     1       2.195   5.898  18.091  0.00  0.00    +0.000 A 
ATOM     17  C   UNL     1       2.367   4.523  18.334  0.00  0.00    +0.000 A 
ATOM     18  C   UNL     1       1.248   3.693  18.471  0.00  0.00    +0.000 A 
ATOM     19  C   UNL     1       1.415   2.337  18.701  0.00  0.00    +0.000 A 
ATOM     20  C   UNL     1       2.706   1.855  18.787  0.00  0.00    +0.000 A 
ATOM     21  N   UNL     1       3.815   2.621  18.653  0.00  0.00    +0.000 NA
ATOM     22  C   UNL     1       3.660   3.952  18.432  0.00  0.00    +0.000 A 
ENDBRANCH  12  13
ENDBRANCH   2  12
TORSDOF 3
ENDMDL
MODEL 9
REMARK VINA RESULT:      -7.8      2.716      6.753
REMARK  Name = 
REMARK  4 active torsions:
REMARK  status: ('A' for Active; 'I' for Inactive)
REMARK    1  A    between atoms: C_1  and  C_2
REMARK    2  A    between atoms: C_6  and  N_7
REMARK    3  A    between atoms: C_8  and  O_10
REMARK    4  A    between atoms: O_10  and  C_11
REMARK                            x       y       z     vdW  Elec       q    Type
REMARK                         _______ _______ _______ _____ _____    ______ ____
ROOT
ATOM      1  N   UNL     1       2.988   5.741  18.982  0.00  0.00    +0.000 N 
ATOM      2  C   UNL     1       2.567   4.647  18.263  0.00  0.00    +0.000 C 
ATOM      3  O   UNL     1       1.493   4.497  17.694  0.00  0.00    +0.000 OA
ATOM      4  H   UNL     1       3.920   5.647  19.363  0.00  0.00    +0.000 HD
ENDROOT
BRANCH   1  10
ATOM      5  C   UNL     1       0.680   8.976  21.905  0.00  0.00    +0.000 C 
ATOM      6  C   UNL     1       1.219   8.601  20.554  0.00  0.00    +0.000 A 
ATOM      7  C   UNL     1       1.093   9.480  19.475  0.00  0.00    +0.000 A 
ATOM      8  C   UNL     1       1.597   9.128  18.225  0.00  0.00    +0.000 A 
ATOM      9  C   UNL     1       2.224   7.893  18.039  0.00  0.00    +0.000 A 
ATOM     10  C   UNL     1       2.353   6.994  19.098  0.00  0.00    +0.000 A 
ATOM     11  C   UNL     1       1.853   7.361  20.358  0.00  0.00    +0.000 A 
ENDBRANCH   1  10
BRANCH   2  12
ATOM     12  O   UNL     1       3.616   3.741  18.175  0.00  0.00    +0.000 OA
BRANCH  12  13
ATOM     13  C   UNL     1       4.669   4.192  17.344  0.00  0.00    +0.000 A 
ATOM     14  C   UNL     1       4.500   4.099  15.950  0.00  0.00    +0.000 A 
ATOM     15  C   UNL     1       5.468   4.604  15.098  0.00  0.00    +0.000 A 
ATOM     16  C   UNL     1       6.586   5.226  15.636  0.00  0.00    +0.000 A 
ATOM     17  C   UNL     1       6.745   5.346  17.029  0.00  0.00    +0.000 A 
ATOM     18  C   UNL     1       7.867   6.000  17.550  0.00  0.00    +0.000 A 
ATOM     19  C   UNL     1       8.021   6.128  18.922  0.00  0.00    +0.000 A 
ATOM     20  C   UNL     1       7.038   5.591  19.730  0.00  0.00    +0.000 A 
ATOM     21  N   UNL     1       5.932   4.959  19.267  0.00  0.00    +0.000 NA
ATOM     22  C   UNL     1       5.777   4.825  17.925  0.00  0.00    +0.000 A 
ENDBRANCH  12  13
ENDBRANCH   2  12
TORSDOF 3
ENDMDL
