MODEL 1
REMARK VINA RESULT:      -6.5      0.000      0.000
REMARK  Name = 
REMARK  9 active torsions:
REMARK  status: ('A' for Active; 'I' for Inactive)
REMARK    1  A    between atoms: C_1  and  C_2
REMARK    2  A    between atoms: N_4  and  C_5
REMARK    3  A    between atoms: C_6  and  C_7
REMARK    4  A    between atoms: C_8  and  S_9
REMARK    5  A    between atoms: S_9  and  N_12
REMARK    6  A    between atoms: C_15  and  C_16
REMARK    7  A    between atoms: C_15  and  C_18
REMARK    8  A    between atoms: C_16  and  O_17
REMARK    9  A    between atoms: C_18  and  C_19
REMARK                            x       y       z     vdW  Elec       q    Type
REMARK                         _______ _______ _______ _____ _____    ______ ____
ROOT
ATOM      1  N   UNL     1       1.143   8.792  19.523  0.00  0.00    +0.000 NA
ATOM      2  C   UNL     1       1.623   8.404  18.181  0.00  0.00    +0.000 C 
ATOM      3  C   UNL     1       1.511   6.899  17.952  0.00  0.00    +0.000 C 
ATOM      4  C   UNL     1       2.208   6.058  19.051  0.00  0.00    +0.000 C 
ATOM      5  C   UNL     1       1.539   6.467  20.381  0.00  0.00    +0.000 C 
ATOM      6  C   UNL     1       1.579   7.967  20.669  0.00  0.00    +0.000 C 
ENDROOT
BRANCH   1   7
ATOM      7  S   UNL     1       1.065  10.477  19.825  0.00  0.00    +0.000 S 
ATOM      8  O   UNL     1       1.748  11.142  18.732  0.00  0.00    +0.000 OA
ATOM      9  O   UNL     1       1.459  10.709  21.198  0.00  0.00    +0.000 OA
BRANCH   7  17
ATOM     10  C   UNL     1      -1.366  10.007  17.450  0.00  0.00    +0.000 C 
ATOM     11  C   UNL     1      -1.497  10.813  18.691  0.00  0.00    +0.000 A 
ATOM     12  N   UNL     1      -2.656  11.445  18.911  0.00  0.00    +0.000 NA
ATOM     13  N   UNL     1      -2.449  12.162  20.025  0.00  0.00    +0.000 N 
ATOM     14  C   UNL     1      -3.483  13.080  20.451  0.00  0.00    +0.000 C 
ATOM     15  C   UNL     1      -1.223  11.936  20.603  0.00  0.00    +0.000 A 
ATOM     16  C   UNL     1      -0.780  12.603  21.853  0.00  0.00    +0.000 C 
ATOM     17  C   UNL     1      -0.569  11.064  19.736  0.00  0.00    +0.000 A 
ENDBRANCH   7  17
ENDBRANCH   1   7
BRANCH   4  18
ATOM     18  C   UNL     1       1.914   4.559  18.786  0.00  0.00    +0.000 C 
BRANCH  18  19
ATOM     19  O   UNL     1       1.303   4.364  17.515  0.00  0.00    +0.000 OA
ATOM     20  H   UNL     1       0.370   4.630  17.592  0.00  0.00    +0.000 HD
ENDBRANCH  18  19
ENDBRANCH   4  18
BRANCH   4  21
ATOM     21  C   UNL     1       3.748   6.330  19.026  0.00  0.00    +0.000 C 
BRANCH  21  22
ATOM     22  C   UNL     1       4.507   5.847  17.806  0.00  0.00    +0.000 A 
ATOM     23  C   UNL     1       4.715   6.697  16.709  0.00  0.00    +0.000 A 
ATOM     24  C   UNL     1       5.395   6.247  15.575  0.00  0.00    +0.000 A 
ATOM     25  C   UNL     1       5.884   4.945  15.533  0.00  0.00    +0.000 A 
ATOM     26 CL   UNL     1       6.708   4.381  14.133  0.00  0.00    +0.000 Cl
ATOM     27  C   UNL     1       5.710   4.095  16.622  0.00  0.00    +0.000 A 
ATOM     28  C   UNL     1       5.029   4.546  17.755  0.00  0.00    +0.000 A 
ENDBRANCH  21  22
ENDBRANCH   4  21
TORSDOF 6
ENDMDL
MODEL 2
REMARK VINA RESULT:      -6.5      0.603      1.914
REMARK  Name = 
REMARK  9 active torsions:
REMARK  status: ('A' for Active; 'I' for Inactive)
REMARK    1  A    between atoms: C_1  and  C_2
REMARK    2  A    between atoms: N_4  and  C_5
REMARK    3  A    between atoms: C_6  and  C_7
REMARK    4  A    between atoms: C_8  and  S_9
REMARK    5  A    between atoms: S_9  and  N_12
REMARK    6  A    between atoms: C_15  and  C_16
REMARK    7  A    between atoms: C_15  and  C_18
REMARK    8  A    between atoms: C_16  and  O_17
REMARK    9  A    between atoms: C_18  and  C_19
REMARK                            x       y       z     vdW  Elec       q    Type
REMARK                         _______ _______ _______ _____ _____    ______ ____
ROOT
ATOM      1  N   UNL     1       1.176   8.997  19.567  0.00  0.00    +0.000 NA
ATOM      2  C   UNL     1       1.723   8.612  18.250  0.00  0.00    +0.000 C 
ATOM      3  C   UNL     1       1.647   7.104  18.024  0.00  0.00    +0.000 C 
ATOM      4  C   UNL     1       2.306   6.279  19.158  0.00  0.00    +0.000 C 
ATOM      5  C   UNL     1       1.570   6.683  20.454  0.00  0.00    +0.000 C 
ATOM      6  C   UNL     1       1.573   8.185  20.736  0.00  0.00    +0.000 C 
ENDROOT
BRANCH   1   7
ATOM      7  S   UNL     1       1.057  10.682  19.857  0.00  0.00    +0.000 S 
ATOM      8  O   UNL     1       1.818  11.352  18.820  0.00  0.00    +0.000 OA
ATOM      9  O   UNL     1       1.337  10.921  21.256  0.00  0.00    +0.000 OA
BRANCH   7  17
ATOM     10  C   UNL     1      -0.902  12.706  21.817  0.00  0.00    +0.000 C 
ATOM     11  C   UNL     1      -1.297  12.088  20.525  0.00  0.00    +0.000 A 
ATOM     12  N   UNL     1      -2.538  12.309  20.077  0.00  0.00    +0.000 NA
ATOM     13  N   UNL     1      -2.642  11.557  18.971  0.00  0.00    +0.000 N 
ATOM     14  C   UNL     1      -3.932  11.465  18.323  0.00  0.00    +0.000 C 
ATOM     15  C   UNL     1      -1.469  10.932  18.621  0.00  0.00    +0.000 A 
ATOM     16  C   UNL     1      -1.338  10.064  17.424  0.00  0.00    +0.000 C 
ATOM     17  C   UNL     1      -0.571  11.252  19.636  0.00  0.00    +0.000 A 
ENDBRANCH   7  17
ENDBRANCH   1   7
BRANCH   4  18
ATOM     18  C   UNL     1       2.049   4.775  18.888  0.00  0.00    +0.000 C 
BRANCH  18  19
ATOM     19  O   UNL     1       1.517   4.563  17.584  0.00  0.00    +0.000 OA
ATOM     20  H   UNL     1       2.266   4.498  16.966  0.00  0.00    +0.000 HD
ENDBRANCH  18  19
ENDBRANCH   4  18
BRANCH   4  21
ATOM     21  C   UNL     1       3.841   6.577  19.201  0.00  0.00    +0.000 C 
BRANCH  21  22
ATOM     22  C   UNL     1       4.667   6.077  18.033  0.00  0.00    +0.000 A 
ATOM     23  C   UNL     1       5.539   4.987  18.187  0.00  0.00    +0.000 A 
ATOM     24  C   UNL     1       6.317   4.538  17.118  0.00  0.00    +0.000 A 
ATOM     25  C   UNL     1       6.221   5.168  15.880  0.00  0.00    +0.000 A 
ATOM     26 CL   UNL     1       7.188   4.628  14.564  0.00  0.00    +0.000 Cl
ATOM     27  C   UNL     1       5.342   6.233  15.701  0.00  0.00    +0.000 A 
ATOM     28  C   UNL     1       4.565   6.681  16.772  0.00  0.00    +0.000 A 
ENDBRANCH  21  22
ENDBRANCH   4  21
TORSDOF 6
ENDMDL
MODEL 3
REMARK VINA RESULT:      -6.4      0.780      1.757
REMARK  Name = 
REMARK  9 active torsions:
REMARK  status: ('A' for Active; 'I' for Inactive)
REMARK    1  A    between atoms: C_1  and  C_2
REMARK    2  A    between atoms: N_4  and  C_5
REMARK    3  A    between atoms: C_6  and  C_7
REMARK    4  A    between atoms: C_8  and  S_9
REMARK    5  A    between atoms: S_9  and  N_12
REMARK    6  A    between atoms: C_15  and  C_16
REMARK    7  A    between atoms: C_15  and  C_18
REMARK    8  A    between atoms: C_16  and  O_17
REMARK    9  A    between atoms: C_18  and  C_19
REMARK                            x       y       z     vdW  Elec       q    Type
REMARK                         _______ _______ _______ _____ _____    ______ ____
ROOT
ATOM      1  N   UNL     1       1.136   9.055  19.565  0.00  0.00    +0.000 NA
ATOM      2  C   UNL     1       1.687   8.671  18.251  0.00  0.00    +0.000 C 
ATOM      3  C   UNL     1       1.615   7.163  18.024  0.00  0.00    +0.000 C 
ATOM      4  C   UNL     1       2.274   6.340  19.160  0.00  0.00    +0.000 C 
ATOM      5  C   UNL     1       1.535   6.742  20.454  0.00  0.00    +0.000 C 
ATOM      6  C   UNL     1       1.532   8.244  20.736  0.00  0.00    +0.000 C 
ENDROOT
BRANCH   1   7
ATOM      7  S   UNL     1       1.011  10.740  19.855  0.00  0.00    +0.000 S 
ATOM      8  O   UNL     1       1.769  11.412  18.817  0.00  0.00    +0.000 OA
ATOM      9  O   UNL     1       1.291  10.981  21.254  0.00  0.00    +0.000 OA
BRANCH   7  17
ATOM     10  C   UNL     1      -0.940  12.788  21.797  0.00  0.00    +0.000 C 
ATOM     11  C   UNL     1      -1.341  12.152  20.516  0.00  0.00    +0.000 A 
ATOM     12  N   UNL     1      -2.585  12.365  20.071  0.00  0.00    +0.000 NA
ATOM     13  N   UNL     1      -2.694  11.597  18.977  0.00  0.00    +0.000 N 
ATOM     14  C   UNL     1      -3.987  11.494  18.337  0.00  0.00    +0.000 C 
ATOM     15  C   UNL     1      -1.522  10.969  18.629  0.00  0.00    +0.000 A 
ATOM     16  C   UNL     1      -1.396  10.084  17.444  0.00  0.00    +0.000 C 
ATOM     17  C   UNL     1      -0.618  11.304  19.635  0.00  0.00    +0.000 A 
ENDBRANCH   7  17
ENDBRANCH   1   7
BRANCH   4  18
ATOM     18  C   UNL     1       2.022   4.835  18.889  0.00  0.00    +0.000 C 
BRANCH  18  19
ATOM     19  O   UNL     1       1.284   4.232  19.947  0.00  0.00    +0.000 OA
ATOM     20  H   UNL     1       0.506   4.791  20.120  0.00  0.00    +0.000 HD
ENDBRANCH  18  19
ENDBRANCH   4  18
BRANCH   4  21
ATOM     21  C   UNL     1       3.809   6.642  19.207  0.00  0.00    +0.000 C 
BRANCH  21  22
ATOM     22  C   UNL     1       4.643   6.120  18.054  0.00  0.00    +0.000 A 
ATOM     23  C   UNL     1       4.557   6.711  16.784  0.00  0.00    +0.000 A 
ATOM     24  C   UNL     1       5.309   6.218  15.715  0.00  0.00    +0.000 A 
ATOM     25  C   UNL     1       6.162   5.136  15.910  0.00  0.00    +0.000 A 
ATOM     26 CL   UNL     1       7.078   4.515  14.594  0.00  0.00    +0.000 Cl
ATOM     27  C   UNL     1       6.280   4.553  17.169  0.00  0.00    +0.000 A 
ATOM     28  C   UNL     1       5.527   5.047  18.237  0.00  0.00    +0.000 A 
ENDBRANCH  21  22
ENDBRANCH   4  21
TORSDOF 6
ENDMDL
MODEL 4
REMARK VINA RESULT:      -6.3      3.979      8.652
REMARK  Name = 
REMARK  9 active torsions:
REMARK  status: ('A' for Active; 'I' for Inactive)
REMARK    1  A    between atoms: C_1  and  C_2
REMARK    2  A    between atoms: N_4  and  C_5
REMARK    3  A    between atoms: C_6  and  C_7
REMARK    4  A    between atoms: C_8  and  S_9
REMARK    5  A    between atoms: S_9  and  N_12
REMARK    6  A    between atoms: C_15  and  C_16
REMARK    7  A    between atoms: C_15  and  C_18
REMARK    8  A    between atoms: C_16  and  O_17
REMARK    9  A    between atoms: C_18  and  C_19
REMARK                            x       y       z     vdW  Elec       q    Type
REMARK                         _______ _______ _______ _____ _____    ______ ____
ROOT
ATOM      1  N   UNL     1       2.285   7.320  19.010  0.00  0.00    +0.000 NA
ATOM      2  C   UNL     1       2.115   7.901  17.664  0.00  0.00    +0.000 C 
ATOM      3  C   UNL     1       2.250   9.422  17.681  0.00  0.00    +0.000 C 
ATOM      4  C   UNL     1       1.308  10.110  18.701  0.00  0.00    +0.000 C 
ATOM      5  C   UNL     1       1.664   9.506  20.077  0.00  0.00    +0.000 C 
ATOM      6  C   UNL     1       1.586   7.981  20.133  0.00  0.00    +0.000 C 
ENDROOT
BRANCH   1   7
ATOM      7  S   UNL     1       2.321   5.608  19.081  0.00  0.00    +0.000 S 
ATOM      8  O   UNL     1       1.585   5.114  17.933  0.00  0.00    +0.000 OA
ATOM      9  O   UNL     1       1.964   5.203  20.423  0.00  0.00    +0.000 OA
BRANCH   7  17
ATOM     10  C   UNL     1       3.824   2.753  20.250  0.00  0.00    +0.000 C 
ATOM     11  C   UNL     1       4.459   3.794  19.401  0.00  0.00    +0.000 A 
ATOM     12  N   UNL     1       5.746   3.635  19.068  0.00  0.00    +0.000 NA
ATOM     13  N   UNL     1       6.069   4.754  18.405  0.00  0.00    +0.000 N 
ATOM     14  C   UNL     1       7.452   4.955  18.031  0.00  0.00    +0.000 C 
ATOM     15  C   UNL     1       5.003   5.597  18.198  0.00  0.00    +0.000 A 
ATOM     16  C   UNL     1       5.116   6.886  17.470  0.00  0.00    +0.000 C 
ATOM     17  C   UNL     1       3.933   4.996  18.858  0.00  0.00    +0.000 A 
ENDBRANCH   7  17
ENDBRANCH   1   7
BRANCH   4  18
ATOM     18  C   UNL     1       1.628  11.625  18.724  0.00  0.00    +0.000 C 
BRANCH  18  19
ATOM     19  O   UNL     1       2.388  12.016  17.585  0.00  0.00    +0.000 OA
ATOM     20  H   UNL     1       3.142  12.544  17.900  0.00  0.00    +0.000 HD
ENDBRANCH  18  19
ENDBRANCH   4  18
BRANCH   4  21
ATOM     21  C   UNL     1      -0.182   9.867  18.288  0.00  0.00    +0.000 C 
BRANCH  21  22
ATOM     22  C   UNL     1      -1.218  10.792  18.897  0.00  0.00    +0.000 A 
ATOM     23  C   UNL     1      -0.999  11.385  20.150  0.00  0.00    +0.000 A 
ATOM     24  C   UNL     1      -1.961  12.221  20.722  0.00  0.00    +0.000 A 
ATOM     25  C   UNL     1      -3.147  12.479  20.040  0.00  0.00    +0.000 A 
ATOM     26 CL   UNL     1      -4.341  13.494  20.747  0.00  0.00    +0.000 Cl
ATOM     27  C   UNL     1      -3.370  11.920  18.785  0.00  0.00    +0.000 A 
ATOM     28  C   UNL     1      -2.407  11.084  18.214  0.00  0.00    +0.000 A 
ENDBRANCH  21  22
ENDBRANCH   4  21
TORSDOF 6
ENDMDL
MODEL 5
REMARK VINA RESULT:      -6.2      3.836      6.732
REMARK  Name = 
REMARK  9 active torsions:
REMARK  status: ('A' for Active; 'I' for Inactive)
REMARK    1  A    between atoms: C_1  and  C_2
REMARK    2  A    between atoms: N_4  and  C_5
REMARK    3  A    between atoms: C_6  and  C_7
REMARK    4  A    between atoms: C_8  and  S_9
REMARK    5  A    between atoms: S_9  and  N_12
REMARK    6  A    between atoms: C_15  and  C_16
REMARK    7  A    between atoms: C_15  and  C_18
REMARK    8  A    between atoms: C_16  and  O_17
REMARK    9  A    between atoms: C_18  and  C_19
REMARK                            x       y       z     vdW  Elec       q    Type
REMARK                         _______ _______ _______ _____ _____    ______ ____
ROOT
ATOM      1  N   UNL     1      -2.448  12.707  22.273  0.00  0.00    +0.000 NA
ATOM      2  C   UNL     1      -1.620  11.542  22.645  0.00  0.00    +0.000 C 
ATOM      3  C   UNL     1      -0.170  11.709  22.198  0.00  0.00    +0.000 C 
ATOM      4  C   UNL     1      -0.027  12.027  20.689  0.00  0.00    +0.000 C 
ATOM      5  C   UNL     1      -0.833  13.323  20.453  0.00  0.00    +0.000 C 
ATOM      6  C   UNL     1      -2.290  13.248  20.906  0.00  0.00    +0.000 C 
ENDROOT
BRANCH   1   7
ATOM      7  S   UNL     1      -4.052  12.701  22.874  0.00  0.00    +0.000 S 
ATOM      8  O   UNL     1      -4.044  11.953  24.116  0.00  0.00    +0.000 OA
ATOM      9  O   UNL     1      -4.939  12.333  21.791  0.00  0.00    +0.000 OA
BRANCH   7  17
ATOM     10  C   UNL     1      -2.739  14.920  25.138  0.00  0.00    +0.000 C 
ATOM     11  C   UNL     1      -3.947  15.134  24.299  0.00  0.00    +0.000 A 
ATOM     12  N   UNL     1      -4.615  16.284  24.443  0.00  0.00    +0.000 NA
ATOM     13  N   UNL     1      -5.693  16.154  23.656  0.00  0.00    +0.000 N 
ATOM     14  C   UNL     1      -6.703  17.188  23.701  0.00  0.00    +0.000 C 
ATOM     15  C   UNL     1      -5.696  14.995  22.917  0.00  0.00    +0.000 A 
ATOM     16  C   UNL     1      -6.778  14.645  21.962  0.00  0.00    +0.000 C 
ATOM     17  C   UNL     1      -4.566  14.297  23.333  0.00  0.00    +0.000 A 
ENDBRANCH   7  17
ENDBRANCH   1   7
BRANCH   4  18
ATOM     18  C   UNL     1       1.466  12.307  20.383  0.00  0.00    +0.000 C 
BRANCH  18  19
ATOM     19  O   UNL     1       2.005  13.284  21.267  0.00  0.00    +0.000 OA
ATOM     20  H   UNL     1       2.920  13.464  20.987  0.00  0.00    +0.000 HD
ENDBRANCH  18  19
ENDBRANCH   4  18
BRANCH   4  21
ATOM     21  C   UNL     1      -0.545  10.816  19.844  0.00  0.00    +0.000 C 
BRANCH  21  22
ATOM     22  C   UNL     1       0.473   9.755  19.476  0.00  0.00    +0.000 A 
ATOM     23  C   UNL     1       0.986   9.677  18.172  0.00  0.00    +0.000 A 
ATOM     24  C   UNL     1       1.908   8.687  17.826  0.00  0.00    +0.000 A 
ATOM     25  C   UNL     1       2.334   7.772  18.784  0.00  0.00    +0.000 A 
ATOM     26 CL   UNL     1       3.457   6.541  18.359  0.00  0.00    +0.000 Cl
ATOM     27  C   UNL     1       1.856   7.850  20.090  0.00  0.00    +0.000 A 
ATOM     28  C   UNL     1       0.934   8.841  20.435  0.00  0.00    +0.000 A 
ENDBRANCH  21  22
ENDBRANCH   4  21
TORSDOF 6
ENDMDL
MODEL 6
REMARK VINA RESULT:      -6.2      5.085      7.654
REMARK  Name = 
REMARK  9 active torsions:
REMARK  status: ('A' for Active; 'I' for Inactive)
REMARK    1  A    between atoms: C_1  and  C_2
REMARK    2  A    between atoms: N_4  and  C_5
REMARK    3  A    between atoms: C_6  and  C_7
REMARK    4  A    between atoms: C_8  and  S_9
REMARK    5  A    between atoms: S_9  and  N_12
REMARK    6  A    between atoms: C_15  and  C_16
REMARK    7  A    between atoms: C_15  and  C_18
REMARK    8  A    between atoms: C_16  and  O_17
REMARK    9  A    between atoms: C_18  and  C_19
REMARK                            x       y       z     vdW  Elec       q    Type
REMARK                         _______ _______ _______ _____ _____    ______ ____
ROOT
ATOM      1  N   UNL     1       4.501   4.032  18.011  0.00  0.00    +0.000 NA
ATOM      2  C   UNL     1       4.518   3.544  19.405  0.00  0.00    +0.000 C 
ATOM      3  C   UNL     1       3.115   3.213  19.907  0.00  0.00    +0.000 C 
ATOM      4  C   UNL     1       2.113   4.384  19.745  0.00  0.00    +0.000 C 
ATOM      5  C   UNL     1       2.098   4.719  18.238  0.00  0.00    +0.000 C 
ATOM      6  C   UNL     1       3.473   5.032  17.650  0.00  0.00    +0.000 C 
ENDROOT
BRANCH   1   7
ATOM      7  S   UNL     1       6.037   4.274  17.290  0.00  0.00    +0.000 S 
ATOM      8  O   UNL     1       5.892   4.015  15.871  0.00  0.00    +0.000 OA
ATOM      9  O   UNL     1       7.023   3.566  18.078  0.00  0.00    +0.000 OA
BRANCH   7  17
ATOM     10  C   UNL     1       5.186   6.971  15.347  0.00  0.00    +0.000 C 
ATOM     11  C   UNL     1       6.115   6.984  16.507  0.00  0.00    +0.000 A 
ATOM     12  N   UNL     1       6.705   8.142  16.826  0.00  0.00    +0.000 NA
ATOM     13  N   UNL     1       7.549   7.833  17.821  0.00  0.00    +0.000 N 
ATOM     14  C   UNL     1       8.453   8.857  18.297  0.00  0.00    +0.000 C 
ATOM     15  C   UNL     1       7.452   6.526  18.237  0.00  0.00    +0.000 A 
ATOM     16  C   UNL     1       8.273   5.961  19.338  0.00  0.00    +0.000 C 
ATOM     17  C   UNL     1       6.526   5.940  17.378  0.00  0.00    +0.000 A 
ENDBRANCH   7  17
ENDBRANCH   1   7
BRANCH   4  18
ATOM     18  C   UNL     1       0.705   3.889  20.160  0.00  0.00    +0.000 C 
BRANCH  18  19
ATOM     19  O   UNL     1       0.780   2.877  21.158  0.00  0.00    +0.000 OA
ATOM     20  H   UNL     1       1.718   2.645  21.273  0.00  0.00    +0.000 HD
ENDBRANCH  18  19
ENDBRANCH   4  18
BRANCH   4  21
ATOM     21  C   UNL     1       2.560   5.587  20.640  0.00  0.00    +0.000 C 
BRANCH  21  22
ATOM     22  C   UNL     1       1.913   6.927  20.355  0.00  0.00    +0.000 A 
ATOM     23  C   UNL     1       2.223   7.637  19.184  0.00  0.00    +0.000 A 
ATOM     24  C   UNL     1       1.644   8.882  18.929  0.00  0.00    +0.000 A 
ATOM     25  C   UNL     1       0.741   9.424  19.839  0.00  0.00    +0.000 A 
ATOM     26 CL   UNL     1       0.037  10.964  19.537  0.00  0.00    +0.000 Cl
ATOM     27  C   UNL     1       0.402   8.724  20.993  0.00  0.00    +0.000 A 
ATOM     28  C   UNL     1       0.982   7.478  21.247  0.00  0.00    +0.000 A 
ENDBRANCH  21  22
ENDBRANCH   4  21
TORSDOF 6
ENDMDL
MODEL 7
REMARK VINA RESULT:      -6.2      4.001      8.696
REMARK  Name = 
REMARK  9 active torsions:
REMARK  status: ('A' for Active; 'I' for Inactive)
REMARK    1  A    between atoms: C_1  and  C_2
REMARK    2  A    between atoms: N_4  and  C_5
REMARK    3  A    between atoms: C_6  and  C_7
REMARK    4  A    between atoms: C_8  and  S_9
REMARK    5  A    between atoms: S_9  and  N_12
REMARK    6  A    between atoms: C_15  and  C_16
REMARK    7  A    between atoms: C_15  and  C_18
REMARK    8  A    between atoms: C_16  and  O_17
REMARK    9  A    between atoms: C_18  and  C_19
REMARK                            x       y       z     vdW  Elec       q    Type
REMARK                         _______ _______ _______ _____ _____    ______ ____
ROOT
ATOM      1  N   UNL     1       2.265   7.339  18.947  0.00  0.00    +0.000 NA
ATOM      2  C   UNL     1       1.866   7.978  17.677  0.00  0.00    +0.000 C 
ATOM      3  C   UNL     1       2.013   9.496  17.734  0.00  0.00    +0.000 C 
ATOM      4  C   UNL     1       1.268  10.139  18.931  0.00  0.00    +0.000 C 
ATOM      5  C   UNL     1       1.856   9.477  20.197  0.00  0.00    +0.000 C 
ATOM      6  C   UNL     1       1.777   7.951  20.201  0.00  0.00    +0.000 C 
ENDROOT
BRANCH   1   7
ATOM      7  S   UNL     1       2.301   5.626  18.938  0.00  0.00    +0.000 S 
ATOM      8  O   UNL     1       1.632   5.187  17.729  0.00  0.00    +0.000 OA
ATOM      9  O   UNL     1       1.870   5.157  20.237  0.00  0.00    +0.000 OA
BRANCH   7  17
ATOM     10  C   UNL     1       3.800   2.824  20.233  0.00  0.00    +0.000 C 
ATOM     11  C   UNL     1       4.448   3.846  19.370  0.00  0.00    +0.000 A 
ATOM     12  N   UNL     1       5.744   3.690  19.077  0.00  0.00    +0.000 NA
ATOM     13  N   UNL     1       6.074   4.792  18.389  0.00  0.00    +0.000 N 
ATOM     14  C   UNL     1       7.465   4.996  18.046  0.00  0.00    +0.000 C 
ATOM     15  C   UNL     1       5.006   5.617  18.128  0.00  0.00    +0.000 A 
ATOM     16  C   UNL     1       5.126   6.884  17.364  0.00  0.00    +0.000 C 
ATOM     17  C   UNL     1       3.925   5.025  18.777  0.00  0.00    +0.000 A 
ENDBRANCH   7  17
ENDBRANCH   1   7
BRANCH   4  18
ATOM     18  C   UNL     1       1.598  11.653  18.962  0.00  0.00    +0.000 C 
BRANCH  18  19
ATOM     19  O   UNL     1       2.287  12.060  17.785  0.00  0.00    +0.000 OA
ATOM     20  H   UNL     1       3.241  12.035  17.978  0.00  0.00    +0.000 HD
ENDBRANCH  18  19
ENDBRANCH   4  18
BRANCH   4  21
ATOM     21  C   UNL     1      -0.272   9.914  18.776  0.00  0.00    +0.000 C 
BRANCH  21  22
ATOM     22  C   UNL     1      -1.181  10.877  19.513  0.00  0.00    +0.000 A 
ATOM     23  C   UNL     1      -2.250  11.501  18.852  0.00  0.00    +0.000 A 
ATOM     24  C   UNL     1      -3.076  12.406  19.524  0.00  0.00    +0.000 A 
ATOM     25  C   UNL     1      -2.846  12.685  20.868  0.00  0.00    +0.000 A 
ATOM     26 CL   UNL     1      -3.849  13.810  21.696  0.00  0.00    +0.000 Cl
ATOM     27  C   UNL     1      -1.806  12.056  21.547  0.00  0.00    +0.000 A 
ATOM     28  C   UNL     1      -0.981  11.152  20.874  0.00  0.00    +0.000 A 
ENDBRANCH  21  22
ENDBRANCH   4  21
TORSDOF 6
ENDMDL
MODEL 8
REMARK VINA RESULT:      -6.2      5.951      8.265
REMARK  Name = 
REMARK  9 active torsions:
REMARK  status: ('A' for Active; 'I' for Inactive)
REMARK    1  A    between atoms: C_1  and  C_2
REMARK    2  A    between atoms: N_4  and  C_5
REMARK    3  A    between atoms: C_6  and  C_7
REMARK    4  A    between atoms: C_8  and  S_9
REMARK    5  A    between atoms: S_9  and  N_12
REMARK    6  A    between atoms: C_15  and  C_16
REMARK    7  A    between atoms: C_15  and  C_18
REMARK    8  A    between atoms: C_16  and  O_17
REMARK    9  A    between atoms: C_18  and  C_19
REMARK                            x       y       z     vdW  Elec       q    Type
REMARK                         _______ _______ _______ _____ _____    ______ ____
ROOT
ATOM      1  N   UNL     1      -0.524  11.594  19.129  0.00  0.00    +0.000 NA
ATOM      2  C   UNL     1      -0.781  10.140  19.134  0.00  0.00    +0.000 C 
ATOM      3  C   UNL     1      -1.186   9.630  17.753  0.00  0.00    +0.000 C 
ATOM      4  C   UNL     1      -2.385  10.400  17.143  0.00  0.00    +0.000 C 
ATOM      5  C   UNL     1      -1.948  11.880  17.081  0.00  0.00    +0.000 C 
ATOM      6  C   UNL     1      -1.494  12.457  18.422  0.00  0.00    +0.000 C 
ENDROOT
BRANCH   1   7
ATOM      7  S   UNL     1       0.101  12.243  20.586  0.00  0.00    +0.000 S 
ATOM      8  O   UNL     1       0.453  13.626  20.326  0.00  0.00    +0.000 OA
ATOM      9  O   UNL     1       1.077  11.315  21.113  0.00  0.00    +0.000 OA
BRANCH   7  17
ATOM     10  C   UNL     1      -0.721  10.058  23.101  0.00  0.00    +0.000 C 
ATOM     11  C   UNL     1      -1.385  11.356  22.815  0.00  0.00    +0.000 A 
ATOM     12  N   UNL     1      -2.420  11.715  23.585  0.00  0.00    +0.000 NA
ATOM     13  N   UNL     1      -2.874  12.853  23.038  0.00  0.00    +0.000 N 
ATOM     14  C   UNL     1      -4.094  13.425  23.562  0.00  0.00    +0.000 C 
ATOM     15  C   UNL     1      -2.101  13.307  21.997  0.00  0.00    +0.000 A 
ATOM     16  C   UNL     1      -2.397  14.557  21.252  0.00  0.00    +0.000 C 
ATOM     17  C   UNL     1      -1.122  12.333  21.819  0.00  0.00    +0.000 A 
ENDBRANCH   7  17
ENDBRANCH   1   7
BRANCH   4  18
ATOM     18  C   UNL     1      -2.616   9.889  15.699  0.00  0.00    +0.000 C 
BRANCH  18  19
ATOM     19  O   UNL     1      -3.003  10.946  14.827  0.00  0.00    +0.000 OA
ATOM     20  H   UNL     1      -2.327  11.644  14.890  0.00  0.00    +0.000 HD
ENDBRANCH  18  19
ENDBRANCH   4  18
BRANCH   4  21
ATOM     21  C   UNL     1      -3.660  10.169  18.020  0.00  0.00    +0.000 C 
BRANCH  21  22
ATOM     22  C   UNL     1      -4.612  11.340  18.160  0.00  0.00    +0.000 A 
ATOM     23  C   UNL     1      -5.392  11.763  17.072  0.00  0.00    +0.000 A 
ATOM     24  C   UNL     1      -6.254  12.855  17.193  0.00  0.00    +0.000 A 
ATOM     25  C   UNL     1      -6.353  13.527  18.408  0.00  0.00    +0.000 A 
ATOM     26 CL   UNL     1      -7.402  14.882  18.558  0.00  0.00    +0.000 Cl
ATOM     27  C   UNL     1      -5.607  13.106  19.506  0.00  0.00    +0.000 A 
ATOM     28  C   UNL     1      -4.745  12.014  19.383  0.00  0.00    +0.000 A 
ENDBRANCH  21  22
ENDBRANCH   4  21
TORSDOF 6
ENDMDL
MODEL 9
REMARK VINA RESULT:      -6.2      3.522      6.138
REMARK  Name = 
REMARK  9 active torsions:
REMARK  status: ('A' for Active; 'I' for Inactive)
REMARK    1  A    between atoms: C_1  and  C_2
REMARK    2  A    between atoms: N_4  and  C_5
REMARK    3  A    between atoms: C_6  and  C_7
REMARK    4  A    between atoms: C_8  and  S_9
REMARK    5  A    between atoms: S_9  and  N_12
REMARK    6  A    between atoms: C_15  and  C_16
REMARK    7  A    between atoms: C_15  and  C_18
REMARK    8  A    between atoms: C_16  and  O_17
REMARK    9  A    between atoms: C_18  and  C_19
REMARK                            x       y       z     vdW  Elec       q    Type
REMARK                         _______ _______ _______ _____ _____    ______ ____
ROOT
ATOM      1  N   UNL     1      -1.318  12.904  21.305  0.00  0.00    +0.000 NA
ATOM      2  C   UNL     1      -0.372  11.807  21.597  0.00  0.00    +0.000 C 
ATOM      3  C   UNL     1       0.963  12.004  20.883  0.00  0.00    +0.000 C 
ATOM      4  C   UNL     1       0.816  12.214  19.355  0.00  0.00    +0.000 C 
ATOM      5  C   UNL     1      -0.091  13.452  19.185  0.00  0.00    +0.000 C 
ATOM      6  C   UNL     1      -1.438  13.346  19.900  0.00  0.00    +0.000 C 
ENDROOT
BRANCH   1   7
ATOM      7  S   UNL     1      -2.787  12.872  22.187  0.00  0.00    +0.000 S 
ATOM      8  O   UNL     1      -2.609  11.942  23.286  0.00  0.00    +0.000 OA
ATOM      9  O   UNL     1      -3.875  12.713  21.248  0.00  0.00    +0.000 OA
BRANCH   7  17
ATOM     10  C   UNL     1      -0.684  15.471  22.960  0.00  0.00    +0.000 C 
ATOM     11  C   UNL     1      -2.141  15.409  23.241  0.00  0.00    +0.000 A 
ATOM     12  N   UNL     1      -2.703  16.444  23.878  0.00  0.00    +0.000 NA
ATOM     13  N   UNL     1      -3.974  16.069  24.084  0.00  0.00    +0.000 N 
ATOM     14  C   UNL     1      -4.818  16.925  24.889  0.00  0.00    +0.000 C 
ATOM     15  C   UNL     1      -4.291  14.863  23.507  0.00  0.00    +0.000 A 
ATOM     16  C   UNL     1      -5.644  14.256  23.587  0.00  0.00    +0.000 C 
ATOM     17  C   UNL     1      -3.099  14.398  22.959  0.00  0.00    +0.000 A 
ENDBRANCH   7  17
ENDBRANCH   1   7
BRANCH   4  18
ATOM     18  C   UNL     1       2.212  12.535  18.765  0.00  0.00    +0.000 C 
BRANCH  18  19
ATOM     19  O   UNL     1       2.166  12.641  17.345  0.00  0.00    +0.000 OA
ATOM     20  H   UNL     1       1.331  13.079  17.109  0.00  0.00    +0.000 HD
ENDBRANCH  18  19
ENDBRANCH   4  18
BRANCH   4  21
ATOM     21  C   UNL     1       0.225  10.921  18.701  0.00  0.00    +0.000 C 
BRANCH  21  22
ATOM     22  C   UNL     1       1.020   9.643  18.877  0.00  0.00    +0.000 A 
ATOM     23  C   UNL     1       1.028   8.970  20.110  0.00  0.00    +0.000 A 
ATOM     24  C   UNL     1       1.776   7.803  20.281  0.00  0.00    +0.000 A 
ATOM     25  C   UNL     1       2.515   7.292  19.217  0.00  0.00    +0.000 A 
ATOM     26 CL   UNL     1       3.451   5.865  19.428  0.00  0.00    +0.000 Cl
ATOM     27  C   UNL     1       2.499   7.932  17.981  0.00  0.00    +0.000 A 
ATOM     28  C   UNL     1       1.750   9.099  17.811  0.00  0.00    +0.000 A 
ENDBRANCH  21  22
ENDBRANCH   4  21
TORSDOF 6
ENDMDL
