MODEL 1
REMARK VINA RESULT:      -6.4      0.000      0.000
REMARK  Name = 
REMARK  15 active torsions:
REMARK  status: ('A' for Active; 'I' for Inactive)
REMARK    1  A    between atoms: C_1  and  C_2
REMARK    2  A    between atoms: C_2  and  C_3
REMARK    3  A    between atoms: C_3  and  C_4
REMARK    4  A    between atoms: C_4  and  C_5
REMARK    5  A    between atoms: C_5  and  C_6
REMARK    6  A    between atoms: C_5  and  C_15
REMARK    7  A    between atoms: C_6  and  C_7
REMARK    8  A    between atoms: C_7  and  O_8
REMARK    9  A    between atoms: C_7  and  C_9
REMARK   10  A    between atoms: C_9  and  O_10
REMARK   11  A    between atoms: O_10  and  C_11
REMARK   12  A    between atoms: C_11  and  C_12
REMARK   13  A    between atoms: C_12  and  C_13
REMARK   14  A    between atoms: C_12  and  C_14
REMARK   15  A    between atoms: N_17  and  N_18
REMARK                            x       y       z     vdW  Elec       q    Type
REMARK                         _______ _______ _______ _____ _____    ______ ____
ROOT
ATOM      1  C   UNL     1       5.744   4.426  17.408  0.00  0.00    +0.000 C 
ENDROOT
BRANCH   1   2
ATOM      2  C   UNL     1       7.030   4.665  18.212  0.00  0.00    +0.000 C 
ATOM      3  O   UNL     1       8.153   4.364  17.819  0.00  0.00    +0.000 OA
ATOM      4  N   UNL     1       6.823   5.263  19.456  0.00  0.00    +0.000 N 
ATOM      5  H   UNL     1       5.990   5.828  19.612  0.00  0.00    +0.000 HD
BRANCH   4   6
ATOM      6  N   UNL     1       7.928   5.438  20.317  0.00  0.00    +0.000 NA
ATOM      7  H   UNL     1       8.158   4.499  20.685  0.00  0.00    +0.000 HD
ATOM      8  H   UNL     1       7.609   5.936  21.152  0.00  0.00    +0.000 HD
ENDBRANCH   4   6
ENDBRANCH   1   2
BRANCH   1   9
ATOM      9  C   UNL     1       4.588   4.076  18.369  0.00  0.00    +0.000 C 
BRANCH   9  10
ATOM     10  C   UNL     1       3.219   4.650  17.983  0.00  0.00    +0.000 C 
BRANCH  10  12
ATOM     11  C   UNL     1       1.163   3.256  18.494  0.00  0.00    +0.000 C 
ATOM     12  C   UNL     1       2.281   3.538  17.500  0.00  0.00    +0.000 C 
ENDBRANCH  10  12
ENDBRANCH   9  10
ENDBRANCH   1   9
BRANCH   1  13
ATOM     13  C   UNL     1       5.447   5.619  16.468  0.00  0.00    +0.000 C 
BRANCH  13  14
ATOM     14  C   UNL     1       6.013   5.496  15.039  0.00  0.00    +0.000 C 
BRANCH  14  15
ATOM     15  O   UNL     1       7.434   5.624  15.023  0.00  0.00    +0.000 OA
ATOM     16  H   UNL     1       7.674   6.354  14.427  0.00  0.00    +0.000 HD
ENDBRANCH  14  15
BRANCH  14  17
ATOM     17  C   UNL     1       5.657   4.149  14.400  0.00  0.00    +0.000 C 
BRANCH  17  18
ATOM     18  O   UNL     1       6.731   3.708  13.580  0.00  0.00    +0.000 OA
BRANCH  18  19
ATOM     19  C   UNL     1       6.381   3.725  12.199  0.00  0.00    +0.000 C 
BRANCH  19  20
ATOM     20  C   UNL     1       5.300   2.668  11.954  0.00  0.00    +0.000 C 
ATOM     21  C   UNL     1       4.156   3.228  11.105  0.00  0.00    +0.000 C 
ATOM     22  C   UNL     1       5.911   1.438  11.290  0.00  0.00    +0.000 C 
ENDBRANCH  19  20
ENDBRANCH  18  19
ENDBRANCH  17  18
ENDBRANCH  14  17
ENDBRANCH  13  14
ENDBRANCH   1  13
TORSDOF 12
ENDMDL
MODEL 2
REMARK VINA RESULT:      -6.3      2.275      6.021
REMARK  Name = 
REMARK  15 active torsions:
REMARK  status: ('A' for Active; 'I' for Inactive)
REMARK    1  A    between atoms: C_1  and  C_2
REMARK    2  A    between atoms: C_2  and  C_3
REMARK    3  A    between atoms: C_3  and  C_4
REMARK    4  A    between atoms: C_4  and  C_5
REMARK    5  A    between atoms: C_5  and  C_6
REMARK    6  A    between atoms: C_5  and  C_15
REMARK    7  A    between atoms: C_6  and  C_7
REMARK    8  A    between atoms: C_7  and  O_8
REMARK    9  A    between atoms: C_7  and  C_9
REMARK   10  A    between atoms: C_9  and  O_10
REMARK   11  A    between atoms: O_10  and  C_11
REMARK   12  A    between atoms: C_11  and  C_12
REMARK   13  A    between atoms: C_12  and  C_13
REMARK   14  A    between atoms: C_12  and  C_14
REMARK   15  A    between atoms: N_17  and  N_18
REMARK                            x       y       z     vdW  Elec       q    Type
REMARK                         _______ _______ _______ _____ _____    ______ ____
ROOT
ATOM      1  C   UNL     1       5.234   4.767  15.990  0.00  0.00    +0.000 C 
ENDROOT
BRANCH   1   2
ATOM      2  C   UNL     1       6.572   5.346  16.472  0.00  0.00    +0.000 C 
ATOM      3  O   UNL     1       7.518   4.666  16.857  0.00  0.00    +0.000 OA
ATOM      4  N   UNL     1       6.635   6.740  16.440  0.00  0.00    +0.000 N 
ATOM      5  H   UNL     1       6.034   7.258  15.800  0.00  0.00    +0.000 HD
BRANCH   4   6
ATOM      6  N   UNL     1       7.784   7.379  16.954  0.00  0.00    +0.000 NA
ATOM      7  H   UNL     1       8.508   7.304  16.219  0.00  0.00    +0.000 HD
ATOM      8  H   UNL     1       8.165   6.799  17.706  0.00  0.00    +0.000 HD
ENDBRANCH   4   6
ENDBRANCH   1   2
BRANCH   1   9
ATOM      9  C   UNL     1       5.255   4.620  14.453  0.00  0.00    +0.000 C 
BRANCH   9  10
ATOM     10  C   UNL     1       6.319   3.663  13.901  0.00  0.00    +0.000 C 
BRANCH  10  12
ATOM     11  C   UNL     1       4.777   3.331  11.917  0.00  0.00    +0.000 C 
ATOM     12  C   UNL     1       6.210   3.552  12.376  0.00  0.00    +0.000 C 
ENDBRANCH  10  12
ENDBRANCH   9  10
ENDBRANCH   1   9
BRANCH   1  13
ATOM     13  C   UNL     1       4.891   3.460  16.745  0.00  0.00    +0.000 C 
BRANCH  13  14
ATOM     14  C   UNL     1       4.460   3.637  18.216  0.00  0.00    +0.000 C 
BRANCH  14  15
ATOM     15  O   UNL     1       5.577   3.581  19.102  0.00  0.00    +0.000 OA
ATOM     16  H   UNL     1       5.871   2.658  19.174  0.00  0.00    +0.000 HD
ENDBRANCH  14  15
BRANCH  14  17
ATOM     17  C   UNL     1       3.749   4.976  18.443  0.00  0.00    +0.000 C 
BRANCH  17  18
ATOM     18  O   UNL     1       2.352   4.758  18.588  0.00  0.00    +0.000 OA
BRANCH  18  19
ATOM     19  C   UNL     1       1.947   4.819  19.952  0.00  0.00    +0.000 C 
BRANCH  19  20
ATOM     20  C   UNL     1       1.040   3.621  20.249  0.00  0.00    +0.000 C 
ATOM     21  C   UNL     1       0.889   2.720  19.021  0.00  0.00    +0.000 C 
ATOM     22  C   UNL     1       1.588   2.830  21.433  0.00  0.00    +0.000 C 
ENDBRANCH  19  20
ENDBRANCH  18  19
ENDBRANCH  17  18
ENDBRANCH  14  17
ENDBRANCH  13  14
ENDBRANCH   1  13
TORSDOF 12
ENDMDL
MODEL 3
REMARK VINA RESULT:      -6.2      2.383      6.022
REMARK  Name = 
REMARK  15 active torsions:
REMARK  status: ('A' for Active; 'I' for Inactive)
REMARK    1  A    between atoms: C_1  and  C_2
REMARK    2  A    between atoms: C_2  and  C_3
REMARK    3  A    between atoms: C_3  and  C_4
REMARK    4  A    between atoms: C_4  and  C_5
REMARK    5  A    between atoms: C_5  and  C_6
REMARK    6  A    between atoms: C_5  and  C_15
REMARK    7  A    between atoms: C_6  and  C_7
REMARK    8  A    between atoms: C_7  and  O_8
REMARK    9  A    between atoms: C_7  and  C_9
REMARK   10  A    between atoms: C_9  and  O_10
REMARK   11  A    between atoms: O_10  and  C_11
REMARK   12  A    between atoms: C_11  and  C_12
REMARK   13  A    between atoms: C_12  and  C_13
REMARK   14  A    between atoms: C_12  and  C_14
REMARK   15  A    between atoms: N_17  and  N_18
REMARK                            x       y       z     vdW  Elec       q    Type
REMARK                         _______ _______ _______ _____ _____    ______ ____
ROOT
ATOM      1  C   UNL     1       5.609   5.168  16.868  0.00  0.00    +0.000 C 
ENDROOT
BRANCH   1   2
ATOM      2  C   UNL     1       6.668   5.398  17.956  0.00  0.00    +0.000 C 
ATOM      3  O   UNL     1       6.908   4.604  18.861  0.00  0.00    +0.000 OA
ATOM      4  N   UNL     1       7.355   6.607  17.838  0.00  0.00    +0.000 N 
ATOM      5  H   UNL     1       7.424   7.061  16.928  0.00  0.00    +0.000 HD
BRANCH   4   6
ATOM      6  N   UNL     1       8.282   6.961  18.841  0.00  0.00    +0.000 NA
ATOM      7  H   UNL     1       9.216   6.917  18.399  0.00  0.00    +0.000 HD
ATOM      8  H   UNL     1       8.321   6.201  19.526  0.00  0.00    +0.000 HD
ENDBRANCH   4   6
ENDBRANCH   1   2
BRANCH   1   9
ATOM      9  C   UNL     1       6.155   4.186  15.810  0.00  0.00    +0.000 C 
BRANCH   9  10
ATOM     10  C   UNL     1       5.461   4.244  14.443  0.00  0.00    +0.000 C 
BRANCH  10  12
ATOM     11  C   UNL     1       5.692   3.209  12.141  0.00  0.00    +0.000 C 
ATOM     12  C   UNL     1       6.423   3.820  13.327  0.00  0.00    +0.000 C 
ENDBRANCH  10  12
ENDBRANCH   9  10
ENDBRANCH   1   9
BRANCH   1  13
ATOM     13  C   UNL     1       4.258   4.740  17.490  0.00  0.00    +0.000 C 
BRANCH  13  14
ATOM     14  C   UNL     1       4.022   3.218  17.583  0.00  0.00    +0.000 C 
BRANCH  14  15
ATOM     15  O   UNL     1       4.519   2.682  18.808  0.00  0.00    +0.000 OA
ATOM     16  H   UNL     1       4.936   1.823  18.625  0.00  0.00    +0.000 HD
ENDBRANCH  14  15
BRANCH  14  17
ATOM     17  C   UNL     1       2.533   2.867  17.488  0.00  0.00    +0.000 C 
BRANCH  17  18
ATOM     18  O   UNL     1       1.775   3.777  18.273  0.00  0.00    +0.000 OA
BRANCH  18  19
ATOM     19  C   UNL     1       0.994   3.103  19.255  0.00  0.00    +0.000 C 
BRANCH  19  20
ATOM     20  C   UNL     1       1.206   3.790  20.607  0.00  0.00    +0.000 C 
ATOM     21  C   UNL     1       2.081   2.941  21.533  0.00  0.00    +0.000 C 
ATOM     22  C   UNL     1       1.822   5.171  20.402  0.00  0.00    +0.000 C 
ENDBRANCH  19  20
ENDBRANCH  18  19
ENDBRANCH  17  18
ENDBRANCH  14  17
ENDBRANCH  13  14
ENDBRANCH   1  13
TORSDOF 12
ENDMDL
MODEL 4
REMARK VINA RESULT:      -6.2      2.220      5.913
REMARK  Name = 
REMARK  15 active torsions:
REMARK  status: ('A' for Active; 'I' for Inactive)
REMARK    1  A    between atoms: C_1  and  C_2
REMARK    2  A    between atoms: C_2  and  C_3
REMARK    3  A    between atoms: C_3  and  C_4
REMARK    4  A    between atoms: C_4  and  C_5
REMARK    5  A    between atoms: C_5  and  C_6
REMARK    6  A    between atoms: C_5  and  C_15
REMARK    7  A    between atoms: C_6  and  C_7
REMARK    8  A    between atoms: C_7  and  O_8
REMARK    9  A    between atoms: C_7  and  C_9
REMARK   10  A    between atoms: C_9  and  O_10
REMARK   11  A    between atoms: O_10  and  C_11
REMARK   12  A    between atoms: C_11  and  C_12
REMARK   13  A    between atoms: C_12  and  C_13
REMARK   14  A    between atoms: C_12  and  C_14
REMARK   15  A    between atoms: N_17  and  N_18
REMARK                            x       y       z     vdW  Elec       q    Type
REMARK                         _______ _______ _______ _____ _____    ______ ____
ROOT
ATOM      1  C   UNL     1       6.209   4.958  17.080  0.00  0.00    +0.000 C 
ENDROOT
BRANCH   1   2
ATOM      2  C   UNL     1       7.348   4.805  18.098  0.00  0.00    +0.000 C 
ATOM      3  O   UNL     1       8.371   4.159  17.894  0.00  0.00    +0.000 OA
ATOM      4  N   UNL     1       7.128   5.471  19.305  0.00  0.00    +0.000 N 
ATOM      5  H   UNL     1       6.499   6.272  19.332  0.00  0.00    +0.000 HD
BRANCH   4   6
ATOM      6  N   UNL     1       8.068   5.316  20.347  0.00  0.00    +0.000 NA
ATOM      7  H   UNL     1       7.526   5.047  21.186  0.00  0.00    +0.000 HD
ATOM      8  H   UNL     1       8.426   6.241  20.597  0.00  0.00    +0.000 HD
ENDBRANCH   4   6
ENDBRANCH   1   2
BRANCH   1   9
ATOM      9  C   UNL     1       6.549   4.168  15.798  0.00  0.00    +0.000 C 
BRANCH   9  10
ATOM     10  C   UNL     1       6.162   4.855  14.483  0.00  0.00    +0.000 C 
BRANCH  10  12
ATOM     11  C   UNL     1       6.351   3.500  12.349  0.00  0.00    +0.000 C 
ATOM     12  C   UNL     1       5.472   3.866  13.536  0.00  0.00    +0.000 C 
ENDBRANCH  10  12
ENDBRANCH   9  10
ENDBRANCH   1   9
BRANCH   1  13
ATOM     13  C   UNL     1       4.846   4.586  17.710  0.00  0.00    +0.000 C 
BRANCH  13  14
ATOM     14  C   UNL     1       4.535   3.076  17.775  0.00  0.00    +0.000 C 
BRANCH  14  15
ATOM     15  O   UNL     1       4.873   2.523  19.046  0.00  0.00    +0.000 OA
ATOM     16  H   UNL     1       5.169   3.242  19.630  0.00  0.00    +0.000 HD
ENDBRANCH  14  15
BRANCH  14  17
ATOM     17  C   UNL     1       3.051   2.790  17.519  0.00  0.00    +0.000 C 
BRANCH  17  18
ATOM     18  O   UNL     1       2.420   2.406  18.733  0.00  0.00    +0.000 OA
BRANCH  18  19
ATOM     19  C   UNL     1       1.546   3.421  19.218  0.00  0.00    +0.000 C 
BRANCH  19  20
ATOM     20  C   UNL     1       2.133   3.997  20.510  0.00  0.00    +0.000 C 
ATOM     21  C   UNL     1       1.630   5.421  20.763  0.00  0.00    +0.000 C 
ATOM     22  C   UNL     1       1.796   3.090  21.689  0.00  0.00    +0.000 C 
ENDBRANCH  19  20
ENDBRANCH  18  19
ENDBRANCH  17  18
ENDBRANCH  14  17
ENDBRANCH  13  14
ENDBRANCH   1  13
TORSDOF 12
ENDMDL
MODEL 5
REMARK VINA RESULT:      -6.2      2.393      6.148
REMARK  Name = 
REMARK  15 active torsions:
REMARK  status: ('A' for Active; 'I' for Inactive)
REMARK    1  A    between atoms: C_1  and  C_2
REMARK    2  A    between atoms: C_2  and  C_3
REMARK    3  A    between atoms: C_3  and  C_4
REMARK    4  A    between atoms: C_4  and  C_5
REMARK    5  A    between atoms: C_5  and  C_6
REMARK    6  A    between atoms: C_5  and  C_15
REMARK    7  A    between atoms: C_6  and  C_7
REMARK    8  A    between atoms: C_7  and  O_8
REMARK    9  A    between atoms: C_7  and  C_9
REMARK   10  A    between atoms: C_9  and  O_10
REMARK   11  A    between atoms: O_10  and  C_11
REMARK   12  A    between atoms: C_11  and  C_12
REMARK   13  A    between atoms: C_12  and  C_13
REMARK   14  A    between atoms: C_12  and  C_14
REMARK   15  A    between atoms: N_17  and  N_18
REMARK                            x       y       z     vdW  Elec       q    Type
REMARK                         _______ _______ _______ _____ _____    ______ ____
ROOT
ATOM      1  C   UNL     1       5.424   5.257  15.736  0.00  0.00    +0.000 C 
ENDROOT
BRANCH   1   2
ATOM      2  C   UNL     1       6.646   5.786  16.500  0.00  0.00    +0.000 C 
ATOM      3  O   UNL     1       7.508   5.069  16.999  0.00  0.00    +0.000 OA
ATOM      4  N   UNL     1       6.705   7.177  16.589  0.00  0.00    +0.000 N 
ATOM      5  H   UNL     1       6.230   7.748  15.891  0.00  0.00    +0.000 HD
BRANCH   4   6
ATOM      6  N   UNL     1       7.736   7.764  17.353  0.00  0.00    +0.000 NA
ATOM      7  H   UNL     1       8.022   8.618  16.844  0.00  0.00    +0.000 HD
ATOM      8  H   UNL     1       8.567   7.171  17.283  0.00  0.00    +0.000 HD
ENDBRANCH   4   6
ENDBRANCH   1   2
BRANCH   1   9
ATOM      9  C   UNL     1       5.854   4.109  14.798  0.00  0.00    +0.000 C 
BRANCH   9  10
ATOM     10  C   UNL     1       6.866   4.495  13.712  0.00  0.00    +0.000 C 
BRANCH  10  12
ATOM     11  C   UNL     1       5.108   3.324  12.310  0.00  0.00    +0.000 C 
ATOM     12  C   UNL     1       6.563   3.760  12.401  0.00  0.00    +0.000 C 
ENDBRANCH  10  12
ENDBRANCH   9  10
ENDBRANCH   1   9
BRANCH   1  13
ATOM     13  C   UNL     1       4.279   4.883  16.709  0.00  0.00    +0.000 C 
BRANCH  13  14
ATOM     14  C   UNL     1       4.324   3.445  17.266  0.00  0.00    +0.000 C 
BRANCH  14  15
ATOM     15  O   UNL     1       5.019   3.384  18.510  0.00  0.00    +0.000 OA
ATOM     16  H   UNL     1       4.781   2.556  18.960  0.00  0.00    +0.000 HD
ENDBRANCH  14  15
BRANCH  14  17
ATOM     17  C   UNL     1       2.918   2.877  17.487  0.00  0.00    +0.000 C 
BRANCH  17  18
ATOM     18  O   UNL     1       2.623   2.852  18.876  0.00  0.00    +0.000 OA
BRANCH  18  19
ATOM     19  C   UNL     1       1.255   3.159  19.131  0.00  0.00    +0.000 C 
BRANCH  19  20
ATOM     20  C   UNL     1       1.142   3.770  20.531  0.00  0.00    +0.000 C 
ATOM     21  C   UNL     1       1.625   2.792  21.606  0.00  0.00    +0.000 C 
ATOM     22  C   UNL     1       1.930   5.075  20.598  0.00  0.00    +0.000 C 
ENDBRANCH  19  20
ENDBRANCH  18  19
ENDBRANCH  17  18
ENDBRANCH  14  17
ENDBRANCH  13  14
ENDBRANCH   1  13
TORSDOF 12
ENDMDL
MODEL 6
REMARK VINA RESULT:      -6.1      3.355      5.834
REMARK  Name = 
REMARK  15 active torsions:
REMARK  status: ('A' for Active; 'I' for Inactive)
REMARK    1  A    between atoms: C_1  and  C_2
REMARK    2  A    between atoms: C_2  and  C_3
REMARK    3  A    between atoms: C_3  and  C_4
REMARK    4  A    between atoms: C_4  and  C_5
REMARK    5  A    between atoms: C_5  and  C_6
REMARK    6  A    between atoms: C_5  and  C_15
REMARK    7  A    between atoms: C_6  and  C_7
REMARK    8  A    between atoms: C_7  and  O_8
REMARK    9  A    between atoms: C_7  and  C_9
REMARK   10  A    between atoms: C_9  and  O_10
REMARK   11  A    between atoms: O_10  and  C_11
REMARK   12  A    between atoms: C_11  and  C_12
REMARK   13  A    between atoms: C_12  and  C_13
REMARK   14  A    between atoms: C_12  and  C_14
REMARK   15  A    between atoms: N_17  and  N_18
REMARK                            x       y       z     vdW  Elec       q    Type
REMARK                         _______ _______ _______ _____ _____    ______ ____
ROOT
ATOM      1  C   UNL     1       4.769   5.572  18.010  0.00  0.00    +0.000 C 
ENDROOT
BRANCH   1   2
ATOM      2  C   UNL     1       6.210   5.896  18.426  0.00  0.00    +0.000 C 
ATOM      3  O   UNL     1       6.958   6.637  17.795  0.00  0.00    +0.000 OA
ATOM      4  N   UNL     1       6.620   5.269  19.604  0.00  0.00    +0.000 N 
ATOM      5  H   UNL     1       5.924   4.981  20.290  0.00  0.00    +0.000 HD
BRANCH   4   6
ATOM      6  N   UNL     1       7.959   5.422  20.024  0.00  0.00    +0.000 NA
ATOM      7  H   UNL     1       7.925   5.977  20.896  0.00  0.00    +0.000 HD
ATOM      8  H   UNL     1       8.430   6.055  19.372  0.00  0.00    +0.000 HD
ENDBRANCH   4   6
ENDBRANCH   1   2
BRANCH   1   9
ATOM      9  C   UNL     1       4.074   6.854  17.501  0.00  0.00    +0.000 C 
BRANCH   9  10
ATOM     10  C   UNL     1       2.564   6.927  17.759  0.00  0.00    +0.000 C 
BRANCH  10  12
ATOM     11  C   UNL     1       1.743   9.323  17.862  0.00  0.00    +0.000 C 
ATOM     12  C   UNL     1       2.225   8.120  18.660  0.00  0.00    +0.000 C 
ENDBRANCH  10  12
ENDBRANCH   9  10
ENDBRANCH   1   9
BRANCH   1  13
ATOM     13  C   UNL     1       4.731   4.392  17.010  0.00  0.00    +0.000 C 
BRANCH  13  14
ATOM     14  C   UNL     1       4.152   3.072  17.561  0.00  0.00    +0.000 C 
BRANCH  14  15
ATOM     15  O   UNL     1       4.646   2.786  18.868  0.00  0.00    +0.000 OA
ATOM     16  H   UNL     1       4.026   2.181  19.310  0.00  0.00    +0.000 HD
ENDBRANCH  14  15
BRANCH  14  17
ATOM     17  C   UNL     1       2.622   3.111  17.636  0.00  0.00    +0.000 C 
BRANCH  17  18
ATOM     18  O   UNL     1       2.186   2.518  18.852  0.00  0.00    +0.000 OA
BRANCH  18  19
ATOM     19  C   UNL     1       0.950   3.072  19.296  0.00  0.00    +0.000 C 
BRANCH  19  20
ATOM     20  C   UNL     1       1.139   3.618  20.714  0.00  0.00    +0.000 C 
ATOM     21  C   UNL     1       1.851   2.602  21.611  0.00  0.00    +0.000 C 
ATOM     22  C   UNL     1       1.912   4.933  20.671  0.00  0.00    +0.000 C 
ENDBRANCH  19  20
ENDBRANCH  18  19
ENDBRANCH  17  18
ENDBRANCH  14  17
ENDBRANCH  13  14
ENDBRANCH   1  13
TORSDOF 12
ENDMDL
MODEL 7
REMARK VINA RESULT:      -6.0      2.141      2.462
REMARK  Name = 
REMARK  15 active torsions:
REMARK  status: ('A' for Active; 'I' for Inactive)
REMARK    1  A    between atoms: C_1  and  C_2
REMARK    2  A    between atoms: C_2  and  C_3
REMARK    3  A    between atoms: C_3  and  C_4
REMARK    4  A    between atoms: C_4  and  C_5
REMARK    5  A    between atoms: C_5  and  C_6
REMARK    6  A    between atoms: C_5  and  C_15
REMARK    7  A    between atoms: C_6  and  C_7
REMARK    8  A    between atoms: C_7  and  O_8
REMARK    9  A    between atoms: C_7  and  C_9
REMARK   10  A    between atoms: C_9  and  O_10
REMARK   11  A    between atoms: O_10  and  C_11
REMARK   12  A    between atoms: C_11  and  C_12
REMARK   13  A    between atoms: C_12  and  C_13
REMARK   14  A    between atoms: C_12  and  C_14
REMARK   15  A    between atoms: N_17  and  N_18
REMARK                            x       y       z     vdW  Elec       q    Type
REMARK                         _______ _______ _______ _____ _____    ______ ____
ROOT
ATOM      1  C   UNL     1       4.456   4.255  17.446  0.00  0.00    +0.000 C 
ENDROOT
BRANCH   1   2
ATOM      2  C   UNL     1       4.484   3.049  18.395  0.00  0.00    +0.000 C 
ATOM      3  O   UNL     1       4.901   3.090  19.548  0.00  0.00    +0.000 OA
ATOM      4  N   UNL     1       3.988   1.870  17.835  0.00  0.00    +0.000 N 
ATOM      5  H   UNL     1       3.328   1.918  17.061  0.00  0.00    +0.000 HD
BRANCH   4   6
ATOM      6  N   UNL     1       4.059   0.679  18.589  0.00  0.00    +0.000 NA
ATOM      7  H   UNL     1       5.062   0.516  18.778  0.00  0.00    +0.000 HD
ATOM      8  H   UNL     1       3.815  -0.104  17.977  0.00  0.00    +0.000 HD
ENDBRANCH   4   6
ENDBRANCH   1   2
BRANCH   1   9
ATOM      9  C   UNL     1       3.393   5.268  17.924  0.00  0.00    +0.000 C 
BRANCH   9  10
ATOM     10  C   UNL     1       2.005   4.678  18.202  0.00  0.00    +0.000 C 
BRANCH  10  12
ATOM     11  C   UNL     1       1.222   3.454  20.280  0.00  0.00    +0.000 C 
ATOM     12  C   UNL     1       1.655   4.789  19.690  0.00  0.00    +0.000 C 
ENDBRANCH  10  12
ENDBRANCH   9  10
ENDBRANCH   1   9
BRANCH   1  13
ATOM     13  C   UNL     1       5.871   4.858  17.272  0.00  0.00    +0.000 C 
BRANCH  13  14
ATOM     14  C   UNL     1       6.240   5.280  15.834  0.00  0.00    +0.000 C 
BRANCH  14  15
ATOM     15  O   UNL     1       7.412   6.092  15.809  0.00  0.00    +0.000 OA
ATOM     16  H   UNL     1       8.112   5.615  15.332  0.00  0.00    +0.000 HD
ENDBRANCH  14  15
BRANCH  14  17
ATOM     17  C   UNL     1       6.491   4.066  14.933  0.00  0.00    +0.000 C 
BRANCH  17  18
ATOM     18  O   UNL     1       5.631   4.122  13.803  0.00  0.00    +0.000 OA
BRANCH  18  19
ATOM     19  C   UNL     1       6.267   3.622  12.630  0.00  0.00    +0.000 C 
BRANCH  19  20
ATOM     20  C   UNL     1       5.362   2.561  11.996  0.00  0.00    +0.000 C 
ATOM     21  C   UNL     1       4.248   3.204  11.167  0.00  0.00    +0.000 C 
ATOM     22  C   UNL     1       6.191   1.610  11.138  0.00  0.00    +0.000 C 
ENDBRANCH  19  20
ENDBRANCH  18  19
ENDBRANCH  17  18
ENDBRANCH  14  17
ENDBRANCH  13  14
ENDBRANCH   1  13
TORSDOF 12
ENDMDL
MODEL 8
REMARK VINA RESULT:      -6.0      2.400      3.033
REMARK  Name = 
REMARK  15 active torsions:
REMARK  status: ('A' for Active; 'I' for Inactive)
REMARK    1  A    between atoms: C_1  and  C_2
REMARK    2  A    between atoms: C_2  and  C_3
REMARK    3  A    between atoms: C_3  and  C_4
REMARK    4  A    between atoms: C_4  and  C_5
REMARK    5  A    between atoms: C_5  and  C_6
REMARK    6  A    between atoms: C_5  and  C_15
REMARK    7  A    between atoms: C_6  and  C_7
REMARK    8  A    between atoms: C_7  and  O_8
REMARK    9  A    between atoms: C_7  and  C_9
REMARK   10  A    between atoms: C_9  and  O_10
REMARK   11  A    between atoms: O_10  and  C_11
REMARK   12  A    between atoms: C_11  and  C_12
REMARK   13  A    between atoms: C_12  and  C_13
REMARK   14  A    between atoms: C_12  and  C_14
REMARK   15  A    between atoms: N_17  and  N_18
REMARK                            x       y       z     vdW  Elec       q    Type
REMARK                         _______ _______ _______ _____ _____    ______ ____
ROOT
ATOM      1  C   UNL     1       3.770   4.285  17.610  0.00  0.00    +0.000 C 
ENDROOT
BRANCH   1   2
ATOM      2  C   UNL     1       3.873   2.969  18.392  0.00  0.00    +0.000 C 
ATOM      3  O   UNL     1       3.108   2.020  18.245  0.00  0.00    +0.000 OA
ATOM      4  N   UNL     1       4.926   2.929  19.307  0.00  0.00    +0.000 N 
ATOM      5  H   UNL     1       5.741   3.524  19.165  0.00  0.00    +0.000 HD
BRANCH   4   6
ATOM      6  N   UNL     1       5.052   1.801  20.148  0.00  0.00    +0.000 NA
ATOM      7  H   UNL     1       5.412   2.154  21.051  0.00  0.00    +0.000 HD
ATOM      8  H   UNL     1       5.827   1.229  19.804  0.00  0.00    +0.000 HD
ENDBRANCH   4   6
ENDBRANCH   1   2
BRANCH   1   9
ATOM      9  C   UNL     1       2.559   5.098  18.117  0.00  0.00    +0.000 C 
BRANCH   9  10
ATOM     10  C   UNL     1       2.886   6.502  18.642  0.00  0.00    +0.000 C 
BRANCH  10  12
ATOM     11  C   UNL     1       1.896   8.824  18.410  0.00  0.00    +0.000 C 
ATOM     12  C   UNL     1       2.368   7.576  17.679  0.00  0.00    +0.000 C 
ENDBRANCH  10  12
ENDBRANCH   9  10
ENDBRANCH   1   9
BRANCH   1  13
ATOM     13  C   UNL     1       5.110   5.059  17.645  0.00  0.00    +0.000 C 
BRANCH  13  14
ATOM     14  C   UNL     1       5.667   5.487  16.271  0.00  0.00    +0.000 C 
BRANCH  14  15
ATOM     15  O   UNL     1       5.959   6.883  16.234  0.00  0.00    +0.000 OA
ATOM     16  H   UNL     1       5.137   7.378  16.390  0.00  0.00    +0.000 HD
ENDBRANCH  14  15
BRANCH  14  17
ATOM     17  C   UNL     1       6.951   4.730  15.917  0.00  0.00    +0.000 C 
BRANCH  17  18
ATOM     18  O   UNL     1       7.019   4.533  14.511  0.00  0.00    +0.000 OA
BRANCH  18  19
ATOM     19  C   UNL     1       5.783   4.060  13.983  0.00  0.00    +0.000 C 
BRANCH  19  20
ATOM     20  C   UNL     1       6.051   3.395  12.630  0.00  0.00    +0.000 C 
ATOM     21  C   UNL     1       4.769   3.288  11.799  0.00  0.00    +0.000 C 
ATOM     22  C   UNL     1       7.123   4.169  11.869  0.00  0.00    +0.000 C 
ENDBRANCH  19  20
ENDBRANCH  18  19
ENDBRANCH  17  18
ENDBRANCH  14  17
ENDBRANCH  13  14
ENDBRANCH   1  13
TORSDOF 12
ENDMDL
MODEL 9
REMARK VINA RESULT:      -6.0      2.128      6.071
REMARK  Name = 
REMARK  15 active torsions:
REMARK  status: ('A' for Active; 'I' for Inactive)
REMARK    1  A    between atoms: C_1  and  C_2
REMARK    2  A    between atoms: C_2  and  C_3
REMARK    3  A    between atoms: C_3  and  C_4
REMARK    4  A    between atoms: C_4  and  C_5
REMARK    5  A    between atoms: C_5  and  C_6
REMARK    6  A    between atoms: C_5  and  C_15
REMARK    7  A    between atoms: C_6  and  C_7
REMARK    8  A    between atoms: C_7  and  O_8
REMARK    9  A    between atoms: C_7  and  C_9
REMARK   10  A    between atoms: C_9  and  O_10
REMARK   11  A    between atoms: O_10  and  C_11
REMARK   12  A    between atoms: C_11  and  C_12
REMARK   13  A    between atoms: C_12  and  C_13
REMARK   14  A    between atoms: C_12  and  C_14
REMARK   15  A    between atoms: N_17  and  N_18
REMARK                            x       y       z     vdW  Elec       q    Type
REMARK                         _______ _______ _______ _____ _____    ______ ____
ROOT
ATOM      1  C   UNL     1       5.573   5.099  16.905  0.00  0.00    +0.000 C 
ENDROOT
BRANCH   1   2
ATOM      2  C   UNL     1       6.973   5.092  17.535  0.00  0.00    +0.000 C 
ATOM      3  O   UNL     1       7.917   4.434  17.107  0.00  0.00    +0.000 OA
ATOM      4  N   UNL     1       7.097   5.908  18.661  0.00  0.00    +0.000 N 
ATOM      5  H   UNL     1       6.467   6.700  18.782  0.00  0.00    +0.000 HD
BRANCH   4   6
ATOM      6  N   UNL     1       8.315   5.900  19.374  0.00  0.00    +0.000 NA
ATOM      7  H   UNL     1       8.564   4.905  19.508  0.00  0.00    +0.000 HD
ATOM      8  H   UNL     1       8.131   6.217  20.329  0.00  0.00    +0.000 HD
ENDBRANCH   4   6
ENDBRANCH   1   2
BRANCH   1   9
ATOM      9  C   UNL     1       5.672   5.529  15.426  0.00  0.00    +0.000 C 
BRANCH   9  10
ATOM     10  C   UNL     1       5.281   4.453  14.404  0.00  0.00    +0.000 C 
BRANCH  10  12
ATOM     11  C   UNL     1       7.593   5.054  13.556  0.00  0.00    +0.000 C 
ATOM     12  C   UNL     1       6.506   3.991  13.608  0.00  0.00    +0.000 C 
ENDBRANCH  10  12
ENDBRANCH   9  10
ENDBRANCH   1   9
BRANCH   1  13
ATOM     13  C   UNL     1       4.859   3.744  17.124  0.00  0.00    +0.000 C 
BRANCH  13  14
ATOM     14  C   UNL     1       4.234   3.541  18.520  0.00  0.00    +0.000 C 
BRANCH  14  15
ATOM     15  O   UNL     1       5.169   2.980  19.439  0.00  0.00    +0.000 OA
ATOM     16  H   UNL     1       5.873   2.536  18.936  0.00  0.00    +0.000 HD
ENDBRANCH  14  15
BRANCH  14  17
ATOM     17  C   UNL     1       3.727   4.860  19.113  0.00  0.00    +0.000 C 
BRANCH  17  18
ATOM     18  O   UNL     1       3.109   4.615  20.369  0.00  0.00    +0.000 OA
BRANCH  18  19
ATOM     19  C   UNL     1       1.704   4.849  20.320  0.00  0.00    +0.000 C 
BRANCH  19  20
ATOM     20  C   UNL     1       0.978   3.526  20.581  0.00  0.00    +0.000 C 
ATOM     21  C   UNL     1       0.752   2.749  19.281  0.00  0.00    +0.000 C 
ATOM     22  C   UNL     1       1.765   2.684  21.581  0.00  0.00    +0.000 C 
ENDBRANCH  19  20
ENDBRANCH  18  19
ENDBRANCH  17  18
ENDBRANCH  14  17
ENDBRANCH  13  14
ENDBRANCH   1  13
TORSDOF 12
ENDMDL
