MODEL 1
REMARK VINA RESULT:      -7.3      0.000      0.000
REMARK  Name = 
REMARK  9 active torsions:
REMARK  status: ('A' for Active; 'I' for Inactive)
REMARK    1  A    between atoms: C_1  and  C_2
REMARK    2  A    between atoms: C_2  and  O_3
REMARK    3  A    between atoms: O_3  and  C_4
REMARK    4  A    between atoms: C_4  and  C_6
REMARK    5  A    between atoms: C_8  and  C_9
REMARK    6  A    between atoms: C_9  and  C_10
REMARK    7  A    between atoms: C_12  and  N_13
REMARK    8  A    between atoms: C_14  and  C_16
REMARK    9  A    between atoms: C_19  and  N_20
REMARK                            x       y       z     vdW  Elec       q    Type
REMARK                         _______ _______ _______ _____ _____    ______ ____
ROOT
ATOM      1  C   UNL     1       5.768   5.148  18.503  0.00  0.00    +0.000 A 
ATOM      2  C   UNL     1       4.881   5.339  19.621  0.00  0.00    +0.000 A 
ATOM      3  C   UNL     1       3.551   5.157  19.302  0.00  0.00    +0.000 A 
ATOM      4  S   UNL     1       3.362   4.823  17.635  0.00  0.00    +0.000 S 
ATOM      5  C   UNL     1       5.047   4.767  17.391  0.00  0.00    +0.000 A 
ENDROOT
BRANCH   5   6
ATOM      6  N   UNL     1       5.401   4.351  16.128  0.00  0.00    +0.000 N 
ATOM      7  C   UNL     1       5.660   5.254  15.104  0.00  0.00    +0.000 C 
ATOM      8  O   UNL     1       5.637   6.474  15.232  0.00  0.00    +0.000 OA
ATOM      9  H   UNL     1       5.815   3.431  16.032  0.00  0.00    +0.000 HD
BRANCH   7  10
ATOM     10  C   UNL     1       6.074   4.610  13.869  0.00  0.00    +0.000 A 
ATOM     11  C   UNL     1       7.219   4.758  13.096  0.00  0.00    +0.000 A 
ATOM     12  C   UNL     1       7.090   3.883  11.986  0.00  0.00    +0.000 A 
ATOM     13  C   UNL     1       5.877   3.263  12.150  0.00  0.00    +0.000 A 
ATOM     14  O   UNL     1       5.252   3.672  13.288  0.00  0.00    +0.000 OA
BRANCH  13  15
ATOM     15  N   UNL     1       5.183   2.294  11.362  0.00  0.00    +0.000 N 
ATOM     16  O   UNL     1       4.072   2.629  10.929  0.00  0.00    +0.000 OA
ATOM     17  O   UNL     1       5.739   1.206  11.169  0.00  0.00    +0.000 OA
ENDBRANCH  13  15
ENDBRANCH   7  10
ENDBRANCH   5   6
BRANCH   1  18
ATOM     18  C   UNL     1       7.211   5.350  18.543  0.00  0.00    +0.000 C 
ATOM     19  O   UNL     1       8.040   4.463  18.373  0.00  0.00    +0.000 OA
BRANCH  18  20
ATOM     20  O   UNL     1       7.517   6.655  18.803  0.00  0.00    +0.000 OA
BRANCH  20  22
ATOM     21  C   UNL     1       8.287   8.799  18.090  0.00  0.00    +0.000 C 
ATOM     22  C   UNL     1       7.685   7.478  17.646  0.00  0.00    +0.000 C 
ENDBRANCH  20  22
ENDBRANCH  18  20
ENDBRANCH   1  18
BRANCH   3  23
ATOM     23  C   UNL     1       2.369   5.269  20.216  0.00  0.00    +0.000 C 
ATOM     24  C   UNL     1       1.861   3.906  20.668  0.00  0.00    +0.000 C 
ENDBRANCH   3  23
TORSDOF 7
ENDMDL
MODEL 2
REMARK VINA RESULT:      -7.3      3.161      6.546
REMARK  Name = 
REMARK  9 active torsions:
REMARK  status: ('A' for Active; 'I' for Inactive)
REMARK    1  A    between atoms: C_1  and  C_2
REMARK    2  A    between atoms: C_2  and  O_3
REMARK    3  A    between atoms: O_3  and  C_4
REMARK    4  A    between atoms: C_4  and  C_6
REMARK    5  A    between atoms: C_8  and  C_9
REMARK    6  A    between atoms: C_9  and  C_10
REMARK    7  A    between atoms: C_12  and  N_13
REMARK    8  A    between atoms: C_14  and  C_16
REMARK    9  A    between atoms: C_19  and  N_20
REMARK                            x       y       z     vdW  Elec       q    Type
REMARK                         _______ _______ _______ _____ _____    ______ ____
ROOT
ATOM      1  C   UNL     1       6.795   4.903  16.439  0.00  0.00    +0.000 A 
ATOM      2  C   UNL     1       7.394   5.101  15.145  0.00  0.00    +0.000 A 
ATOM      3  C   UNL     1       6.722   4.456  14.127  0.00  0.00    +0.000 A 
ATOM      4  S   UNL     1       5.407   3.551  14.738  0.00  0.00    +0.000 S 
ATOM      5  C   UNL     1       5.647   4.149  16.315  0.00  0.00    +0.000 A 
ENDROOT
BRANCH   5   6
ATOM      6  N   UNL     1       4.654   3.781  17.195  0.00  0.00    +0.000 N 
ATOM      7  C   UNL     1       3.707   4.689  17.651  0.00  0.00    +0.000 C 
ATOM      8  O   UNL     1       3.640   5.862  17.296  0.00  0.00    +0.000 OA
ATOM      9  H   UNL     1       4.395   2.803  17.234  0.00  0.00    +0.000 HD
BRANCH   7  10
ATOM     10  C   UNL     1       2.714   4.085  18.525  0.00  0.00    +0.000 A 
ATOM     11  C   UNL     1       1.347   3.896  18.368  0.00  0.00    +0.000 A 
ATOM     12  C   UNL     1       0.875   3.261  19.546  0.00  0.00    +0.000 A 
ATOM     13  C   UNL     1       1.980   3.108  20.345  0.00  0.00    +0.000 A 
ATOM     14  O   UNL     1       3.106   3.581  19.744  0.00  0.00    +0.000 OA
BRANCH  13  15
ATOM     15  N   UNL     1       2.148   2.553  21.651  0.00  0.00    +0.000 N 
ATOM     16  O   UNL     1       1.130   2.477  22.352  0.00  0.00    +0.000 OA
ATOM     17  O   UNL     1       3.285   2.189  21.979  0.00  0.00    +0.000 OA
ENDBRANCH  13  15
ENDBRANCH   7  10
ENDBRANCH   5   6
BRANCH   1  18
ATOM     18  C   UNL     1       7.340   5.407  17.693  0.00  0.00    +0.000 C 
ATOM     19  O   UNL     1       7.899   4.711  18.535  0.00  0.00    +0.000 OA
BRANCH  18  20
ATOM     20  O   UNL     1       7.137   6.751  17.813  0.00  0.00    +0.000 OA
BRANCH  20  22
ATOM     21  C   UNL     1       8.172   8.899  17.935  0.00  0.00    +0.000 C 
ATOM     22  C   UNL     1       8.201   7.469  18.444  0.00  0.00    +0.000 C 
ENDBRANCH  20  22
ENDBRANCH  18  20
ENDBRANCH   1  18
BRANCH   3  23
ATOM     23  C   UNL     1       7.063   4.454  12.667  0.00  0.00    +0.000 C 
ATOM     24  C   UNL     1       6.354   3.336  11.914  0.00  0.00    +0.000 C 
ENDBRANCH   3  23
TORSDOF 7
ENDMDL
MODEL 3
REMARK VINA RESULT:      -7.0      4.202      7.619
REMARK  Name = 
REMARK  9 active torsions:
REMARK  status: ('A' for Active; 'I' for Inactive)
REMARK    1  A    between atoms: C_1  and  C_2
REMARK    2  A    between atoms: C_2  and  O_3
REMARK    3  A    between atoms: O_3  and  C_4
REMARK    4  A    between atoms: C_4  and  C_6
REMARK    5  A    between atoms: C_8  and  C_9
REMARK    6  A    between atoms: C_9  and  C_10
REMARK    7  A    between atoms: C_12  and  N_13
REMARK    8  A    between atoms: C_14  and  C_16
REMARK    9  A    between atoms: C_19  and  N_20
REMARK                            x       y       z     vdW  Elec       q    Type
REMARK                         _______ _______ _______ _____ _____    ______ ____
ROOT
ATOM      1  C   UNL     1       6.006   5.432  17.808  0.00  0.00    +0.000 A 
ATOM      2  C   UNL     1       6.812   4.758  16.824  0.00  0.00    +0.000 A 
ATOM      3  C   UNL     1       6.495   5.103  15.527  0.00  0.00    +0.000 A 
ATOM      4  S   UNL     1       5.175   6.189  15.488  0.00  0.00    +0.000 S 
ATOM      5  C   UNL     1       5.144   6.311  17.187  0.00  0.00    +0.000 A 
ENDROOT
BRANCH   5   6
ATOM      6  N   UNL     1       4.267   7.266  17.649  0.00  0.00    +0.000 N 
ATOM      7  C   UNL     1       2.951   6.958  17.971  0.00  0.00    +0.000 C 
ATOM      8  O   UNL     1       2.467   5.832  17.913  0.00  0.00    +0.000 OA
ATOM      9  H   UNL     1       4.655   8.092  18.088  0.00  0.00    +0.000 HD
BRANCH   7  10
ATOM     10  C   UNL     1       2.212   8.094  18.495  0.00  0.00    +0.000 A 
ATOM     11  C   UNL     1       1.870   9.311  17.919  0.00  0.00    +0.000 A 
ATOM     12  C   UNL     1       1.153  10.050  18.897  0.00  0.00    +0.000 A 
ATOM     13  C   UNL     1       1.108   9.240  20.004  0.00  0.00    +0.000 A 
ATOM     14  O   UNL     1       1.725   8.047  19.781  0.00  0.00    +0.000 OA
BRANCH  13  15
ATOM     15  N   UNL     1       0.542   9.425  21.302  0.00  0.00    +0.000 N 
ATOM     16  O   UNL     1       0.911  10.428  21.926  0.00  0.00    +0.000 OA
ATOM     17  O   UNL     1      -0.271   8.580  21.700  0.00  0.00    +0.000 OA
ENDBRANCH  13  15
ENDBRANCH   7  10
ENDBRANCH   5   6
BRANCH   1  18
ATOM     18  C   UNL     1       6.079   5.198  19.245  0.00  0.00    +0.000 C 
ATOM     19  O   UNL     1       7.080   5.389  19.927  0.00  0.00    +0.000 OA
BRANCH  18  20
ATOM     20  O   UNL     1       4.891   4.731  19.729  0.00  0.00    +0.000 OA
BRANCH  20  22
ATOM     21  C   UNL     1       3.230   3.033  19.961  0.00  0.00    +0.000 C 
ATOM     22  C   UNL     1       4.597   3.372  19.395  0.00  0.00    +0.000 C 
ENDBRANCH  20  22
ENDBRANCH  18  20
ENDBRANCH   1  18
BRANCH   3  23
ATOM     23  C   UNL     1       7.133   4.602  14.266  0.00  0.00    +0.000 C 
ATOM     24  C   UNL     1       6.164   3.794  13.414  0.00  0.00    +0.000 C 
ENDBRANCH   3  23
TORSDOF 7
ENDMDL
MODEL 4
REMARK VINA RESULT:      -7.0      4.796      8.478
REMARK  Name = 
REMARK  9 active torsions:
REMARK  status: ('A' for Active; 'I' for Inactive)
REMARK    1  A    between atoms: C_1  and  C_2
REMARK    2  A    between atoms: C_2  and  O_3
REMARK    3  A    between atoms: O_3  and  C_4
REMARK    4  A    between atoms: C_4  and  C_6
REMARK    5  A    between atoms: C_8  and  C_9
REMARK    6  A    between atoms: C_9  and  C_10
REMARK    7  A    between atoms: C_12  and  N_13
REMARK    8  A    between atoms: C_14  and  C_16
REMARK    9  A    between atoms: C_19  and  N_20
REMARK                            x       y       z     vdW  Elec       q    Type
REMARK                         _______ _______ _______ _____ _____    ______ ____
ROOT
ATOM      1  C   UNL     1       3.262   4.699  17.594  0.00  0.00    +0.000 A 
ATOM      2  C   UNL     1       4.428   4.103  16.996  0.00  0.00    +0.000 A 
ATOM      3  C   UNL     1       5.509   4.958  16.936  0.00  0.00    +0.000 A 
ATOM      4  S   UNL     1       5.100   6.506  17.536  0.00  0.00    +0.000 S 
ATOM      5  C   UNL     1       3.551   5.981  18.012  0.00  0.00    +0.000 A 
ENDROOT
BRANCH   5   6
ATOM      6  N   UNL     1       2.854   6.923  18.735  0.00  0.00    +0.000 N 
ATOM      7  C   UNL     1       2.404   8.103  18.156  0.00  0.00    +0.000 C 
ATOM      8  O   UNL     1       2.544   8.395  16.973  0.00  0.00    +0.000 OA
ATOM      9  H   UNL     1       2.366   6.615  19.567  0.00  0.00    +0.000 HD
BRANCH   7  10
ATOM     10  C   UNL     1       1.640   8.931  19.075  0.00  0.00    +0.000 A 
ATOM     11  C   UNL     1       1.150  10.225  18.953  0.00  0.00    +0.000 A 
ATOM     12  C   UNL     1       0.485  10.536  20.168  0.00  0.00    +0.000 A 
ATOM     13  C   UNL     1       0.615   9.418  20.951  0.00  0.00    +0.000 A 
ATOM     14  O   UNL     1       1.293   8.428  20.308  0.00  0.00    +0.000 OA
BRANCH  13  15
ATOM     15  N   UNL     1       0.174   9.121  22.277  0.00  0.00    +0.000 N 
ATOM     16  O   UNL     1      -0.766   8.322  22.379  0.00  0.00    +0.000 OA
ATOM     17  O   UNL     1       0.760   9.676  23.216  0.00  0.00    +0.000 OA
ENDBRANCH  13  15
ENDBRANCH   7  10
ENDBRANCH   5   6
BRANCH   1  18
ATOM     18  C   UNL     1       1.964   4.047  17.714  0.00  0.00    +0.000 C 
ATOM     19  O   UNL     1       0.925   4.477  17.225  0.00  0.00    +0.000 OA
BRANCH  18  20
ATOM     20  O   UNL     1       2.055   2.902  18.452  0.00  0.00    +0.000 OA
BRANCH  20  22
ATOM     21  C   UNL     1       1.129   3.194  20.632  0.00  0.00    +0.000 C 
ATOM     22  C   UNL     1       0.907   2.606  19.251  0.00  0.00    +0.000 C 
ENDBRANCH  20  22
ENDBRANCH  18  20
ENDBRANCH   1  18
BRANCH   3  23
ATOM     23  C   UNL     1       6.874   4.667  16.388  0.00  0.00    +0.000 C 
ATOM     24  C   UNL     1       6.885   4.629  14.866  0.00  0.00    +0.000 C 
ENDBRANCH   3  23
TORSDOF 7
ENDMDL
MODEL 5
REMARK VINA RESULT:      -7.0      2.844      4.513
REMARK  Name = 
REMARK  9 active torsions:
REMARK  status: ('A' for Active; 'I' for Inactive)
REMARK    1  A    between atoms: C_1  and  C_2
REMARK    2  A    between atoms: C_2  and  O_3
REMARK    3  A    between atoms: O_3  and  C_4
REMARK    4  A    between atoms: C_4  and  C_6
REMARK    5  A    between atoms: C_8  and  C_9
REMARK    6  A    between atoms: C_9  and  C_10
REMARK    7  A    between atoms: C_12  and  N_13
REMARK    8  A    between atoms: C_14  and  C_16
REMARK    9  A    between atoms: C_19  and  N_20
REMARK                            x       y       z     vdW  Elec       q    Type
REMARK                         _______ _______ _______ _____ _____    ______ ____
ROOT
ATOM      1  C   UNL     1       2.772   6.120  19.495  0.00  0.00    +0.000 A 
ATOM      2  C   UNL     1       1.962   7.134  20.119  0.00  0.00    +0.000 A 
ATOM      3  C   UNL     1       1.811   8.266  19.345  0.00  0.00    +0.000 A 
ATOM      4  S   UNL     1       2.704   8.140  17.893  0.00  0.00    +0.000 S 
ATOM      5  C   UNL     1       3.149   6.531  18.233  0.00  0.00    +0.000 A 
ENDROOT
BRANCH   5   6
ATOM      6  N   UNL     1       3.806   5.915  17.192  0.00  0.00    +0.000 N 
ATOM      7  C   UNL     1       5.184   6.004  17.040  0.00  0.00    +0.000 C 
ATOM      8  O   UNL     1       5.932   6.589  17.816  0.00  0.00    +0.000 OA
ATOM      9  H   UNL     1       3.355   5.122  16.752  0.00  0.00    +0.000 HD
BRANCH   7  10
ATOM     10  C   UNL     1       5.682   5.234  15.913  0.00  0.00    +0.000 A 
ATOM     11  C   UNL     1       5.424   3.931  15.505  0.00  0.00    +0.000 A 
ATOM     12  C   UNL     1       6.197   3.697  14.338  0.00  0.00    +0.000 A 
ATOM     13  C   UNL     1       6.878   4.867  14.112  0.00  0.00    +0.000 A 
ATOM     14  O   UNL     1       6.571   5.816  15.038  0.00  0.00    +0.000 OA
BRANCH  13  15
ATOM     15  N   UNL     1       7.816   5.249  13.104  0.00  0.00    +0.000 N 
ATOM     16  O   UNL     1       8.746   5.981  13.466  0.00  0.00    +0.000 OA
ATOM     17  O   UNL     1       7.634   4.819  11.957  0.00  0.00    +0.000 OA
ENDBRANCH  13  15
ENDBRANCH   7  10
ENDBRANCH   5   6
BRANCH   1  18
ATOM     18  C   UNL     1       3.154   4.860  20.119  0.00  0.00    +0.000 C 
ATOM     19  O   UNL     1       4.195   4.256  19.882  0.00  0.00    +0.000 OA
BRANCH  18  20
ATOM     20  O   UNL     1       2.196   4.434  20.994  0.00  0.00    +0.000 OA
BRANCH  20  22
ATOM     21  C   UNL     1       1.272   2.545  19.865  0.00  0.00    +0.000 C 
ATOM     22  C   UNL     1       0.998   3.944  20.386  0.00  0.00    +0.000 C 
ENDBRANCH  20  22
ENDBRANCH  18  20
ENDBRANCH   1  18
BRANCH   3  23
ATOM     23  C   UNL     1       1.032   9.503  19.680  0.00  0.00    +0.000 C 
ATOM     24  C   UNL     1       0.420   9.436  21.072  0.00  0.00    +0.000 C 
ENDBRANCH   3  23
TORSDOF 7
ENDMDL
MODEL 6
REMARK VINA RESULT:      -6.9      2.377      3.592
REMARK  Name = 
REMARK  9 active torsions:
REMARK  status: ('A' for Active; 'I' for Inactive)
REMARK    1  A    between atoms: C_1  and  C_2
REMARK    2  A    between atoms: C_2  and  O_3
REMARK    3  A    between atoms: O_3  and  C_4
REMARK    4  A    between atoms: C_4  and  C_6
REMARK    5  A    between atoms: C_8  and  C_9
REMARK    6  A    between atoms: C_9  and  C_10
REMARK    7  A    between atoms: C_12  and  N_13
REMARK    8  A    between atoms: C_14  and  C_16
REMARK    9  A    between atoms: C_19  and  N_20
REMARK                            x       y       z     vdW  Elec       q    Type
REMARK                         _______ _______ _______ _____ _____    ______ ____
ROOT
ATOM      1  C   UNL     1       2.478   5.839  18.767  0.00  0.00    +0.000 A 
ATOM      2  C   UNL     1       1.729   5.266  19.855  0.00  0.00    +0.000 A 
ATOM      3  C   UNL     1       1.644   3.890  19.795  0.00  0.00    +0.000 A 
ATOM      4  S   UNL     1       2.409   3.290  18.388  0.00  0.00    +0.000 S 
ATOM      5  C   UNL     1       2.976   4.838  17.960  0.00  0.00    +0.000 A 
ENDROOT
BRANCH   5   6
ATOM      6  N   UNL     1       3.836   4.826  16.886  0.00  0.00    +0.000 N 
ATOM      7  C   UNL     1       5.199   4.603  17.041  0.00  0.00    +0.000 C 
ATOM      8  O   UNL     1       5.746   4.363  18.112  0.00  0.00    +0.000 OA
ATOM      9  H   UNL     1       3.449   4.625  15.972  0.00  0.00    +0.000 HD
BRANCH   7  10
ATOM     10  C   UNL     1       5.917   4.572  15.777  0.00  0.00    +0.000 A 
ATOM     11  C   UNL     1       7.118   5.152  15.390  0.00  0.00    +0.000 A 
ATOM     12  C   UNL     1       7.334   4.799  14.032  0.00  0.00    +0.000 A 
ATOM     13  C   UNL     1       6.253   4.032  13.679  0.00  0.00    +0.000 A 
ATOM     14  O   UNL     1       5.392   3.865  14.719  0.00  0.00    +0.000 OA
BRANCH  13  15
ATOM     15  N   UNL     1       5.891   3.397  12.451  0.00  0.00    +0.000 N 
ATOM     16  O   UNL     1       4.699   3.471  12.124  0.00  0.00    +0.000 OA
ATOM     17  O   UNL     1       6.786   2.830  11.812  0.00  0.00    +0.000 OA
ENDBRANCH  13  15
ENDBRANCH   7  10
ENDBRANCH   5   6
BRANCH   1  18
ATOM     18  C   UNL     1       2.659   7.268  18.545  0.00  0.00    +0.000 C 
ATOM     19  O   UNL     1       3.281   7.750  17.604  0.00  0.00    +0.000 OA
BRANCH  18  20
ATOM     20  O   UNL     1       2.055   8.000  19.527  0.00  0.00    +0.000 OA
BRANCH  20  22
ATOM     21  C   UNL     1       0.387   9.619  20.068  0.00  0.00    +0.000 C 
ATOM     22  C   UNL     1       1.488   9.239  19.094  0.00  0.00    +0.000 C 
ENDBRANCH  20  22
ENDBRANCH  18  20
ENDBRANCH   1  18
BRANCH   3  23
ATOM     23  C   UNL     1       0.952   2.976  20.760  0.00  0.00    +0.000 C 
ATOM     24  C   UNL     1       1.867   2.542  21.897  0.00  0.00    +0.000 C 
ENDBRANCH   3  23
TORSDOF 7
ENDMDL
MODEL 7
REMARK VINA RESULT:      -6.9      2.655      4.293
REMARK  Name = 
REMARK  9 active torsions:
REMARK  status: ('A' for Active; 'I' for Inactive)
REMARK    1  A    between atoms: C_1  and  C_2
REMARK    2  A    between atoms: C_2  and  O_3
REMARK    3  A    between atoms: O_3  and  C_4
REMARK    4  A    between atoms: C_4  and  C_6
REMARK    5  A    between atoms: C_8  and  C_9
REMARK    6  A    between atoms: C_9  and  C_10
REMARK    7  A    between atoms: C_12  and  N_13
REMARK    8  A    between atoms: C_14  and  C_16
REMARK    9  A    between atoms: C_19  and  N_20
REMARK                            x       y       z     vdW  Elec       q    Type
REMARK                         _______ _______ _______ _____ _____    ______ ____
ROOT
ATOM      1  C   UNL     1       3.085   5.248  19.426  0.00  0.00    +0.000 A 
ATOM      2  C   UNL     1       2.299   6.127  20.252  0.00  0.00    +0.000 A 
ATOM      3  C   UNL     1       2.104   7.374  19.694  0.00  0.00    +0.000 A 
ATOM      4  S   UNL     1       2.930   7.513  18.203  0.00  0.00    +0.000 S 
ATOM      5  C   UNL     1       3.400   5.876  18.239  0.00  0.00    +0.000 A 
ENDROOT
BRANCH   5   6
ATOM      6  N   UNL     1       4.011   5.458  17.078  0.00  0.00    +0.000 N 
ATOM      7  C   UNL     1       5.388   5.536  16.906  0.00  0.00    +0.000 C 
ATOM      8  O   UNL     1       6.173   5.934  17.760  0.00  0.00    +0.000 OA
ATOM      9  H   UNL     1       3.523   4.782  16.504  0.00  0.00    +0.000 HD
BRANCH   7  10
ATOM     10  C   UNL     1       5.833   4.989  15.635  0.00  0.00    +0.000 A 
ATOM     11  C   UNL     1       5.457   3.843  14.947  0.00  0.00    +0.000 A 
ATOM     12  C   UNL     1       6.230   3.797  13.757  0.00  0.00    +0.000 A 
ATOM     13  C   UNL     1       7.028   4.913  13.799  0.00  0.00    +0.000 A 
ATOM     14  O   UNL     1       6.795   5.658  14.913  0.00  0.00    +0.000 OA
BRANCH  13  15
ATOM     15  N   UNL     1       8.023   5.411  12.902  0.00  0.00    +0.000 N 
ATOM     16  O   UNL     1       7.806   5.249  11.694  0.00  0.00    +0.000 OA
ATOM     17  O   UNL     1       9.013   5.967  13.395  0.00  0.00    +0.000 OA
ENDBRANCH  13  15
ENDBRANCH   7  10
ENDBRANCH   5   6
BRANCH   1  18
ATOM     18  C   UNL     1       3.504   3.904  19.804  0.00  0.00    +0.000 C 
ATOM     19  O   UNL     1       4.626   3.449  19.615  0.00  0.00    +0.000 OA
BRANCH  18  20
ATOM     20  O   UNL     1       2.479   3.216  20.387  0.00  0.00    +0.000 OA
BRANCH  20  22
ATOM     21  C   UNL     1       0.730   2.636  18.870  0.00  0.00    +0.000 C 
ATOM     22  C   UNL     1       1.958   2.136  19.609  0.00  0.00    +0.000 C 
ENDBRANCH  20  22
ENDBRANCH  18  20
ENDBRANCH   1  18
BRANCH   3  23
ATOM     23  C   UNL     1       1.334   8.522  20.273  0.00  0.00    +0.000 C 
ATOM     24  C   UNL     1       0.465   8.096  21.448  0.00  0.00    +0.000 C 
ENDBRANCH   3  23
TORSDOF 7
ENDMDL
MODEL 8
REMARK VINA RESULT:      -6.9      4.759      8.542
REMARK  Name = 
REMARK  9 active torsions:
REMARK  status: ('A' for Active; 'I' for Inactive)
REMARK    1  A    between atoms: C_1  and  C_2
REMARK    2  A    between atoms: C_2  and  O_3
REMARK    3  A    between atoms: O_3  and  C_4
REMARK    4  A    between atoms: C_4  and  C_6
REMARK    5  A    between atoms: C_8  and  C_9
REMARK    6  A    between atoms: C_9  and  C_10
REMARK    7  A    between atoms: C_12  and  N_13
REMARK    8  A    between atoms: C_14  and  C_16
REMARK    9  A    between atoms: C_19  and  N_20
REMARK                            x       y       z     vdW  Elec       q    Type
REMARK                         _______ _______ _______ _____ _____    ______ ____
ROOT
ATOM      1  C   UNL     1       3.426   4.495  17.582  0.00  0.00    +0.000 A 
ATOM      2  C   UNL     1       4.503   4.097  16.713  0.00  0.00    +0.000 A 
ATOM      3  C   UNL     1       5.462   5.075  16.548  0.00  0.00    +0.000 A 
ATOM      4  S   UNL     1       5.032   6.502  17.386  0.00  0.00    +0.000 S 
ATOM      5  C   UNL     1       3.667   5.757  18.081  0.00  0.00    +0.000 A 
ENDROOT
BRANCH   5   6
ATOM      6  N   UNL     1       3.039   6.540  19.023  0.00  0.00    +0.000 N 
ATOM      7  C   UNL     1       2.291   7.656  18.668  0.00  0.00    +0.000 C 
ATOM      8  O   UNL     1       2.090   8.019  17.513  0.00  0.00    +0.000 OA
ATOM      9  H   UNL     1       2.824   6.121  19.919  0.00  0.00    +0.000 HD
BRANCH   7  10
ATOM     10  C   UNL     1       1.665   8.307  19.807  0.00  0.00    +0.000 A 
ATOM     11  C   UNL     1       1.450   7.872  21.108  0.00  0.00    +0.000 A 
ATOM     12  C   UNL     1       0.782   8.920  21.794  0.00  0.00    +0.000 A 
ATOM     13  C   UNL     1       0.629   9.922  20.868  0.00  0.00    +0.000 A 
ATOM     14  O   UNL     1       1.170   9.583  19.666  0.00  0.00    +0.000 OA
BRANCH  13  15
ATOM     15  N   UNL     1       0.026  11.214  20.948  0.00  0.00    +0.000 N 
ATOM     16  O   UNL     1      -0.742  11.521  20.027  0.00  0.00    +0.000 OA
ATOM     17  O   UNL     1       0.310  11.922  21.923  0.00  0.00    +0.000 OA
ENDBRANCH  13  15
ENDBRANCH   7  10
ENDBRANCH   5   6
BRANCH   1  18
ATOM     18  C   UNL     1       2.248   3.686  17.869  0.00  0.00    +0.000 C 
ATOM     19  O   UNL     1       1.952   2.657  17.272  0.00  0.00    +0.000 OA
BRANCH  18  20
ATOM     20  O   UNL     1       1.512   4.232  18.881  0.00  0.00    +0.000 OA
BRANCH  20  22
ATOM     21  C   UNL     1       1.819   3.896  21.224  0.00  0.00    +0.000 C 
ATOM     22  C   UNL     1       1.205   3.337  19.954  0.00  0.00    +0.000 C 
ENDBRANCH  20  22
ENDBRANCH  18  20
ENDBRANCH   1  18
BRANCH   3  23
ATOM     23  C   UNL     1       6.712   4.997  15.724  0.00  0.00    +0.000 C 
ATOM     24  C   UNL     1       6.443   4.470  14.321  0.00  0.00    +0.000 C 
ENDBRANCH   3  23
TORSDOF 7
ENDMDL
MODEL 9
REMARK VINA RESULT:      -6.9      3.334      6.570
REMARK  Name = 
REMARK  9 active torsions:
REMARK  status: ('A' for Active; 'I' for Inactive)
REMARK    1  A    between atoms: C_1  and  C_2
REMARK    2  A    between atoms: C_2  and  O_3
REMARK    3  A    between atoms: O_3  and  C_4
REMARK    4  A    between atoms: C_4  and  C_6
REMARK    5  A    between atoms: C_8  and  C_9
REMARK    6  A    between atoms: C_9  and  C_10
REMARK    7  A    between atoms: C_12  and  N_13
REMARK    8  A    between atoms: C_14  and  C_16
REMARK    9  A    between atoms: C_19  and  N_20
REMARK                            x       y       z     vdW  Elec       q    Type
REMARK                         _______ _______ _______ _____ _____    ______ ____
ROOT
ATOM      1  C   UNL     1       6.850   5.574  16.510  0.00  0.00    +0.000 A 
ATOM      2  C   UNL     1       7.317   5.379  15.162  0.00  0.00    +0.000 A 
ATOM      3  C   UNL     1       6.550   4.486  14.441  0.00  0.00    +0.000 A 
ATOM      4  S   UNL     1       5.304   3.829  15.411  0.00  0.00    +0.000 S 
ATOM      5  C   UNL     1       5.698   4.847  16.718  0.00  0.00    +0.000 A 
ENDROOT
BRANCH   5   6
ATOM      6  N   UNL     1       4.799   4.772  17.758  0.00  0.00    +0.000 N 
ATOM      7  C   UNL     1       3.943   5.823  18.063  0.00  0.00    +0.000 C 
ATOM      8  O   UNL     1       3.879   6.873  17.432  0.00  0.00    +0.000 OA
ATOM      9  H   UNL     1       4.510   3.852  18.069  0.00  0.00    +0.000 HD
BRANCH   7  10
ATOM     10  C   UNL     1       3.035   5.518  19.156  0.00  0.00    +0.000 A 
ATOM     11  C   UNL     1       2.279   6.343  19.979  0.00  0.00    +0.000 A 
ATOM     12  C   UNL     1       1.581   5.503  20.886  0.00  0.00    +0.000 A 
ATOM     13  C   UNL     1       1.959   4.225  20.563  0.00  0.00    +0.000 A 
ATOM     14  O   UNL     1       2.822   4.205  19.510  0.00  0.00    +0.000 OA
BRANCH  13  15
ATOM     15  N   UNL     1       1.611   2.955  21.117  0.00  0.00    +0.000 N 
ATOM     16  O   UNL     1       1.310   2.065  20.311  0.00  0.00    +0.000 OA
ATOM     17  O   UNL     1       1.639   2.839  22.349  0.00  0.00    +0.000 OA
ENDBRANCH  13  15
ENDBRANCH   7  10
ENDBRANCH   5   6
BRANCH   1  18
ATOM     18  C   UNL     1       7.516   6.402  17.508  0.00  0.00    +0.000 C 
ATOM     19  O   UNL     1       7.690   6.073  18.676  0.00  0.00    +0.000 OA
BRANCH  18  20
ATOM     20  O   UNL     1       7.909   7.596  16.974  0.00  0.00    +0.000 OA
BRANCH  20  22
ATOM     21  C   UNL     1       8.581   9.508  18.234  0.00  0.00    +0.000 C 
ATOM     22  C   UNL     1       7.404   8.753  17.645  0.00  0.00    +0.000 C 
ENDBRANCH  20  22
ENDBRANCH  18  20
ENDBRANCH   1  18
BRANCH   3  23
ATOM     23  C   UNL     1       6.743   4.058  13.018  0.00  0.00    +0.000 C 
ATOM     24  C   UNL     1       7.585   5.051  12.229  0.00  0.00    +0.000 C 
ENDBRANCH   3  23
TORSDOF 7
ENDMDL
