MODEL 1
REMARK VINA RESULT:      -6.6      0.000      0.000
REMARK  Name = 
REMARK  7 active torsions:
REMARK  status: ('A' for Active; 'I' for Inactive)
REMARK    1  A    between atoms: C_2  and  C_3
REMARK    2  A    between atoms: C_2  and  C_14
REMARK    3  A    between atoms: C_3  and  C_4
REMARK    4  A    between atoms: C_4  and  C_5
REMARK    5  A    between atoms: C_5  and  C_6
REMARK    6  A    between atoms: C_6  and  C_7
REMARK    7  A    between atoms: C_7  and  C_8
REMARK                            x       y       z     vdW  Elec       q    Type
REMARK                         _______ _______ _______ _____ _____    ______ ____
ROOT
ATOM      1  C   UNL     1       5.811   6.563  17.703  0.00  0.00    +0.000 C 
ENDROOT
BRANCH   1   2
ATOM      2  C   UNL     1       7.277   6.164  17.497  0.00  0.00    +0.000 C 
BRANCH   2   3
ATOM      3  C   UNL     1       7.437   4.799  16.829  0.00  0.00    +0.000 C 
BRANCH   3   5
ATOM      4  O   UNL     1       7.935   5.457  14.566  0.00  0.00    +0.000 OA
ATOM      5  C   UNL     1       7.189   4.837  15.332  0.00  0.00    +0.000 C 
BRANCH   5   6
ATOM      6  C   UNL     1       5.980   4.046  14.853  0.00  0.00    +0.000 C 
ATOM      7  F   UNL     1       6.204   3.418  13.663  0.00  0.00    +0.000 F 
ATOM      8  F   UNL     1       5.614   3.073  15.730  0.00  0.00    +0.000 F 
ATOM      9  F   UNL     1       4.888   4.835  14.660  0.00  0.00    +0.000 F 
ENDBRANCH   5   6
ENDBRANCH   3   5
ENDBRANCH   2   3
ENDBRANCH   1   2
BRANCH   1  10
ATOM     10  C   UNL     1       4.918   5.473  18.306  0.00  0.00    +0.000 C 
BRANCH  10  11
ATOM     11  C   UNL     1       3.565   5.353  17.600  0.00  0.00    +0.000 C 
BRANCH  11  12
ATOM     12  C   UNL     1       2.573   4.568  18.418  0.00  0.00    +0.000 A 
ATOM     13  C   UNL     1       2.028   3.376  17.916  0.00  0.00    +0.000 A 
ATOM     14  C   UNL     1       1.109   2.649  18.671  0.00  0.00    +0.000 A 
ATOM     15  C   UNL     1       0.721   3.107  19.929  0.00  0.00    +0.000 A 
ATOM     16  C   UNL     1       1.252   4.293  20.432  0.00  0.00    +0.000 A 
ATOM     17  C   UNL     1       2.171   5.024  19.680  0.00  0.00    +0.000 A 
ENDBRANCH  11  12
ENDBRANCH  10  11
ENDBRANCH   1  10
TORSDOF 7
ENDMDL
MODEL 2
REMARK VINA RESULT:      -6.5      0.438      1.002
REMARK  Name = 
REMARK  7 active torsions:
REMARK  status: ('A' for Active; 'I' for Inactive)
REMARK    1  A    between atoms: C_2  and  C_3
REMARK    2  A    between atoms: C_2  and  C_14
REMARK    3  A    between atoms: C_3  and  C_4
REMARK    4  A    between atoms: C_4  and  C_5
REMARK    5  A    between atoms: C_5  and  C_6
REMARK    6  A    between atoms: C_6  and  C_7
REMARK    7  A    between atoms: C_7  and  C_8
REMARK                            x       y       z     vdW  Elec       q    Type
REMARK                         _______ _______ _______ _____ _____    ______ ____
ROOT
ATOM      1  C   UNL     1       5.421   6.542  17.212  0.00  0.00    +0.000 C 
ENDROOT
BRANCH   1   2
ATOM      2  C   UNL     1       6.722   5.958  17.776  0.00  0.00    +0.000 C 
BRANCH   2   3
ATOM      3  C   UNL     1       7.209   4.731  17.006  0.00  0.00    +0.000 C 
BRANCH   3   5
ATOM      4  O   UNL     1       7.807   5.686  14.878  0.00  0.00    +0.000 OA
ATOM      5  C   UNL     1       7.097   4.891  15.501  0.00  0.00    +0.000 C 
BRANCH   5   6
ATOM      6  C   UNL     1       6.069   3.992  14.827  0.00  0.00    +0.000 C 
ATOM      7  F   UNL     1       4.937   4.666  14.475  0.00  0.00    +0.000 F 
ATOM      8  F   UNL     1       6.542   3.425  13.685  0.00  0.00    +0.000 F 
ATOM      9  F   UNL     1       5.663   2.973  15.634  0.00  0.00    +0.000 F 
ENDBRANCH   5   6
ENDBRANCH   3   5
ENDBRANCH   2   3
ENDBRANCH   1   2
BRANCH   1  10
ATOM     10  C   UNL     1       4.149   6.160  17.978  0.00  0.00    +0.000 C 
BRANCH  10  11
ATOM     11  C   UNL     1       3.470   4.907  17.418  0.00  0.00    +0.000 C 
BRANCH  11  12
ATOM     12  C   UNL     1       2.503   4.305  18.403  0.00  0.00    +0.000 A 
ATOM     13  C   UNL     1       1.875   3.082  18.120  0.00  0.00    +0.000 A 
ATOM     14  C   UNL     1       0.979   2.523  19.030  0.00  0.00    +0.000 A 
ATOM     15  C   UNL     1       0.698   3.181  20.227  0.00  0.00    +0.000 A 
ATOM     16  C   UNL     1       1.312   4.400  20.513  0.00  0.00    +0.000 A 
ATOM     17  C   UNL     1       2.208   4.962  19.604  0.00  0.00    +0.000 A 
ENDBRANCH  11  12
ENDBRANCH  10  11
ENDBRANCH   1  10
TORSDOF 7
ENDMDL
MODEL 3
REMARK VINA RESULT:      -6.5      2.472      3.225
REMARK  Name = 
REMARK  7 active torsions:
REMARK  status: ('A' for Active; 'I' for Inactive)
REMARK    1  A    between atoms: C_2  and  C_3
REMARK    2  A    between atoms: C_2  and  C_14
REMARK    3  A    between atoms: C_3  and  C_4
REMARK    4  A    between atoms: C_4  and  C_5
REMARK    5  A    between atoms: C_5  and  C_6
REMARK    6  A    between atoms: C_6  and  C_7
REMARK    7  A    between atoms: C_7  and  C_8
REMARK                            x       y       z     vdW  Elec       q    Type
REMARK                         _______ _______ _______ _____ _____    ______ ____
ROOT
ATOM      1  C   UNL     1       4.389   4.174  17.131  0.00  0.00    +0.000 C 
ENDROOT
BRANCH   1   2
ATOM      2  C   UNL     1       5.526   4.090  16.106  0.00  0.00    +0.000 C 
BRANCH   2   3
ATOM      3  C   UNL     1       6.560   5.205  16.267  0.00  0.00    +0.000 C 
BRANCH   3   5
ATOM      4  O   UNL     1       8.236   4.070  17.571  0.00  0.00    +0.000 OA
ATOM      5  C   UNL     1       7.450   5.018  17.483  0.00  0.00    +0.000 C 
BRANCH   5   6
ATOM      6  C   UNL     1       7.313   6.087  18.558  0.00  0.00    +0.000 C 
ATOM      7  F   UNL     1       6.733   7.229  18.088  0.00  0.00    +0.000 F 
ATOM      8  F   UNL     1       6.547   5.677  19.605  0.00  0.00    +0.000 F 
ATOM      9  F   UNL     1       8.516   6.462  19.072  0.00  0.00    +0.000 F 
ENDBRANCH   5   6
ENDBRANCH   3   5
ENDBRANCH   2   3
ENDBRANCH   1   2
BRANCH   1  10
ATOM     10  C   UNL     1       3.934   5.594  17.485  0.00  0.00    +0.000 C 
BRANCH  10  11
ATOM     11  C   UNL     1       2.442   5.677  17.817  0.00  0.00    +0.000 C 
BRANCH  11  12
ATOM     12  C   UNL     1       2.064   4.748  18.941  0.00  0.00    +0.000 A 
ATOM     13  C   UNL     1       2.515   4.998  20.246  0.00  0.00    +0.000 A 
ATOM     14  C   UNL     1       2.167   4.140  21.289  0.00  0.00    +0.000 A 
ATOM     15  C   UNL     1       1.372   3.022  21.037  0.00  0.00    +0.000 A 
ATOM     16  C   UNL     1       0.927   2.762  19.742  0.00  0.00    +0.000 A 
ATOM     17  C   UNL     1       1.273   3.619  18.697  0.00  0.00    +0.000 A 
ENDBRANCH  11  12
ENDBRANCH  10  11
ENDBRANCH   1  10
TORSDOF 7
ENDMDL
MODEL 4
REMARK VINA RESULT:      -6.5      1.120      1.920
REMARK  Name = 
REMARK  7 active torsions:
REMARK  status: ('A' for Active; 'I' for Inactive)
REMARK    1  A    between atoms: C_2  and  C_3
REMARK    2  A    between atoms: C_2  and  C_14
REMARK    3  A    between atoms: C_3  and  C_4
REMARK    4  A    between atoms: C_4  and  C_5
REMARK    5  A    between atoms: C_5  and  C_6
REMARK    6  A    between atoms: C_6  and  C_7
REMARK    7  A    between atoms: C_7  and  C_8
REMARK                            x       y       z     vdW  Elec       q    Type
REMARK                         _______ _______ _______ _____ _____    ______ ____
ROOT
ATOM      1  C   UNL     1       6.675   5.469  19.215  0.00  0.00    +0.000 C 
ENDROOT
BRANCH   1   2
ATOM      2  C   UNL     1       7.286   5.850  17.861  0.00  0.00    +0.000 C 
BRANCH   2   3
ATOM      3  C   UNL     1       7.393   4.667  16.899  0.00  0.00    +0.000 C 
BRANCH   3   5
ATOM      4  O   UNL     1       7.829   5.302  14.617  0.00  0.00    +0.000 OA
ATOM      5  C   UNL     1       6.990   5.019  15.478  0.00  0.00    +0.000 C 
BRANCH   5   6
ATOM      6  C   UNL     1       5.494   4.975  15.197  0.00  0.00    +0.000 C 
ATOM      7  F   UNL     1       4.916   6.209  15.257  0.00  0.00    +0.000 F 
ATOM      8  F   UNL     1       5.211   4.485  13.960  0.00  0.00    +0.000 F 
ATOM      9  F   UNL     1       4.821   4.202  16.092  0.00  0.00    +0.000 F 
ENDBRANCH   5   6
ENDBRANCH   3   5
ENDBRANCH   2   3
ENDBRANCH   1   2
BRANCH   1  10
ATOM     10  C   UNL     1       5.164   5.214  19.199  0.00  0.00    +0.000 C 
BRANCH  10  11
ATOM     11  C   UNL     1       4.809   3.726  19.259  0.00  0.00    +0.000 C 
BRANCH  11  12
ATOM     12  C   UNL     1       3.330   3.509  19.443  0.00  0.00    +0.000 A 
ATOM     13  C   UNL     1       2.618   4.257  20.392  0.00  0.00    +0.000 A 
ATOM     14  C   UNL     1       1.249   4.057  20.565  0.00  0.00    +0.000 A 
ATOM     15  C   UNL     1       0.581   3.104  19.797  0.00  0.00    +0.000 A 
ATOM     16  C   UNL     1       1.282   2.351  18.857  0.00  0.00    +0.000 A 
ATOM     17  C   UNL     1       2.651   2.549  18.682  0.00  0.00    +0.000 A 
ENDBRANCH  11  12
ENDBRANCH  10  11
ENDBRANCH   1  10
TORSDOF 7
ENDMDL
MODEL 5
REMARK VINA RESULT:      -6.4      3.451      5.824
REMARK  Name = 
REMARK  7 active torsions:
REMARK  status: ('A' for Active; 'I' for Inactive)
REMARK    1  A    between atoms: C_2  and  C_3
REMARK    2  A    between atoms: C_2  and  C_14
REMARK    3  A    between atoms: C_3  and  C_4
REMARK    4  A    between atoms: C_4  and  C_5
REMARK    5  A    between atoms: C_5  and  C_6
REMARK    6  A    between atoms: C_6  and  C_7
REMARK    7  A    between atoms: C_7  and  C_8
REMARK                            x       y       z     vdW  Elec       q    Type
REMARK                         _______ _______ _______ _____ _____    ______ ____
ROOT
ATOM      1  C   UNL     1       0.981   3.428  19.043  0.00  0.00    +0.000 C 
ENDROOT
BRANCH   1   2
ATOM      2  C   UNL     1       1.102   4.297  20.300  0.00  0.00    +0.000 C 
BRANCH   2   3
ATOM      3  C   UNL     1       2.513   4.304  20.889  0.00  0.00    +0.000 C 
BRANCH   3   5
ATOM      4  O   UNL     1       2.519   2.258  22.159  0.00  0.00    +0.000 OA
ATOM      5  C   UNL     1       3.017   2.917  21.240  0.00  0.00    +0.000 C 
BRANCH   5   6
ATOM      6  C   UNL     1       4.155   2.400  20.370  0.00  0.00    +0.000 C 
ATOM      7  F   UNL     1       3.715   1.605  19.353  0.00  0.00    +0.000 F 
ATOM      8  F   UNL     1       4.861   3.404  19.786  0.00  0.00    +0.000 F 
ATOM      9  F   UNL     1       5.045   1.648  21.074  0.00  0.00    +0.000 F 
ENDBRANCH   5   6
ENDBRANCH   3   5
ENDBRANCH   2   3
ENDBRANCH   1   2
BRANCH   1  10
ATOM     10  C   UNL     1       1.405   4.110  17.737  0.00  0.00    +0.000 C 
BRANCH  10  11
ATOM     11  C   UNL     1       2.661   3.488  17.120  0.00  0.00    +0.000 C 
BRANCH  11  12
ATOM     12  C   UNL     1       3.772   4.494  16.977  0.00  0.00    +0.000 A 
ATOM     13  C   UNL     1       4.911   4.187  16.217  0.00  0.00    +0.000 A 
ATOM     14  C   UNL     1       5.942   5.116  16.084  0.00  0.00    +0.000 A 
ATOM     15  C   UNL     1       5.848   6.357  16.713  0.00  0.00    +0.000 A 
ATOM     16  C   UNL     1       4.724   6.668  17.476  0.00  0.00    +0.000 A 
ATOM     17  C   UNL     1       3.691   5.740  17.612  0.00  0.00    +0.000 A 
ENDBRANCH  11  12
ENDBRANCH  10  11
ENDBRANCH   1  10
TORSDOF 7
ENDMDL
MODEL 6
REMARK VINA RESULT:      -6.4      2.279      3.189
REMARK  Name = 
REMARK  7 active torsions:
REMARK  status: ('A' for Active; 'I' for Inactive)
REMARK    1  A    between atoms: C_2  and  C_3
REMARK    2  A    between atoms: C_2  and  C_14
REMARK    3  A    between atoms: C_3  and  C_4
REMARK    4  A    between atoms: C_4  and  C_5
REMARK    5  A    between atoms: C_5  and  C_6
REMARK    6  A    between atoms: C_6  and  C_7
REMARK    7  A    between atoms: C_7  and  C_8
REMARK                            x       y       z     vdW  Elec       q    Type
REMARK                         _______ _______ _______ _____ _____    ______ ____
ROOT
ATOM      1  C   UNL     1       5.316   3.998  15.703  0.00  0.00    +0.000 C 
ENDROOT
BRANCH   1   2
ATOM      2  C   UNL     1       5.648   5.486  15.529  0.00  0.00    +0.000 C 
BRANCH   2   3
ATOM      3  C   UNL     1       7.100   5.819  15.869  0.00  0.00    +0.000 C 
BRANCH   3   5
ATOM      4  O   UNL     1       7.126   7.817  17.214  0.00  0.00    +0.000 OA
ATOM      5  C   UNL     1       7.243   6.588  17.170  0.00  0.00    +0.000 C 
BRANCH   5   6
ATOM      6  C   UNL     1       7.518   5.736  18.402  0.00  0.00    +0.000 C 
ATOM      7  F   UNL     1       8.455   6.291  19.222  0.00  0.00    +0.000 F 
ATOM      8  F   UNL     1       6.408   5.553  19.166  0.00  0.00    +0.000 F 
ATOM      9  F   UNL     1       7.985   4.498  18.082  0.00  0.00    +0.000 F 
ENDBRANCH   5   6
ENDBRANCH   3   5
ENDBRANCH   2   3
ENDBRANCH   1   2
BRANCH   1  10
ATOM     10  C   UNL     1       4.342   3.677  16.841  0.00  0.00    +0.000 C 
BRANCH  10  11
ATOM     11  C   UNL     1       3.635   4.919  17.390  0.00  0.00    +0.000 C 
BRANCH  11  12
ATOM     12  C   UNL     1       2.670   4.575  18.493  0.00  0.00    +0.000 A 
ATOM     13  C   UNL     1       2.574   5.392  19.629  0.00  0.00    +0.000 A 
ATOM     14  C   UNL     1       1.681   5.074  20.652  0.00  0.00    +0.000 A 
ATOM     15  C   UNL     1       0.882   3.936  20.553  0.00  0.00    +0.000 A 
ATOM     16  C   UNL     1       0.977   3.115  19.431  0.00  0.00    +0.000 A 
ATOM     17  C   UNL     1       1.869   3.429  18.406  0.00  0.00    +0.000 A 
ENDBRANCH  11  12
ENDBRANCH  10  11
ENDBRANCH   1  10
TORSDOF 7
ENDMDL
MODEL 7
REMARK VINA RESULT:      -6.4      3.454      5.926
REMARK  Name = 
REMARK  7 active torsions:
REMARK  status: ('A' for Active; 'I' for Inactive)
REMARK    1  A    between atoms: C_2  and  C_3
REMARK    2  A    between atoms: C_2  and  C_14
REMARK    3  A    between atoms: C_3  and  C_4
REMARK    4  A    between atoms: C_4  and  C_5
REMARK    5  A    between atoms: C_5  and  C_6
REMARK    6  A    between atoms: C_6  and  C_7
REMARK    7  A    between atoms: C_7  and  C_8
REMARK                            x       y       z     vdW  Elec       q    Type
REMARK                         _______ _______ _______ _____ _____    ______ ____
ROOT
ATOM      1  C   UNL     1       0.978   3.473  19.002  0.00  0.00    +0.000 C 
ENDROOT
BRANCH   1   2
ATOM      2  C   UNL     1       1.100   4.380  20.233  0.00  0.00    +0.000 C 
BRANCH   2   3
ATOM      3  C   UNL     1       2.477   4.309  20.894  0.00  0.00    +0.000 C 
BRANCH   3   5
ATOM      4  O   UNL     1       2.338   2.189  22.026  0.00  0.00    +0.000 OA
ATOM      5  C   UNL     1       2.921   2.889  21.192  0.00  0.00    +0.000 C 
BRANCH   5   6
ATOM      6  C   UNL     1       4.110   2.396  20.380  0.00  0.00    +0.000 C 
ATOM      7  F   UNL     1       3.737   1.591  19.344  0.00  0.00    +0.000 F 
ATOM      8  F   UNL     1       4.822   3.415  19.828  0.00  0.00    +0.000 F 
ATOM      9  F   UNL     1       4.982   1.665  21.127  0.00  0.00    +0.000 F 
ENDBRANCH   5   6
ENDBRANCH   3   5
ENDBRANCH   2   3
ENDBRANCH   1   2
BRANCH   1  10
ATOM     10  C   UNL     1       1.429   4.105  17.681  0.00  0.00    +0.000 C 
BRANCH  10  11
ATOM     11  C   UNL     1       2.676   3.437  17.095  0.00  0.00    +0.000 C 
BRANCH  11  12
ATOM     12  C   UNL     1       3.831   4.398  16.990  0.00  0.00    +0.000 A 
ATOM     13  C   UNL     1       3.750   5.669  17.580  0.00  0.00    +0.000 A 
ATOM     14  C   UNL     1       4.817   6.560  17.483  0.00  0.00    +0.000 A 
ATOM     15  C   UNL     1       5.972   6.194  16.793  0.00  0.00    +0.000 A 
ATOM     16  C   UNL     1       6.058   4.936  16.198  0.00  0.00    +0.000 A 
ATOM     17  C   UNL     1       4.992   4.042  16.293  0.00  0.00    +0.000 A 
ENDBRANCH  11  12
ENDBRANCH  10  11
ENDBRANCH   1  10
TORSDOF 7
ENDMDL
MODEL 8
REMARK VINA RESULT:      -6.3      2.731      3.343
REMARK  Name = 
REMARK  7 active torsions:
REMARK  status: ('A' for Active; 'I' for Inactive)
REMARK    1  A    between atoms: C_2  and  C_3
REMARK    2  A    between atoms: C_2  and  C_14
REMARK    3  A    between atoms: C_3  and  C_4
REMARK    4  A    between atoms: C_4  and  C_5
REMARK    5  A    between atoms: C_5  and  C_6
REMARK    6  A    between atoms: C_6  and  C_7
REMARK    7  A    between atoms: C_7  and  C_8
REMARK                            x       y       z     vdW  Elec       q    Type
REMARK                         _______ _______ _______ _____ _____    ______ ____
ROOT
ATOM      1  C   UNL     1       5.043   4.264  16.100  0.00  0.00    +0.000 C 
ENDROOT
BRANCH   1   2
ATOM      2  C   UNL     1       5.396   5.753  16.208  0.00  0.00    +0.000 C 
BRANCH   2   3
ATOM      3  C   UNL     1       6.901   6.006  16.298  0.00  0.00    +0.000 C 
BRANCH   3   5
ATOM      4  O   UNL     1       8.096   4.119  17.197  0.00  0.00    +0.000 OA
ATOM      5  C   UNL     1       7.571   5.217  17.408  0.00  0.00    +0.000 C 
BRANCH   5   6
ATOM      6  C   UNL     1       7.564   5.885  18.776  0.00  0.00    +0.000 C 
ATOM      7  F   UNL     1       8.449   5.312  19.641  0.00  0.00    +0.000 F 
ATOM      8  F   UNL     1       7.896   7.202  18.713  0.00  0.00    +0.000 F 
ATOM      9  F   UNL     1       6.347   5.813  19.382  0.00  0.00    +0.000 F 
ENDBRANCH   5   6
ENDBRANCH   3   5
ENDBRANCH   2   3
ENDBRANCH   1   2
BRANCH   1  10
ATOM     10  C   UNL     1       3.893   3.801  17.001  0.00  0.00    +0.000 C 
BRANCH  10  11
ATOM     11  C   UNL     1       4.371   3.289  18.362  0.00  0.00    +0.000 C 
BRANCH  11  12
ATOM     12  C   UNL     1       3.250   3.234  19.366  0.00  0.00    +0.000 A 
ATOM     13  C   UNL     1       3.453   2.644  20.623  0.00  0.00    +0.000 A 
ATOM     14  C   UNL     1       2.417   2.592  21.554  0.00  0.00    +0.000 A 
ATOM     15  C   UNL     1       1.167   3.123  21.237  0.00  0.00    +0.000 A 
ATOM     16  C   UNL     1       0.954   3.704  19.989  0.00  0.00    +0.000 A 
ATOM     17  C   UNL     1       1.988   3.758  19.055  0.00  0.00    +0.000 A 
ENDBRANCH  11  12
ENDBRANCH  10  11
ENDBRANCH   1  10
TORSDOF 7
ENDMDL
MODEL 9
REMARK VINA RESULT:      -6.3      1.677      1.976
REMARK  Name = 
REMARK  7 active torsions:
REMARK  status: ('A' for Active; 'I' for Inactive)
REMARK    1  A    between atoms: C_2  and  C_3
REMARK    2  A    between atoms: C_2  and  C_14
REMARK    3  A    between atoms: C_3  and  C_4
REMARK    4  A    between atoms: C_4  and  C_5
REMARK    5  A    between atoms: C_5  and  C_6
REMARK    6  A    between atoms: C_6  and  C_7
REMARK    7  A    between atoms: C_7  and  C_8
REMARK                            x       y       z     vdW  Elec       q    Type
REMARK                         _______ _______ _______ _____ _____    ______ ____
ROOT
ATOM      1  C   UNL     1       4.979   5.869  16.375  0.00  0.00    +0.000 C 
ENDROOT
BRANCH   1   2
ATOM      2  C   UNL     1       5.708   4.564  16.034  0.00  0.00    +0.000 C 
BRANCH   2   3
ATOM      3  C   UNL     1       5.524   4.139  14.577  0.00  0.00    +0.000 C 
BRANCH   3   5
ATOM      4  O   UNL     1       7.636   5.200  14.118  0.00  0.00    +0.000 OA
ATOM      5  C   UNL     1       6.706   4.506  13.697  0.00  0.00    +0.000 C 
BRANCH   5   6
ATOM      6  C   UNL     1       6.663   3.942  12.284  0.00  0.00    +0.000 C 
ATOM      7  F   UNL     1       7.298   4.745  11.382  0.00  0.00    +0.000 F 
ATOM      8  F   UNL     1       7.261   2.724  12.192  0.00  0.00    +0.000 F 
ATOM      9  F   UNL     1       5.391   3.794  11.823  0.00  0.00    +0.000 F 
ENDBRANCH   5   6
ENDBRANCH   3   5
ENDBRANCH   2   3
ENDBRANCH   1   2
BRANCH   1  10
ATOM     10  C   UNL     1       4.595   6.034  17.849  0.00  0.00    +0.000 C 
BRANCH  10  11
ATOM     11  C   UNL     1       3.118   6.384  18.045  0.00  0.00    +0.000 C 
BRANCH  11  12
ATOM     12  C   UNL     1       2.348   5.244  18.658  0.00  0.00    +0.000 A 
ATOM     13  C   UNL     1       1.969   4.143  17.874  0.00  0.00    +0.000 A 
ATOM     14  C   UNL     1       1.256   3.087  18.439  0.00  0.00    +0.000 A 
ATOM     15  C   UNL     1       0.909   3.122  19.788  0.00  0.00    +0.000 A 
ATOM     16  C   UNL     1       1.274   4.215  20.573  0.00  0.00    +0.000 A 
ATOM     17  C   UNL     1       1.987   5.273  20.011  0.00  0.00    +0.000 A 
ENDBRANCH  11  12
ENDBRANCH  10  11
ENDBRANCH   1  10
TORSDOF 7
ENDMDL
