MODEL 1
REMARK VINA RESULT:      -6.7      0.000      0.000
REMARK  Name = 
REMARK  8 active torsions:
REMARK  status: ('A' for Active; 'I' for Inactive)
REMARK    1  A    between atoms: C_1  and  C_2
REMARK    2  A    between atoms: C_2  and  O_3
REMARK    3  A    between atoms: O_3  and  C_4
REMARK    4  A    between atoms: C_4  and  C_6
REMARK    5  A    between atoms: N_8  and  C_9
REMARK    6  A    between atoms: C_13  and  C_14
REMARK    7  A    between atoms: C_18  and  C_19
REMARK    8  A    between atoms: C_25  and  C_26
REMARK                            x       y       z     vdW  Elec       q    Type
REMARK                         _______ _______ _______ _____ _____    ______ ____
ROOT
ATOM      1  C   UNL     1      -0.130  11.081  20.601  0.00  0.00    +0.000 A 
ATOM      2  N   UNL     1      -1.064  10.548  19.866  0.00  0.00    +0.000 NA
ATOM      3  N   UNL     1      -1.353  11.560  18.963  0.00  0.00    +0.000 N 
ATOM      4  C   UNL     1      -0.579  12.689  19.213  0.00  0.00    +0.000 A 
ATOM      5  N   UNL     1      -0.513  13.849  18.648  0.00  0.00    +0.000 NA
ATOM      6  C   UNL     1       0.354  14.786  19.185  0.00  0.00    +0.000 A 
ATOM      7  C   UNL     1       1.161  14.556  20.237  0.00  0.00    +0.000 A 
ATOM      8  C   UNL     1       1.222  13.169  20.748  0.00  0.00    +0.000 A 
ATOM      9  O   UNL     1       2.180  12.779  21.406  0.00  0.00    +0.000 OA
ATOM     10  N   UNL     1       0.214  12.362  20.269  0.00  0.00    +0.000 N 
ENDROOT
BRANCH   3  11
ATOM     11  C   UNL     1      -2.293  11.302  17.932  0.00  0.00    +0.000 A 
ATOM     12  C   UNL     1      -1.992  10.506  16.817  0.00  0.00    +0.000 A 
ATOM     13  C   UNL     1      -2.944  10.265  15.820  0.00  0.00    +0.000 A 
ATOM     14  C   UNL     1      -4.220  10.819  15.905  0.00  0.00    +0.000 A 
ATOM     15  C   UNL     1      -4.558  11.620  16.996  0.00  0.00    +0.000 A 
ATOM     16  C   UNL     1      -5.923  12.232  17.110  0.00  0.00    +0.000 C 
ATOM     17  C   UNL     1      -3.595  11.847  17.995  0.00  0.00    +0.000 A 
ENDBRANCH   3  11
BRANCH   6  18
ATOM     18  C   UNL     1       0.381  16.101  18.510  0.00  0.00    +0.000 A 
ATOM     19  C   UNL     1      -0.785  16.881  18.447  0.00  0.00    +0.000 A 
ATOM     20  C   UNL     1      -0.771  18.122  17.811  0.00  0.00    +0.000 A 
ATOM     21  C   UNL     1       0.406  18.598  17.234  0.00  0.00    +0.000 A 
ATOM     22  C   UNL     1       1.570  17.830  17.293  0.00  0.00    +0.000 A 
ATOM     23  C   UNL     1       1.559  16.586  17.930  0.00  0.00    +0.000 A 
ENDBRANCH   6  18
BRANCH   1  24
ATOM     24  C   UNL     1       0.551  10.360  21.733  0.00  0.00    +0.000 C 
ATOM     25  O   UNL     1       0.268  10.560  22.898  0.00  0.00    +0.000 OA
BRANCH  24  26
ATOM     26  O   UNL     1       1.493   9.549  21.215  0.00  0.00    +0.000 OA
BRANCH  26  28
ATOM     27  C   UNL     1       1.983   7.559  20.041  0.00  0.00    +0.000 C 
ATOM     28  C   UNL     1       1.172   8.153  21.175  0.00  0.00    +0.000 C 
ENDBRANCH  26  28
ENDBRANCH  24  26
ENDBRANCH   1  24
BRANCH   7  29
ATOM     29  C   UNL     1       2.111  15.564  20.864  0.00  0.00    +0.000 C 
ATOM     30  N   UNL     1       2.899  16.399  21.384  0.00  0.00    +0.000 NA
ENDBRANCH   7  29
TORSDOF 6
ENDMDL
MODEL 2
REMARK VINA RESULT:      -6.6      0.563      1.075
REMARK  Name = 
REMARK  8 active torsions:
REMARK  status: ('A' for Active; 'I' for Inactive)
REMARK    1  A    between atoms: C_1  and  C_2
REMARK    2  A    between atoms: C_2  and  O_3
REMARK    3  A    between atoms: O_3  and  C_4
REMARK    4  A    between atoms: C_4  and  C_6
REMARK    5  A    between atoms: N_8  and  C_9
REMARK    6  A    between atoms: C_13  and  C_14
REMARK    7  A    between atoms: C_18  and  C_19
REMARK    8  A    between atoms: C_25  and  C_26
REMARK                            x       y       z     vdW  Elec       q    Type
REMARK                         _______ _______ _______ _____ _____    ______ ____
ROOT
ATOM      1  C   UNL     1      -0.404  11.598  20.863  0.00  0.00    +0.000 A 
ATOM      2  N   UNL     1      -1.303  11.010  20.124  0.00  0.00    +0.000 NA
ATOM      3  N   UNL     1      -1.481  11.915  19.088  0.00  0.00    +0.000 N 
ATOM      4  C   UNL     1      -0.681  13.039  19.263  0.00  0.00    +0.000 A 
ATOM      5  N   UNL     1      -0.524  14.120  18.573  0.00  0.00    +0.000 NA
ATOM      6  C   UNL     1       0.338  15.087  19.062  0.00  0.00    +0.000 A 
ATOM      7  C   UNL     1       1.055  14.959  20.194  0.00  0.00    +0.000 A 
ATOM      8  C   UNL     1       1.019  13.642  20.868  0.00  0.00    +0.000 A 
ATOM      9  O   UNL     1       1.908  13.303  21.642  0.00  0.00    +0.000 OA
ATOM     10  N   UNL     1       0.017  12.817  20.410  0.00  0.00    +0.000 N 
ENDROOT
BRANCH   3  11
ATOM     11  C   UNL     1      -2.352  11.565  18.024  0.00  0.00    +0.000 A 
ATOM     12  C   UNL     1      -1.916  10.861  16.891  0.00  0.00    +0.000 A 
ATOM     13  C   UNL     1      -2.801  10.526  15.861  0.00  0.00    +0.000 A 
ATOM     14  C   UNL     1      -4.145  10.891  15.930  0.00  0.00    +0.000 A 
ATOM     15  C   UNL     1      -4.617  11.596  17.037  0.00  0.00    +0.000 A 
ATOM     16  C   UNL     1      -6.058  12.004  17.134  0.00  0.00    +0.000 C 
ATOM     17  C   UNL     1      -3.719  11.919  18.070  0.00  0.00    +0.000 A 
ENDBRANCH   3  11
BRANCH   6  18
ATOM     18  C   UNL     1       0.471  16.309  18.241  0.00  0.00    +0.000 A 
ATOM     19  C   UNL     1       1.719  16.658  17.701  0.00  0.00    +0.000 A 
ATOM     20  C   UNL     1       1.856  17.809  16.925  0.00  0.00    +0.000 A 
ATOM     21  C   UNL     1       0.749  18.621  16.679  0.00  0.00    +0.000 A 
ATOM     22  C   UNL     1      -0.495  18.280  17.210  0.00  0.00    +0.000 A 
ATOM     23  C   UNL     1      -0.636  17.127  17.988  0.00  0.00    +0.000 A 
ENDBRANCH   6  18
BRANCH   1  24
ATOM     24  C   UNL     1       0.159  10.997  22.122  0.00  0.00    +0.000 C 
ATOM     25  O   UNL     1      -0.361  11.153  23.209  0.00  0.00    +0.000 OA
BRANCH  24  26
ATOM     26  O   UNL     1       1.296  10.343  21.810  0.00  0.00    +0.000 OA
BRANCH  26  28
ATOM     27  C   UNL     1       1.136   8.105  21.073  0.00  0.00    +0.000 C 
ATOM     28  C   UNL     1       1.395   8.992  22.275  0.00  0.00    +0.000 C 
ENDBRANCH  26  28
ENDBRANCH  24  26
ENDBRANCH   1  24
BRANCH   7  29
ATOM     29  C   UNL     1       1.996  16.004  20.771  0.00  0.00    +0.000 C 
ATOM     30  N   UNL     1       2.777  16.870  21.248  0.00  0.00    +0.000 NA
ENDBRANCH   7  29
TORSDOF 6
ENDMDL
MODEL 3
REMARK VINA RESULT:      -6.5      2.764      5.468
REMARK  Name = 
REMARK  8 active torsions:
REMARK  status: ('A' for Active; 'I' for Inactive)
REMARK    1  A    between atoms: C_1  and  C_2
REMARK    2  A    between atoms: C_2  and  O_3
REMARK    3  A    between atoms: O_3  and  C_4
REMARK    4  A    between atoms: C_4  and  C_6
REMARK    5  A    between atoms: N_8  and  C_9
REMARK    6  A    between atoms: C_13  and  C_14
REMARK    7  A    between atoms: C_18  and  C_19
REMARK    8  A    between atoms: C_25  and  C_26
REMARK                            x       y       z     vdW  Elec       q    Type
REMARK                         _______ _______ _______ _____ _____    ______ ____
ROOT
ATOM      1  C   UNL     1      -1.116  11.316  18.560  0.00  0.00    +0.000 A 
ATOM      2  N   UNL     1      -0.706  10.079  18.582  0.00  0.00    +0.000 NA
ATOM      3  N   UNL     1       0.662  10.217  18.766  0.00  0.00    +0.000 N 
ATOM      4  C   UNL     1       1.025  11.558  18.827  0.00  0.00    +0.000 A 
ATOM      5  N   UNL     1       2.163  12.152  18.975  0.00  0.00    +0.000 NA
ATOM      6  C   UNL     1       2.184  13.537  18.945  0.00  0.00    +0.000 A 
ATOM      7  C   UNL     1       1.089  14.308  18.808  0.00  0.00    +0.000 A 
ATOM      8  C   UNL     1      -0.222  13.625  18.840  0.00  0.00    +0.000 A 
ATOM      9  O   UNL     1      -1.248  14.237  19.119  0.00  0.00    +0.000 OA
ATOM     10  N   UNL     1      -0.135  12.258  18.701  0.00  0.00    +0.000 N 
ENDROOT
BRANCH   3  11
ATOM     11  C   UNL     1       1.447   9.045  18.921  0.00  0.00    +0.000 A 
ATOM     12  C   UNL     1       1.395   8.249  20.075  0.00  0.00    +0.000 A 
ATOM     13  C   UNL     1       2.178   7.095  20.195  0.00  0.00    +0.000 A 
ATOM     14  C   UNL     1       3.040   6.709  19.170  0.00  0.00    +0.000 A 
ATOM     15  C   UNL     1       3.124   7.477  18.008  0.00  0.00    +0.000 A 
ATOM     16  C   UNL     1       4.047   7.087  16.891  0.00  0.00    +0.000 C 
ATOM     17  C   UNL     1       2.326   8.629  17.896  0.00  0.00    +0.000 A 
ENDBRANCH   3  11
BRANCH   6  18
ATOM     18  C   UNL     1       3.513  14.165  19.106  0.00  0.00    +0.000 A 
ATOM     19  C   UNL     1       4.316  14.404  17.979  0.00  0.00    +0.000 A 
ATOM     20  C   UNL     1       5.571  14.995  18.120  0.00  0.00    +0.000 A 
ATOM     21  C   UNL     1       6.036  15.356  19.384  0.00  0.00    +0.000 A 
ATOM     22  C   UNL     1       5.244  15.124  20.509  0.00  0.00    +0.000 A 
ATOM     23  C   UNL     1       3.984  14.531  20.371  0.00  0.00    +0.000 A 
ENDBRANCH   6  18
BRANCH   1  24
ATOM     24  C   UNL     1      -2.559  11.711  18.405  0.00  0.00    +0.000 C 
ATOM     25  O   UNL     1      -3.287  11.910  19.357  0.00  0.00    +0.000 OA
BRANCH  24  26
ATOM     26  O   UNL     1      -2.851  11.747  17.090  0.00  0.00    +0.000 OA
BRANCH  26  28
ATOM     27  C   UNL     1      -3.065  10.267  15.262  0.00  0.00    +0.000 C 
ATOM     28  C   UNL     1      -3.662  10.675  16.595  0.00  0.00    +0.000 C 
ENDBRANCH  26  28
ENDBRANCH  24  26
ENDBRANCH   1  24
BRANCH   7  29
ATOM     29  C   UNL     1       1.076  15.827  18.753  0.00  0.00    +0.000 C 
ATOM     30  N   UNL     1       1.064  17.087  18.707  0.00  0.00    +0.000 NA
ENDBRANCH   7  29
TORSDOF 6
ENDMDL
MODEL 4
REMARK VINA RESULT:      -6.4      3.522      5.389
REMARK  Name = 
REMARK  8 active torsions:
REMARK  status: ('A' for Active; 'I' for Inactive)
REMARK    1  A    between atoms: C_1  and  C_2
REMARK    2  A    between atoms: C_2  and  O_3
REMARK    3  A    between atoms: O_3  and  C_4
REMARK    4  A    between atoms: C_4  and  C_6
REMARK    5  A    between atoms: N_8  and  C_9
REMARK    6  A    between atoms: C_13  and  C_14
REMARK    7  A    between atoms: C_18  and  C_19
REMARK    8  A    between atoms: C_25  and  C_26
REMARK                            x       y       z     vdW  Elec       q    Type
REMARK                         _______ _______ _______ _____ _____    ______ ____
ROOT
ATOM      1  C   UNL     1       1.082  13.291  20.547  0.00  0.00    +0.000 A 
ATOM      2  N   UNL     1       0.837  12.532  19.516  0.00  0.00    +0.000 NA
ATOM      3  N   UNL     1      -0.501  12.208  19.689  0.00  0.00    +0.000 N 
ATOM      4  C   UNL     1      -1.007  12.781  20.852  0.00  0.00    +0.000 A 
ATOM      5  N   UNL     1      -2.171  12.747  21.410  0.00  0.00    +0.000 NA
ATOM      6  C   UNL     1      -2.333  13.404  22.619  0.00  0.00    +0.000 A 
ATOM      7  C   UNL     1      -1.365  14.110  23.233  0.00  0.00    +0.000 A 
ATOM      8  C   UNL     1      -0.102  14.307  22.489  0.00  0.00    +0.000 A 
ATOM      9  O   UNL     1       0.658  15.229  22.767  0.00  0.00    +0.000 OA
ATOM     10  N   UNL     1       0.025  13.486  21.392  0.00  0.00    +0.000 N 
ENDROOT
BRANCH   3  11
ATOM     11  C   UNL     1      -1.147  11.439  18.688  0.00  0.00    +0.000 A 
ATOM     12  C   UNL     1      -0.575  10.282  18.137  0.00  0.00    +0.000 A 
ATOM     13  C   UNL     1      -1.242   9.541  17.154  0.00  0.00    +0.000 A 
ATOM     14  C   UNL     1      -2.495   9.940  16.690  0.00  0.00    +0.000 A 
ATOM     15  C   UNL     1      -3.095  11.086  17.210  0.00  0.00    +0.000 A 
ATOM     16  C   UNL     1      -4.441  11.539  16.724  0.00  0.00    +0.000 C 
ATOM     17  C   UNL     1      -2.419  11.817  18.202  0.00  0.00    +0.000 A 
ENDBRANCH   3  11
BRANCH   6  18
ATOM     18  C   UNL     1      -3.681  13.323  23.221  0.00  0.00    +0.000 A 
ATOM     19  C   UNL     1      -4.688  14.209  22.808  0.00  0.00    +0.000 A 
ATOM     20  C   UNL     1      -5.963  14.141  23.370  0.00  0.00    +0.000 A 
ATOM     21  C   UNL     1      -6.245  13.189  24.349  0.00  0.00    +0.000 A 
ATOM     22  C   UNL     1      -5.250  12.303  24.764  0.00  0.00    +0.000 A 
ATOM     23  C   UNL     1      -3.971  12.368  24.202  0.00  0.00    +0.000 A 
ENDBRANCH   6  18
BRANCH   1  24
ATOM     24  C   UNL     1       2.417  13.932  20.809  0.00  0.00    +0.000 C 
ATOM     25  O   UNL     1       3.209  13.484  21.615  0.00  0.00    +0.000 OA
BRANCH  24  26
ATOM     26  O   UNL     1       2.513  15.042  20.051  0.00  0.00    +0.000 OA
BRANCH  26  28
ATOM     27  C   UNL     1       3.337  15.026  17.838  0.00  0.00    +0.000 C 
ATOM     28  C   UNL     1       3.721  15.188  19.296  0.00  0.00    +0.000 C 
ENDBRANCH  26  28
ENDBRANCH  24  26
ENDBRANCH   1  24
BRANCH   7  29
ATOM     29  C   UNL     1      -1.501  14.829  24.565  0.00  0.00    +0.000 C 
ATOM     30  N   UNL     1      -1.614  15.425  25.670  0.00  0.00    +0.000 NA
ENDBRANCH   7  29
TORSDOF 6
ENDMDL
MODEL 5
REMARK VINA RESULT:      -6.3      2.594      5.342
REMARK  Name = 
REMARK  8 active torsions:
REMARK  status: ('A' for Active; 'I' for Inactive)
REMARK    1  A    between atoms: C_1  and  C_2
REMARK    2  A    between atoms: C_2  and  O_3
REMARK    3  A    between atoms: O_3  and  C_4
REMARK    4  A    between atoms: C_4  and  C_6
REMARK    5  A    between atoms: N_8  and  C_9
REMARK    6  A    between atoms: C_13  and  C_14
REMARK    7  A    between atoms: C_18  and  C_19
REMARK    8  A    between atoms: C_25  and  C_26
REMARK                            x       y       z     vdW  Elec       q    Type
REMARK                         _______ _______ _______ _____ _____    ______ ____
ROOT
ATOM      1  C   UNL     1      -1.421  11.613  19.282  0.00  0.00    +0.000 A 
ATOM      2  N   UNL     1      -1.066  10.359  19.317  0.00  0.00    +0.000 NA
ATOM      3  N   UNL     1       0.318  10.437  19.349  0.00  0.00    +0.000 N 
ATOM      4  C   UNL     1       0.745  11.761  19.312  0.00  0.00    +0.000 A 
ATOM      5  N   UNL     1       1.917  12.304  19.314  0.00  0.00    +0.000 NA
ATOM      6  C   UNL     1       1.996  13.684  19.220  0.00  0.00    +0.000 A 
ATOM      7  C   UNL     1       0.928  14.501  19.164  0.00  0.00    +0.000 A 
ATOM      8  C   UNL     1      -0.402  13.885  19.364  0.00  0.00    +0.000 A 
ATOM      9  O   UNL     1      -1.363  14.557  19.721  0.00  0.00    +0.000 OA
ATOM     10  N   UNL     1      -0.390  12.511  19.278  0.00  0.00    +0.000 N 
ENDROOT
BRANCH   3  11
ATOM     11  C   UNL     1       1.063   9.236  19.474  0.00  0.00    +0.000 A 
ATOM     12  C   UNL     1       1.010   8.430  20.622  0.00  0.00    +0.000 A 
ATOM     13  C   UNL     1       1.753   7.247  20.711  0.00  0.00    +0.000 A 
ATOM     14  C   UNL     1       2.574   6.841  19.660  0.00  0.00    +0.000 A 
ATOM     15  C   UNL     1       2.657   7.617  18.504  0.00  0.00    +0.000 A 
ATOM     16  C   UNL     1       3.536   7.204  17.360  0.00  0.00    +0.000 C 
ATOM     17  C   UNL     1       1.899   8.798  18.423  0.00  0.00    +0.000 A 
ENDBRANCH   3  11
BRANCH   6  18
ATOM     18  C   UNL     1       3.360  14.253  19.213  0.00  0.00    +0.000 A 
ATOM     19  C   UNL     1       3.964  14.642  20.419  0.00  0.00    +0.000 A 
ATOM     20  C   UNL     1       5.250  15.181  20.424  0.00  0.00    +0.000 A 
ATOM     21  C   UNL     1       5.947  15.335  19.226  0.00  0.00    +0.000 A 
ATOM     22  C   UNL     1       5.356  14.949  18.023  0.00  0.00    +0.000 A 
ATOM     23  C   UNL     1       4.066  14.408  18.014  0.00  0.00    +0.000 A 
ENDBRANCH   6  18
BRANCH   1  24
ATOM     24  C   UNL     1      -2.854  12.071  19.262  0.00  0.00    +0.000 C 
ATOM     25  O   UNL     1      -3.442  12.419  20.267  0.00  0.00    +0.000 OA
BRANCH  24  26
ATOM     26  O   UNL     1      -3.314  11.974  17.999  0.00  0.00    +0.000 OA
BRANCH  26  28
ATOM     27  C   UNL     1      -5.616  11.658  17.579  0.00  0.00    +0.000 C 
ATOM     28  C   UNL     1      -4.288  10.951  17.760  0.00  0.00    +0.000 C 
ENDBRANCH  26  28
ENDBRANCH  24  26
ENDBRANCH   1  24
BRANCH   7  29
ATOM     29  C   UNL     1       0.975  16.016  19.043  0.00  0.00    +0.000 C 
ATOM     30  N   UNL     1       1.016  17.272  18.943  0.00  0.00    +0.000 NA
ENDBRANCH   7  29
TORSDOF 6
ENDMDL
MODEL 6
REMARK VINA RESULT:      -6.3      0.424      1.541
REMARK  Name = 
REMARK  8 active torsions:
REMARK  status: ('A' for Active; 'I' for Inactive)
REMARK    1  A    between atoms: C_1  and  C_2
REMARK    2  A    between atoms: C_2  and  O_3
REMARK    3  A    between atoms: O_3  and  C_4
REMARK    4  A    between atoms: C_4  and  C_6
REMARK    5  A    between atoms: N_8  and  C_9
REMARK    6  A    between atoms: C_13  and  C_14
REMARK    7  A    between atoms: C_18  and  C_19
REMARK    8  A    between atoms: C_25  and  C_26
REMARK                            x       y       z     vdW  Elec       q    Type
REMARK                         _______ _______ _______ _____ _____    ______ ____
ROOT
ATOM      1  C   UNL     1      -0.185  10.950  20.427  0.00  0.00    +0.000 A 
ATOM      2  N   UNL     1      -1.185  10.486  19.732  0.00  0.00    +0.000 NA
ATOM      3  N   UNL     1      -1.507  11.558  18.913  0.00  0.00    +0.000 N 
ATOM      4  C   UNL     1      -0.683  12.649  19.171  0.00  0.00    +0.000 A 
ATOM      5  N   UNL     1      -0.622  13.838  18.671  0.00  0.00    +0.000 NA
ATOM      6  C   UNL     1       0.309  14.719  19.197  0.00  0.00    +0.000 A 
ATOM      7  C   UNL     1       1.181  14.405  20.172  0.00  0.00    +0.000 A 
ATOM      8  C   UNL     1       1.236  12.989  20.595  0.00  0.00    +0.000 A 
ATOM      9  O   UNL     1       2.226  12.535  21.159  0.00  0.00    +0.000 OA
ATOM     10  N   UNL     1       0.173  12.238  20.146  0.00  0.00    +0.000 N 
ENDROOT
BRANCH   3  11
ATOM     11  C   UNL     1      -2.526  11.387  17.940  0.00  0.00    +0.000 A 
ATOM     12  C   UNL     1      -3.857  11.768  18.166  0.00  0.00    +0.000 A 
ATOM     13  C   UNL     1      -4.838  11.591  17.183  0.00  0.00    +0.000 A 
ATOM     14  C   UNL     1      -4.518  11.021  15.952  0.00  0.00    +0.000 A 
ATOM     15  C   UNL     1      -3.206  10.625  15.690  0.00  0.00    +0.000 A 
ATOM     16  C   UNL     1      -2.836  10.006  14.375  0.00  0.00    +0.000 C 
ATOM     17  C   UNL     1      -2.229  10.816  16.683  0.00  0.00    +0.000 A 
ENDBRANCH   3  11
BRANCH   6  18
ATOM     18  C   UNL     1       0.328  16.071  18.598  0.00  0.00    +0.000 A 
ATOM     19  C   UNL     1       1.500  16.554  17.995  0.00  0.00    +0.000 A 
ATOM     20  C   UNL     1       1.530  17.828  17.428  0.00  0.00    +0.000 A 
ATOM     21  C   UNL     1       0.390  18.631  17.455  0.00  0.00    +0.000 A 
ATOM     22  C   UNL     1      -0.780  18.158  18.050  0.00  0.00    +0.000 A 
ATOM     23  C   UNL     1      -0.813  16.881  18.620  0.00  0.00    +0.000 A 
ENDBRANCH   6  18
BRANCH   1  24
ATOM     24  C   UNL     1       0.551  10.145  21.463  0.00  0.00    +0.000 C 
ATOM     25  O   UNL     1       0.434  10.351  22.655  0.00  0.00    +0.000 OA
BRANCH  24  26
ATOM     26  O   UNL     1       1.337   9.253  20.828  0.00  0.00    +0.000 OA
BRANCH  26  28
ATOM     27  C   UNL     1       1.594   6.921  20.551  0.00  0.00    +0.000 C 
ATOM     28  C   UNL     1       1.648   8.057  21.554  0.00  0.00    +0.000 C 
ENDBRANCH  26  28
ENDBRANCH  24  26
ENDBRANCH   1  24
BRANCH   7  29
ATOM     29  C   UNL     1       2.203  15.349  20.785  0.00  0.00    +0.000 C 
ATOM     30  N   UNL     1       3.050  16.131  21.294  0.00  0.00    +0.000 NA
ENDBRANCH   7  29
TORSDOF 6
ENDMDL
MODEL 7
REMARK VINA RESULT:      -6.3      2.679      5.308
REMARK  Name = 
REMARK  8 active torsions:
REMARK  status: ('A' for Active; 'I' for Inactive)
REMARK    1  A    between atoms: C_1  and  C_2
REMARK    2  A    between atoms: C_2  and  O_3
REMARK    3  A    between atoms: O_3  and  C_4
REMARK    4  A    between atoms: C_4  and  C_6
REMARK    5  A    between atoms: N_8  and  C_9
REMARK    6  A    between atoms: C_13  and  C_14
REMARK    7  A    between atoms: C_18  and  C_19
REMARK    8  A    between atoms: C_25  and  C_26
REMARK                            x       y       z     vdW  Elec       q    Type
REMARK                         _______ _______ _______ _____ _____    ______ ____
ROOT
ATOM      1  C   UNL     1      -1.130  11.350  18.662  0.00  0.00    +0.000 A 
ATOM      2  N   UNL     1      -0.701  10.124  18.549  0.00  0.00    +0.000 NA
ATOM      3  N   UNL     1       0.674  10.274  18.650  0.00  0.00    +0.000 N 
ATOM      4  C   UNL     1       1.021  11.613  18.801  0.00  0.00    +0.000 A 
ATOM      5  N   UNL     1       2.157  12.215  18.922  0.00  0.00    +0.000 NA
ATOM      6  C   UNL     1       2.156  13.597  19.009  0.00  0.00    +0.000 A 
ATOM      7  C   UNL     1       1.043  14.354  19.014  0.00  0.00    +0.000 A 
ATOM      8  C   UNL     1      -0.253  13.645  19.077  0.00  0.00    +0.000 A 
ATOM      9  O   UNL     1      -1.265  14.210  19.477  0.00  0.00    +0.000 OA
ATOM     10  N   UNL     1      -0.156  12.296  18.816  0.00  0.00    +0.000 N 
ENDROOT
BRANCH   3  11
ATOM     11  C   UNL     1       1.485   9.110  18.650  0.00  0.00    +0.000 A 
ATOM     12  C   UNL     1       2.430   8.848  17.647  0.00  0.00    +0.000 A 
ATOM     13  C   UNL     1       3.220   7.693  17.678  0.00  0.00    +0.000 A 
ATOM     14  C   UNL     1       3.080   6.763  18.708  0.00  0.00    +0.000 A 
ATOM     15  C   UNL     1       2.148   6.985  19.722  0.00  0.00    +0.000 A 
ATOM     16  C   UNL     1       1.975   5.998  20.839  0.00  0.00    +0.000 C 
ATOM     17  C   UNL     1       1.367   8.153  19.683  0.00  0.00    +0.000 A 
ENDBRANCH   3  11
BRANCH   6  18
ATOM     18  C   UNL     1       3.483  14.237  19.132  0.00  0.00    +0.000 A 
ATOM     19  C   UNL     1       4.252  14.482  17.983  0.00  0.00    +0.000 A 
ATOM     20  C   UNL     1       5.506  15.084  18.088  0.00  0.00    +0.000 A 
ATOM     21  C   UNL     1       6.003  15.449  19.339  0.00  0.00    +0.000 A 
ATOM     22  C   UNL     1       5.245  15.211  20.485  0.00  0.00    +0.000 A 
ATOM     23  C   UNL     1       3.987  14.608  20.384  0.00  0.00    +0.000 A 
ENDBRANCH   6  18
BRANCH   1  24
ATOM     24  C   UNL     1      -2.586  11.727  18.641  0.00  0.00    +0.000 C 
ATOM     25  O   UNL     1      -3.238  11.871  19.656  0.00  0.00    +0.000 OA
BRANCH  24  26
ATOM     26  O   UNL     1      -2.984  11.816  17.356  0.00  0.00    +0.000 OA
BRANCH  26  28
ATOM     27  C   UNL     1      -3.093  10.442  15.439  0.00  0.00    +0.000 C 
ATOM     28  C   UNL     1      -3.662  10.672  16.825  0.00  0.00    +0.000 C 
ENDBRANCH  26  28
ENDBRANCH  24  26
ENDBRANCH   1  24
BRANCH   7  29
ATOM     29  C   UNL     1       1.004  15.872  19.092  0.00  0.00    +0.000 C 
ATOM     30  N   UNL     1       0.971  17.131  19.156  0.00  0.00    +0.000 NA
ENDBRANCH   7  29
TORSDOF 6
ENDMDL
MODEL 8
REMARK VINA RESULT:      -6.2      4.655      7.275
REMARK  Name = 
REMARK  8 active torsions:
REMARK  status: ('A' for Active; 'I' for Inactive)
REMARK    1  A    between atoms: C_1  and  C_2
REMARK    2  A    between atoms: C_2  and  O_3
REMARK    3  A    between atoms: O_3  and  C_4
REMARK    4  A    between atoms: C_4  and  C_6
REMARK    5  A    between atoms: N_8  and  C_9
REMARK    6  A    between atoms: C_13  and  C_14
REMARK    7  A    between atoms: C_18  and  C_19
REMARK    8  A    between atoms: C_25  and  C_26
REMARK                            x       y       z     vdW  Elec       q    Type
REMARK                         _______ _______ _______ _____ _____    ______ ____
ROOT
ATOM      1  C   UNL     1      -5.977  12.725  19.868  0.00  0.00    +0.000 A 
ATOM      2  N   UNL     1      -5.896  13.266  21.051  0.00  0.00    +0.000 NA
ATOM      3  N   UNL     1      -4.532  13.245  21.301  0.00  0.00    +0.000 N 
ATOM      4  C   UNL     1      -3.840  12.661  20.244  0.00  0.00    +0.000 A 
ATOM      5  N   UNL     1      -2.586  12.423  20.043  0.00  0.00    +0.000 NA
ATOM      6  C   UNL     1      -2.226  11.770  18.876  0.00  0.00    +0.000 A 
ATOM      7  C   UNL     1      -3.095  11.399  17.917  0.00  0.00    +0.000 A 
ATOM      8  C   UNL     1      -4.495  11.853  18.066  0.00  0.00    +0.000 A 
ATOM      9  O   UNL     1      -5.245  11.916  17.098  0.00  0.00    +0.000 OA
ATOM     10  N   UNL     1      -4.786  12.338  19.320  0.00  0.00    +0.000 N 
ENDROOT
BRANCH   3  11
ATOM     11  C   UNL     1      -4.052  13.841  22.495  0.00  0.00    +0.000 A 
ATOM     12  C   UNL     1      -2.935  13.349  23.188  0.00  0.00    +0.000 A 
ATOM     13  C   UNL     1      -2.482  13.963  24.362  0.00  0.00    +0.000 A 
ATOM     14  C   UNL     1      -3.137  15.081  24.879  0.00  0.00    +0.000 A 
ATOM     15  C   UNL     1      -4.254  15.597  24.221  0.00  0.00    +0.000 A 
ATOM     16  C   UNL     1      -4.979  16.796  24.759  0.00  0.00    +0.000 C 
ATOM     17  C   UNL     1      -4.693  14.976  23.039  0.00  0.00    +0.000 A 
ENDBRANCH   3  11
BRANCH   6  18
ATOM     18  C   UNL     1      -0.781  11.511  18.701  0.00  0.00    +0.000 A 
ATOM     19  C   UNL     1       0.122  12.585  18.653  0.00  0.00    +0.000 A 
ATOM     20  C   UNL     1       1.488  12.352  18.487  0.00  0.00    +0.000 A 
ATOM     21  C   UNL     1       1.964  11.047  18.371  0.00  0.00    +0.000 A 
ATOM     22  C   UNL     1       1.074   9.974  18.421  0.00  0.00    +0.000 A 
ATOM     23  C   UNL     1      -0.296  10.204  18.587  0.00  0.00    +0.000 A 
ENDBRANCH   6  18
BRANCH   1  24
ATOM     24  C   UNL     1      -7.273  12.539  19.126  0.00  0.00    +0.000 C 
ATOM     25  O   UNL     1      -7.917  13.473  18.692  0.00  0.00    +0.000 OA
BRANCH  24  26
ATOM     26  O   UNL     1      -7.558  11.222  19.093  0.00  0.00    +0.000 OA
BRANCH  26  28
ATOM     27  C   UNL     1      -7.131   9.059  19.940  0.00  0.00    +0.000 C 
ATOM     28  C   UNL     1      -7.376  10.506  20.321  0.00  0.00    +0.000 C 
ENDBRANCH  26  28
ENDBRANCH  24  26
ENDBRANCH   1  24
BRANCH   7  29
ATOM     29  C   UNL     1      -2.739  10.667  16.633  0.00  0.00    +0.000 C 
ATOM     30  N   UNL     1      -2.445  10.059  15.569  0.00  0.00    +0.000 NA
ENDBRANCH   7  29
TORSDOF 6
ENDMDL
MODEL 9
REMARK VINA RESULT:      -6.2      3.881      4.954
REMARK  Name = 
REMARK  8 active torsions:
REMARK  status: ('A' for Active; 'I' for Inactive)
REMARK    1  A    between atoms: C_1  and  C_2
REMARK    2  A    between atoms: C_2  and  O_3
REMARK    3  A    between atoms: O_3  and  C_4
REMARK    4  A    between atoms: C_4  and  C_6
REMARK    5  A    between atoms: N_8  and  C_9
REMARK    6  A    between atoms: C_13  and  C_14
REMARK    7  A    between atoms: C_18  and  C_19
REMARK    8  A    between atoms: C_25  and  C_26
REMARK                            x       y       z     vdW  Elec       q    Type
REMARK                         _______ _______ _______ _____ _____    ______ ____
ROOT
ATOM      1  C   UNL     1      -0.751  11.756  20.920  0.00  0.00    +0.000 A 
ATOM      2  N   UNL     1      -1.189  11.303  19.780  0.00  0.00    +0.000 NA
ATOM      3  N   UNL     1      -2.462  11.849  19.706  0.00  0.00    +0.000 N 
ATOM      4  C   UNL     1      -2.746  12.607  20.838  0.00  0.00    +0.000 A 
ATOM      5  N   UNL     1      -3.788  13.278  21.204  0.00  0.00    +0.000 NA
ATOM      6  C   UNL     1      -3.762  13.895  22.444  0.00  0.00    +0.000 A 
ATOM      7  C   UNL     1      -2.707  13.872  23.279  0.00  0.00    +0.000 A 
ATOM      8  C   UNL     1      -1.456  13.272  22.767  0.00  0.00    +0.000 A 
ATOM      9  O   UNL     1      -0.371  13.549  23.267  0.00  0.00    +0.000 OA
ATOM     10  N   UNL     1      -1.628  12.545  21.611  0.00  0.00    +0.000 N 
ENDROOT
BRANCH   3  11
ATOM     11  C   UNL     1      -3.228  11.630  18.533  0.00  0.00    +0.000 A 
ATOM     12  C   UNL     1      -4.569  12.026  18.421  0.00  0.00    +0.000 A 
ATOM     13  C   UNL     1      -5.296  11.800  17.247  0.00  0.00    +0.000 A 
ATOM     14  C   UNL     1      -4.706  11.165  16.155  0.00  0.00    +0.000 A 
ATOM     15  C   UNL     1      -3.376  10.751  16.228  0.00  0.00    +0.000 A 
ATOM     16  C   UNL     1      -2.719  10.061  15.069  0.00  0.00    +0.000 C 
ATOM     17  C   UNL     1      -2.654  10.992  17.410  0.00  0.00    +0.000 A 
ENDBRANCH   3  11
BRANCH   6  18
ATOM     18  C   UNL     1      -4.983  14.639  22.820  0.00  0.00    +0.000 A 
ATOM     19  C   UNL     1      -5.108  15.997  22.484  0.00  0.00    +0.000 A 
ATOM     20  C   UNL     1      -6.255  16.709  22.834  0.00  0.00    +0.000 A 
ATOM     21  C   UNL     1      -7.289  16.073  23.520  0.00  0.00    +0.000 A 
ATOM     22  C   UNL     1      -7.174  14.724  23.856  0.00  0.00    +0.000 A 
ATOM     23  C   UNL     1      -6.026  14.007  23.506  0.00  0.00    +0.000 A 
ENDBRANCH   6  18
BRANCH   1  24
ATOM     24  C   UNL     1       0.623  11.462  21.459  0.00  0.00    +0.000 C 
ATOM     25  O   UNL     1       1.606  12.088  21.117  0.00  0.00    +0.000 OA
BRANCH  24  26
ATOM     26  O   UNL     1       0.535  10.410  22.297  0.00  0.00    +0.000 OA
BRANCH  26  28
ATOM     27  C   UNL     1       0.141   8.197  21.573  0.00  0.00    +0.000 C 
ATOM     28  C   UNL     1       1.216   9.218  21.888  0.00  0.00    +0.000 C 
ENDBRANCH  26  28
ENDBRANCH  24  26
ENDBRANCH   1  24
BRANCH   7  29
ATOM     29  C   UNL     1      -2.649  14.522  24.653  0.00  0.00    +0.000 C 
ATOM     30  N   UNL     1      -2.600  15.062  25.791  0.00  0.00    +0.000 NA
ENDBRANCH   7  29
TORSDOF 6
ENDMDL
