MODEL 1
REMARK VINA RESULT:      -8.2      0.000      0.000
REMARK  Name = 
REMARK  9 active torsions:
REMARK  status: ('A' for Active; 'I' for Inactive)
REMARK    1  A    between atoms: C_1  and  C_2
REMARK    2  A    between atoms: C_2  and  C_3
REMARK    3  A    between atoms: C_3  and  O_4
REMARK    4  A    between atoms: O_4  and  C_5
REMARK    5  A    between atoms: C_9  and  S_10
REMARK    6  A    between atoms: S_10  and  C_13
REMARK    7  A    between atoms: C_16  and  N_17
REMARK    8  A    between atoms: C_18  and  C_20
REMARK    9  A    between atoms: C_21  and  C_22
REMARK                            x       y       z     vdW  Elec       q    Type
REMARK                         _______ _______ _______ _____ _____    ______ ____
ROOT
ATOM      1  C   UNL     1       2.516   5.575  19.027  0.00  0.00    +0.000 A 
ATOM      2  C   UNL     1       2.668   6.766  18.328  0.00  0.00    +0.000 A 
ATOM      3  C   UNL     1       2.235   7.960  18.907  0.00  0.00    +0.000 A 
ATOM      4  C   UNL     1       1.636   7.990  20.173  0.00  0.00    +0.000 A 
ATOM      5  C   UNL     1       1.498   6.782  20.871  0.00  0.00    +0.000 A 
ATOM      6  C   UNL     1       1.942   5.576  20.303  0.00  0.00    +0.000 A 
ENDROOT
BRANCH   4   7
ATOM      7  N   UNL     1       1.162   9.187  20.770  0.00  0.00    +0.000 N 
ATOM      8  C   UNL     1       0.261  10.062  20.196  0.00  0.00    +0.000 C 
ATOM      9  O   UNL     1      -0.267   9.938  19.093  0.00  0.00    +0.000 OA
ATOM     10  H   UNL     1       1.509   9.398  21.697  0.00  0.00    +0.000 HD
BRANCH   8  11
ATOM     11  C   UNL     1      -0.062  11.258  21.017  0.00  0.00    +0.000 C 
ATOM     12  C   UNL     1      -1.103  11.154  21.866  0.00  0.00    +0.000 C 
BRANCH  12  13
ATOM     13  C   UNL     1      -1.616  12.208  22.744  0.00  0.00    +0.000 A 
ATOM     14  C   UNL     1      -0.895  13.365  23.039  0.00  0.00    +0.000 A 
ATOM     15  C   UNL     1      -1.464  14.349  23.844  0.00  0.00    +0.000 A 
ATOM     16  C   UNL     1      -2.750  14.152  24.320  0.00  0.00    +0.000 A 
ATOM     17  N   UNL     1      -3.491  13.060  24.043  0.00  0.00    +0.000 NA
ATOM     18  C   UNL     1      -2.911  12.121  23.259  0.00  0.00    +0.000 A 
ENDBRANCH  12  13
ENDBRANCH   8  11
ENDBRANCH   4   7
BRANCH   1  19
ATOM     19  S   UNL     1       3.053   4.040  18.307  0.00  0.00    +0.000 S 
ATOM     20  O   UNL     1       2.132   3.777  17.218  0.00  0.00    +0.000 OA
ATOM     21  O   UNL     1       3.209   3.094  19.398  0.00  0.00    +0.000 OA
BRANCH  19  26
ATOM     22  C   UNL     1       6.119   4.269  15.668  0.00  0.00    +0.000 A 
ATOM     23  C   UNL     1       7.213   4.495  16.509  0.00  0.00    +0.000 A 
ATOM     24  C   UNL     1       7.040   4.624  17.888  0.00  0.00    +0.000 A 
ATOM     25  C   UNL     1       5.767   4.499  18.443  0.00  0.00    +0.000 A 
ATOM     26  C   UNL     1       4.678   4.247  17.605  0.00  0.00    +0.000 A 
ATOM     27  C   UNL     1       4.842   4.148  16.216  0.00  0.00    +0.000 A 
BRANCH  22  28
ATOM     28  O   UNL     1       6.427   4.115  14.344  0.00  0.00    +0.000 OA
BRANCH  28  29
ATOM     29  C   UNL     1       5.320   4.056  13.443  0.00  0.00    +0.000 C 
BRANCH  29  31
ATOM     30  C   UNL     1       4.555   3.013  11.288  0.00  0.00    +0.000 C 
ATOM     31  C   UNL     1       5.715   3.185  12.254  0.00  0.00    +0.000 C 
ENDBRANCH  29  31
ENDBRANCH  28  29
ENDBRANCH  22  28
ENDBRANCH  19  26
ENDBRANCH   1  19
TORSDOF 8
ENDMDL
MODEL 2
REMARK VINA RESULT:      -8.2      1.817      3.079
REMARK  Name = 
REMARK  9 active torsions:
REMARK  status: ('A' for Active; 'I' for Inactive)
REMARK    1  A    between atoms: C_1  and  C_2
REMARK    2  A    between atoms: C_2  and  C_3
REMARK    3  A    between atoms: C_3  and  O_4
REMARK    4  A    between atoms: O_4  and  C_5
REMARK    5  A    between atoms: C_9  and  S_10
REMARK    6  A    between atoms: S_10  and  C_13
REMARK    7  A    between atoms: C_16  and  N_17
REMARK    8  A    between atoms: C_18  and  C_20
REMARK    9  A    between atoms: C_21  and  C_22
REMARK                            x       y       z     vdW  Elec       q    Type
REMARK                         _______ _______ _______ _____ _____    ______ ____
ROOT
ATOM      1  C   UNL     1       2.747   5.780  19.049  0.00  0.00    +0.000 A 
ATOM      2  C   UNL     1       2.826   6.898  18.228  0.00  0.00    +0.000 A 
ATOM      3  C   UNL     1       2.223   8.090  18.635  0.00  0.00    +0.000 A 
ATOM      4  C   UNL     1       1.526   8.187  19.846  0.00  0.00    +0.000 A 
ATOM      5  C   UNL     1       1.462   7.054  20.668  0.00  0.00    +0.000 A 
ATOM      6  C   UNL     1       2.076   5.853  20.275  0.00  0.00    +0.000 A 
ENDROOT
BRANCH   4   7
ATOM      7  N   UNL     1       0.881   9.379  20.268  0.00  0.00    +0.000 N 
ATOM      8  C   UNL     1       0.982   9.937  21.526  0.00  0.00    +0.000 C 
ATOM      9  O   UNL     1       1.644   9.497  22.464  0.00  0.00    +0.000 OA
ATOM     10  H   UNL     1       0.315   9.855  19.578  0.00  0.00    +0.000 HD
BRANCH   8  11
ATOM     11  C   UNL     1       0.192  11.180  21.726  0.00  0.00    +0.000 C 
ATOM     12  C   UNL     1      -0.729  11.168  22.709  0.00  0.00    +0.000 C 
BRANCH  12  13
ATOM     13  C   UNL     1      -1.637  12.262  23.064  0.00  0.00    +0.000 A 
ATOM     14  C   UNL     1      -1.276  13.605  22.969  0.00  0.00    +0.000 A 
ATOM     15  C   UNL     1      -2.206  14.596  23.275  0.00  0.00    +0.000 A 
ATOM     16  C   UNL     1      -3.480  14.211  23.656  0.00  0.00    +0.000 A 
ATOM     17  N   UNL     1      -3.880  12.926  23.741  0.00  0.00    +0.000 NA
ATOM     18  C   UNL     1      -2.954  11.985  23.436  0.00  0.00    +0.000 A 
ENDBRANCH  12  13
ENDBRANCH   8  11
ENDBRANCH   4   7
BRANCH   1  19
ATOM     19  S   UNL     1       3.500   4.249  18.549  0.00  0.00    +0.000 S 
ATOM     20  O   UNL     1       2.445   3.486  17.909  0.00  0.00    +0.000 OA
ATOM     21  O   UNL     1       4.201   3.725  19.708  0.00  0.00    +0.000 OA
BRANCH  19  26
ATOM     22  C   UNL     1       6.783   5.708  16.676  0.00  0.00    +0.000 A 
ATOM     23  C   UNL     1       6.673   5.138  15.404  0.00  0.00    +0.000 A 
ATOM     24  C   UNL     1       5.625   4.268  15.100  0.00  0.00    +0.000 A 
ATOM     25  C   UNL     1       4.658   3.982  16.062  0.00  0.00    +0.000 A 
ATOM     26  C   UNL     1       4.754   4.572  17.325  0.00  0.00    +0.000 A 
ATOM     27  C   UNL     1       5.822   5.421  17.646  0.00  0.00    +0.000 A 
BRANCH  22  28
ATOM     28  O   UNL     1       7.827   6.579  16.833  0.00  0.00    +0.000 OA
BRANCH  28  29
ATOM     29  C   UNL     1       7.833   7.343  18.040  0.00  0.00    +0.000 C 
BRANCH  29  31
ATOM     30  C   UNL     1       8.780   9.616  18.546  0.00  0.00    +0.000 C 
ATOM     31  C   UNL     1       7.824   8.824  17.670  0.00  0.00    +0.000 C 
ENDBRANCH  29  31
ENDBRANCH  28  29
ENDBRANCH  22  28
ENDBRANCH  19  26
ENDBRANCH   1  19
TORSDOF 8
ENDMDL
MODEL 3
REMARK VINA RESULT:      -8.1      1.059      1.165
REMARK  Name = 
REMARK  9 active torsions:
REMARK  status: ('A' for Active; 'I' for Inactive)
REMARK    1  A    between atoms: C_1  and  C_2
REMARK    2  A    between atoms: C_2  and  C_3
REMARK    3  A    between atoms: C_3  and  O_4
REMARK    4  A    between atoms: O_4  and  C_5
REMARK    5  A    between atoms: C_9  and  S_10
REMARK    6  A    between atoms: S_10  and  C_13
REMARK    7  A    between atoms: C_16  and  N_17
REMARK    8  A    between atoms: C_18  and  C_20
REMARK    9  A    between atoms: C_21  and  C_22
REMARK                            x       y       z     vdW  Elec       q    Type
REMARK                         _______ _______ _______ _____ _____    ______ ____
ROOT
ATOM      1  C   UNL     1       2.371   6.455  19.376  0.00  0.00    +0.000 A 
ATOM      2  C   UNL     1       2.395   7.604  18.596  0.00  0.00    +0.000 A 
ATOM      3  C   UNL     1       1.789   8.768  19.073  0.00  0.00    +0.000 A 
ATOM      4  C   UNL     1       1.143   8.806  20.315  0.00  0.00    +0.000 A 
ATOM      5  C   UNL     1       1.135   7.642  21.095  0.00  0.00    +0.000 A 
ATOM      6  C   UNL     1       1.753   6.469  20.631  0.00  0.00    +0.000 A 
ENDROOT
BRANCH   4   7
ATOM      7  N   UNL     1       0.496   9.969  20.809  0.00  0.00    +0.000 N 
ATOM      8  C   UNL     1      -0.592  10.585  20.223  0.00  0.00    +0.000 C 
ATOM      9  O   UNL     1      -1.165  10.222  19.198  0.00  0.00    +0.000 OA
ATOM     10  H   UNL     1       0.862  10.361  21.667  0.00  0.00    +0.000 HD
BRANCH   8  11
ATOM     11  C   UNL     1      -1.075  11.804  20.924  0.00  0.00    +0.000 C 
ATOM     12  C   UNL     1      -1.369  11.680  22.233  0.00  0.00    +0.000 C 
BRANCH  12  13
ATOM     13  C   UNL     1      -1.886  12.733  23.110  0.00  0.00    +0.000 A 
ATOM     14  C   UNL     1      -1.141  13.859  23.461  0.00  0.00    +0.000 A 
ATOM     15  C   UNL     1      -1.712  14.846  24.261  0.00  0.00    +0.000 A 
ATOM     16  C   UNL     1      -3.023  14.684  24.675  0.00  0.00    +0.000 A 
ATOM     17  N   UNL     1      -3.788  13.624  24.343  0.00  0.00    +0.000 NA
ATOM     18  C   UNL     1      -3.205  12.681  23.564  0.00  0.00    +0.000 A 
ENDBRANCH  12  13
ENDBRANCH   8  11
ENDBRANCH   4   7
BRANCH   1  19
ATOM     19  S   UNL     1       3.128   4.958  18.786  0.00  0.00    +0.000 S 
ATOM     20  O   UNL     1       2.288   4.498  17.698  0.00  0.00    +0.000 OA
ATOM     21  O   UNL     1       3.370   4.121  19.948  0.00  0.00    +0.000 OA
BRANCH  19  26
ATOM     22  C   UNL     1       6.135   5.760  16.191  0.00  0.00    +0.000 A 
ATOM     23  C   UNL     1       7.243   5.835  17.040  0.00  0.00    +0.000 A 
ATOM     24  C   UNL     1       7.097   5.685  18.421  0.00  0.00    +0.000 A 
ATOM     25  C   UNL     1       5.839   5.429  18.962  0.00  0.00    +0.000 A 
ATOM     26  C   UNL     1       4.735   5.329  18.110  0.00  0.00    +0.000 A 
ATOM     27  C   UNL     1       4.872   5.511  16.727  0.00  0.00    +0.000 A 
BRANCH  22  28
ATOM     28  O   UNL     1       6.418   5.878  14.858  0.00  0.00    +0.000 OA
BRANCH  28  29
ATOM     29  C   UNL     1       7.014   4.736  14.238  0.00  0.00    +0.000 C 
BRANCH  29  31
ATOM     30  C   UNL     1       6.201   3.406  12.267  0.00  0.00    +0.000 C 
ATOM     31  C   UNL     1       5.898   3.853  13.687  0.00  0.00    +0.000 C 
ENDBRANCH  29  31
ENDBRANCH  28  29
ENDBRANCH  22  28
ENDBRANCH  19  26
ENDBRANCH   1  19
TORSDOF 8
ENDMDL
MODEL 4
REMARK VINA RESULT:      -8.1      1.370      1.682
REMARK  Name = 
REMARK  9 active torsions:
REMARK  status: ('A' for Active; 'I' for Inactive)
REMARK    1  A    between atoms: C_1  and  C_2
REMARK    2  A    between atoms: C_2  and  C_3
REMARK    3  A    between atoms: C_3  and  O_4
REMARK    4  A    between atoms: O_4  and  C_5
REMARK    5  A    between atoms: C_9  and  S_10
REMARK    6  A    between atoms: S_10  and  C_13
REMARK    7  A    between atoms: C_16  and  N_17
REMARK    8  A    between atoms: C_18  and  C_20
REMARK    9  A    between atoms: C_21  and  C_22
REMARK                            x       y       z     vdW  Elec       q    Type
REMARK                         _______ _______ _______ _____ _____    ______ ____
ROOT
ATOM      1  C   UNL     1       3.503   5.426  18.812  0.00  0.00    +0.000 A 
ATOM      2  C   UNL     1       3.599   6.558  18.012  0.00  0.00    +0.000 A 
ATOM      3  C   UNL     1       2.879   7.703  18.356  0.00  0.00    +0.000 A 
ATOM      4  C   UNL     1       2.048   7.739  19.484  0.00  0.00    +0.000 A 
ATOM      5  C   UNL     1       1.968   6.593  20.287  0.00  0.00    +0.000 A 
ATOM      6  C   UNL     1       2.699   5.439  19.957  0.00  0.00    +0.000 A 
ENDROOT
BRANCH   4   7
ATOM      7  N   UNL     1       1.284   8.881  19.838  0.00  0.00    +0.000 N 
ATOM      8  C   UNL     1       1.085   9.339  21.126  0.00  0.00    +0.000 C 
ATOM      9  O   UNL     1       1.539   8.836  22.152  0.00  0.00    +0.000 OA
ATOM     10  H   UNL     1       0.867   9.401  19.077  0.00  0.00    +0.000 HD
BRANCH   8  11
ATOM     11  C   UNL     1       0.226  10.547  21.237  0.00  0.00    +0.000 C 
ATOM     12  C   UNL     1      -0.378  10.762  22.421  0.00  0.00    +0.000 C 
BRANCH  12  13
ATOM     13  C   UNL     1      -1.286  11.864  22.746  0.00  0.00    +0.000 A 
ATOM     14  C   UNL     1      -2.508  11.673  23.390  0.00  0.00    +0.000 A 
ATOM     15  C   UNL     1      -3.300  12.772  23.714  0.00  0.00    +0.000 A 
ATOM     16  C   UNL     1      -2.837  14.037  23.395  0.00  0.00    +0.000 A 
ATOM     17  N   UNL     1      -1.653  14.271  22.792  0.00  0.00    +0.000 NA
ATOM     18  C   UNL     1      -0.905  13.183  22.490  0.00  0.00    +0.000 A 
ENDBRANCH  12  13
ENDBRANCH   8  11
ENDBRANCH   4   7
BRANCH   1  19
ATOM     19  S   UNL     1       4.405   3.953  18.389  0.00  0.00    +0.000 S 
ATOM     20  O   UNL     1       3.399   2.965  18.047  0.00  0.00    +0.000 OA
ATOM     21  O   UNL     1       5.351   3.714  19.465  0.00  0.00    +0.000 OA
BRANCH  19  26
ATOM     22  C   UNL     1       5.609   4.217  14.530  0.00  0.00    +0.000 A 
ATOM     23  C   UNL     1       6.932   4.647  14.664  0.00  0.00    +0.000 A 
ATOM     24  C   UNL     1       7.475   4.905  15.924  0.00  0.00    +0.000 A 
ATOM     25  C   UNL     1       6.703   4.707  17.067  0.00  0.00    +0.000 A 
ATOM     26  C   UNL     1       5.388   4.252  16.933  0.00  0.00    +0.000 A 
ATOM     27  C   UNL     1       4.828   4.022  15.669  0.00  0.00    +0.000 A 
BRANCH  22  28
ATOM     28  O   UNL     1       5.212   3.954  13.247  0.00  0.00    +0.000 OA
BRANCH  28  29
ATOM     29  C   UNL     1       6.214   3.427  12.375  0.00  0.00    +0.000 C 
BRANCH  29  31
ATOM     30  C   UNL     1       6.709   1.354  11.041  0.00  0.00    +0.000 C 
ATOM     31  C   UNL     1       5.620   2.239  11.624  0.00  0.00    +0.000 C 
ENDBRANCH  29  31
ENDBRANCH  28  29
ENDBRANCH  22  28
ENDBRANCH  19  26
ENDBRANCH   1  19
TORSDOF 8
ENDMDL
MODEL 5
REMARK VINA RESULT:      -8.1      0.999      1.506
REMARK  Name = 
REMARK  9 active torsions:
REMARK  status: ('A' for Active; 'I' for Inactive)
REMARK    1  A    between atoms: C_1  and  C_2
REMARK    2  A    between atoms: C_2  and  C_3
REMARK    3  A    between atoms: C_3  and  O_4
REMARK    4  A    between atoms: O_4  and  C_5
REMARK    5  A    between atoms: C_9  and  S_10
REMARK    6  A    between atoms: S_10  and  C_13
REMARK    7  A    between atoms: C_16  and  N_17
REMARK    8  A    between atoms: C_18  and  C_20
REMARK    9  A    between atoms: C_21  and  C_22
REMARK                            x       y       z     vdW  Elec       q    Type
REMARK                         _______ _______ _______ _____ _____    ______ ____
ROOT
ATOM      1  C   UNL     1       2.563   5.478  19.040  0.00  0.00    +0.000 A 
ATOM      2  C   UNL     1       1.972   5.408  20.295  0.00  0.00    +0.000 A 
ATOM      3  C   UNL     1       1.509   6.578  20.899  0.00  0.00    +0.000 A 
ATOM      4  C   UNL     1       1.635   7.828  20.279  0.00  0.00    +0.000 A 
ATOM      5  C   UNL     1       2.226   7.881  19.009  0.00  0.00    +0.000 A 
ATOM      6  C   UNL     1       2.684   6.709  18.386  0.00  0.00    +0.000 A 
ENDROOT
BRANCH   4   7
ATOM      7  N   UNL     1       1.198   9.034  20.885  0.00  0.00    +0.000 N 
ATOM      8  C   UNL     1       0.067   9.169  21.666  0.00  0.00    +0.000 C 
ATOM      9  O   UNL     1      -0.723   8.274  21.959  0.00  0.00    +0.000 OA
ATOM     10  H   UNL     1       1.776   9.850  20.737  0.00  0.00    +0.000 HD
BRANCH   8  11
ATOM     11  C   UNL     1      -0.186  10.545  22.170  0.00  0.00    +0.000 C 
ATOM     12  C   UNL     1      -1.427  10.812  22.622  0.00  0.00    +0.000 C 
BRANCH  12  13
ATOM     13  C   UNL     1      -1.908  12.097  23.133  0.00  0.00    +0.000 A 
ATOM     14  C   UNL     1      -3.186  12.271  23.663  0.00  0.00    +0.000 A 
ATOM     15  C   UNL     1      -3.560  13.510  24.177  0.00  0.00    +0.000 A 
ATOM     16  C   UNL     1      -2.636  14.540  24.159  0.00  0.00    +0.000 A 
ATOM     17  N   UNL     1      -1.382  14.412  23.676  0.00  0.00    +0.000 NA
ATOM     18  C   UNL     1      -1.047  13.196  23.184  0.00  0.00    +0.000 A 
ENDBRANCH  12  13
ENDBRANCH   8  11
ENDBRANCH   4   7
BRANCH   1  19
ATOM     19  S   UNL     1       3.169   4.002  18.254  0.00  0.00    +0.000 S 
ATOM     20  O   UNL     1       2.218   3.702  17.201  0.00  0.00    +0.000 OA
ATOM     21  O   UNL     1       3.441   3.043  19.310  0.00  0.00    +0.000 OA
BRANCH  19  26
ATOM     22  C   UNL     1       6.042   4.703  15.483  0.00  0.00    +0.000 A 
ATOM     23  C   UNL     1       7.193   4.792  16.271  0.00  0.00    +0.000 A 
ATOM     24  C   UNL     1       7.119   4.682  17.661  0.00  0.00    +0.000 A 
ATOM     25  C   UNL     1       5.888   4.453  18.274  0.00  0.00    +0.000 A 
ATOM     26  C   UNL     1       4.741   4.339  17.484  0.00  0.00    +0.000 A 
ATOM     27  C   UNL     1       4.806   4.480  16.092  0.00  0.00    +0.000 A 
BRANCH  22  28
ATOM     28  O   UNL     1       6.255   4.780  14.134  0.00  0.00    +0.000 OA
BRANCH  28  29
ATOM     29  C   UNL     1       6.360   3.534  13.442  0.00  0.00    +0.000 C 
BRANCH  29  31
ATOM     30  C   UNL     1       5.434   2.263  11.481  0.00  0.00    +0.000 C 
ATOM     31  C   UNL     1       5.296   3.502  12.348  0.00  0.00    +0.000 C 
ENDBRANCH  29  31
ENDBRANCH  28  29
ENDBRANCH  22  28
ENDBRANCH  19  26
ENDBRANCH   1  19
TORSDOF 8
ENDMDL
MODEL 6
REMARK VINA RESULT:      -8.1      1.664      3.011
REMARK  Name = 
REMARK  9 active torsions:
REMARK  status: ('A' for Active; 'I' for Inactive)
REMARK    1  A    between atoms: C_1  and  C_2
REMARK    2  A    between atoms: C_2  and  C_3
REMARK    3  A    between atoms: C_3  and  O_4
REMARK    4  A    between atoms: O_4  and  C_5
REMARK    5  A    between atoms: C_9  and  S_10
REMARK    6  A    between atoms: S_10  and  C_13
REMARK    7  A    between atoms: C_16  and  N_17
REMARK    8  A    between atoms: C_18  and  C_20
REMARK    9  A    between atoms: C_21  and  C_22
REMARK                            x       y       z     vdW  Elec       q    Type
REMARK                         _______ _______ _______ _____ _____    ______ ____
ROOT
ATOM      1  C   UNL     1       2.750   5.865  19.006  0.00  0.00    +0.000 A 
ATOM      2  C   UNL     1       2.745   6.972  18.166  0.00  0.00    +0.000 A 
ATOM      3  C   UNL     1       2.173   8.165  18.612  0.00  0.00    +0.000 A 
ATOM      4  C   UNL     1       1.589   8.275  19.880  0.00  0.00    +0.000 A 
ATOM      5  C   UNL     1       1.610   7.152  20.719  0.00  0.00    +0.000 A 
ATOM      6  C   UNL     1       2.194   5.950  20.287  0.00  0.00    +0.000 A 
ENDROOT
BRANCH   4   7
ATOM      7  N   UNL     1       0.977   9.468  20.344  0.00  0.00    +0.000 N 
ATOM      8  C   UNL     1      -0.009  10.168  19.678  0.00  0.00    +0.000 C 
ATOM      9  O   UNL     1      -0.508   9.866  18.595  0.00  0.00    +0.000 OA
ATOM     10  H   UNL     1       1.287   9.817  21.241  0.00  0.00    +0.000 HD
BRANCH   8  11
ATOM     11  C   UNL     1      -0.474  11.403  20.364  0.00  0.00    +0.000 C 
ATOM     12  C   UNL     1      -0.805  11.291  21.665  0.00  0.00    +0.000 C 
BRANCH  12  13
ATOM     13  C   UNL     1      -1.312  12.361  22.527  0.00  0.00    +0.000 A 
ATOM     14  C   UNL     1      -0.628  13.559  22.729  0.00  0.00    +0.000 A 
ATOM     15  C   UNL     1      -1.192  14.554  23.523  0.00  0.00    +0.000 A 
ATOM     16  C   UNL     1      -2.437  14.326  24.084  0.00  0.00    +0.000 A 
ATOM     17  N   UNL     1      -3.144  13.192  23.899  0.00  0.00    +0.000 NA
ATOM     18  C   UNL     1      -2.570  12.243  23.122  0.00  0.00    +0.000 A 
ENDBRANCH  12  13
ENDBRANCH   8  11
ENDBRANCH   4   7
BRANCH   1  19
ATOM     19  S   UNL     1       3.465   4.332  18.458  0.00  0.00    +0.000 S 
ATOM     20  O   UNL     1       2.392   3.615  17.796  0.00  0.00    +0.000 OA
ATOM     21  O   UNL     1       4.154   3.756  19.600  0.00  0.00    +0.000 OA
BRANCH  19  26
ATOM     22  C   UNL     1       6.724   5.849  16.590  0.00  0.00    +0.000 A 
ATOM     23  C   UNL     1       6.654   5.236  15.335  0.00  0.00    +0.000 A 
ATOM     24  C   UNL     1       5.643   4.319  15.042  0.00  0.00    +0.000 A 
ATOM     25  C   UNL     1       4.671   4.029  15.998  0.00  0.00    +0.000 A 
ATOM     26  C   UNL     1       4.726   4.661  17.243  0.00  0.00    +0.000 A 
ATOM     27  C   UNL     1       5.758   5.558  17.553  0.00  0.00    +0.000 A 
BRANCH  22  28
ATOM     28  O   UNL     1       7.734   6.761  16.734  0.00  0.00    +0.000 OA
BRANCH  28  29
ATOM     29  C   UNL     1       7.799   7.432  17.993  0.00  0.00    +0.000 C 
BRANCH  29  31
ATOM     30  C   UNL     1       8.839   9.595  18.741  0.00  0.00    +0.000 C 
ATOM     31  C   UNL     1       7.919   8.931  17.732  0.00  0.00    +0.000 C 
ENDBRANCH  29  31
ENDBRANCH  28  29
ENDBRANCH  22  28
ENDBRANCH  19  26
ENDBRANCH   1  19
TORSDOF 8
ENDMDL
MODEL 7
REMARK VINA RESULT:      -8.1      0.998      1.238
REMARK  Name = 
REMARK  9 active torsions:
REMARK  status: ('A' for Active; 'I' for Inactive)
REMARK    1  A    between atoms: C_1  and  C_2
REMARK    2  A    between atoms: C_2  and  C_3
REMARK    3  A    between atoms: C_3  and  O_4
REMARK    4  A    between atoms: O_4  and  C_5
REMARK    5  A    between atoms: C_9  and  S_10
REMARK    6  A    between atoms: S_10  and  C_13
REMARK    7  A    between atoms: C_16  and  N_17
REMARK    8  A    between atoms: C_18  and  C_20
REMARK    9  A    between atoms: C_21  and  C_22
REMARK                            x       y       z     vdW  Elec       q    Type
REMARK                         _______ _______ _______ _____ _____    ______ ____
ROOT
ATOM      1  C   UNL     1       2.513   5.911  19.207  0.00  0.00    +0.000 A 
ATOM      2  C   UNL     1       2.525   7.000  18.345  0.00  0.00    +0.000 A 
ATOM      3  C   UNL     1       1.995   8.218  18.774  0.00  0.00    +0.000 A 
ATOM      4  C   UNL     1       1.436   8.371  20.049  0.00  0.00    +0.000 A 
ATOM      5  C   UNL     1       1.438   7.265  20.911  0.00  0.00    +0.000 A 
ATOM      6  C   UNL     1       1.981   6.038  20.495  0.00  0.00    +0.000 A 
ENDROOT
BRANCH   4   7
ATOM      7  N   UNL     1       0.865   9.590  20.497  0.00  0.00    +0.000 N 
ATOM      8  C   UNL     1      -0.112   9.705  21.466  0.00  0.00    +0.000 C 
ATOM      9  O   UNL     1      -0.628   8.778  22.087  0.00  0.00    +0.000 OA
ATOM     10  H   UNL     1       1.220  10.438  20.074  0.00  0.00    +0.000 HD
BRANCH   8  11
ATOM     11  C   UNL     1      -0.560  11.095  21.744  0.00  0.00    +0.000 C 
ATOM     12  C   UNL     1      -1.335  11.282  22.830  0.00  0.00    +0.000 C 
BRANCH  12  13
ATOM     13  C   UNL     1      -1.912  12.552  23.277  0.00  0.00    +0.000 A 
ATOM     14  C   UNL     1      -3.242  12.680  23.675  0.00  0.00    +0.000 A 
ATOM     15  C   UNL     1      -3.712  13.907  24.136  0.00  0.00    +0.000 A 
ATOM     16  C   UNL     1      -2.830  14.972  24.199  0.00  0.00    +0.000 A 
ATOM     17  N   UNL     1      -1.531  14.889  23.844  0.00  0.00    +0.000 NA
ATOM     18  C   UNL     1      -1.103  13.683  23.401  0.00  0.00    +0.000 A 
ENDBRANCH  12  13
ENDBRANCH   8  11
ENDBRANCH   4   7
BRANCH   1  19
ATOM     19  S   UNL     1       3.175   4.347  18.681  0.00  0.00    +0.000 S 
ATOM     20  O   UNL     1       2.317   3.904  17.598  0.00  0.00    +0.000 OA
ATOM     21  O   UNL     1       3.347   3.538  19.876  0.00  0.00    +0.000 OA
BRANCH  19  26
ATOM     22  C   UNL     1       6.327   4.479  16.139  0.00  0.00    +0.000 A 
ATOM     23  C   UNL     1       7.367   4.884  16.982  0.00  0.00    +0.000 A 
ATOM     24  C   UNL     1       7.127   5.165  18.328  0.00  0.00    +0.000 A 
ATOM     25  C   UNL     1       5.844   5.015  18.851  0.00  0.00    +0.000 A 
ATOM     26  C   UNL     1       4.810   4.585  18.014  0.00  0.00    +0.000 A 
ATOM     27  C   UNL     1       5.039   4.333  16.655  0.00  0.00    +0.000 A 
BRANCH  22  28
ATOM     28  O   UNL     1       6.701   4.190  14.855  0.00  0.00    +0.000 OA
BRANCH  28  29
ATOM     29  C   UNL     1       5.641   4.058  13.906  0.00  0.00    +0.000 C 
BRANCH  29  31
ATOM     30  C   UNL     1       5.098   3.047  11.670  0.00  0.00    +0.000 C 
ATOM     31  C   UNL     1       6.205   3.408  12.646  0.00  0.00    +0.000 C 
ENDBRANCH  29  31
ENDBRANCH  28  29
ENDBRANCH  22  28
ENDBRANCH  19  26
ENDBRANCH   1  19
TORSDOF 8
ENDMDL
MODEL 8
REMARK VINA RESULT:      -7.9      1.659      3.111
REMARK  Name = 
REMARK  9 active torsions:
REMARK  status: ('A' for Active; 'I' for Inactive)
REMARK    1  A    between atoms: C_1  and  C_2
REMARK    2  A    between atoms: C_2  and  C_3
REMARK    3  A    between atoms: C_3  and  O_4
REMARK    4  A    between atoms: O_4  and  C_5
REMARK    5  A    between atoms: C_9  and  S_10
REMARK    6  A    between atoms: S_10  and  C_13
REMARK    7  A    between atoms: C_16  and  N_17
REMARK    8  A    between atoms: C_18  and  C_20
REMARK    9  A    between atoms: C_21  and  C_22
REMARK                            x       y       z     vdW  Elec       q    Type
REMARK                         _______ _______ _______ _____ _____    ______ ____
ROOT
ATOM      1  C   UNL     1       2.701   4.950  18.940  0.00  0.00    +0.000 A 
ATOM      2  C   UNL     1       2.076   4.692  20.153  0.00  0.00    +0.000 A 
ATOM      3  C   UNL     1       1.613   5.759  20.925  0.00  0.00    +0.000 A 
ATOM      4  C   UNL     1       1.772   7.089  20.515  0.00  0.00    +0.000 A 
ATOM      5  C   UNL     1       2.397   7.333  19.284  0.00  0.00    +0.000 A 
ATOM      6  C   UNL     1       2.856   6.267  18.493  0.00  0.00    +0.000 A 
ENDROOT
BRANCH   4   7
ATOM      7  N   UNL     1       1.335   8.191  21.294  0.00  0.00    +0.000 N 
ATOM      8  C   UNL     1       0.602   9.261  20.821  0.00  0.00    +0.000 C 
ATOM      9  O   UNL     1       0.214   9.420  19.665  0.00  0.00    +0.000 OA
ATOM     10  H   UNL     1       1.575   8.174  22.277  0.00  0.00    +0.000 HD
BRANCH   8  11
ATOM     11  C   UNL     1       0.284  10.301  21.835  0.00  0.00    +0.000 C 
ATOM     12  C   UNL     1      -0.863  10.986  21.670  0.00  0.00    +0.000 C 
BRANCH  12  13
ATOM     13  C   UNL     1      -1.360  12.068  22.523  0.00  0.00    +0.000 A 
ATOM     14  C   UNL     1      -0.693  13.284  22.668  0.00  0.00    +0.000 A 
ATOM     15  C   UNL     1      -1.248  14.289  23.457  0.00  0.00    +0.000 A 
ATOM     16  C   UNL     1      -2.467  14.051  24.069  0.00  0.00    +0.000 A 
ATOM     17  N   UNL     1      -3.157  12.899  23.940  0.00  0.00    +0.000 NA
ATOM     18  C   UNL     1      -2.593  11.942  23.166  0.00  0.00    +0.000 A 
ENDBRANCH  12  13
ENDBRANCH   8  11
ENDBRANCH   4   7
BRANCH   1  19
ATOM     19  S   UNL     1       3.308   3.608  17.943  0.00  0.00    +0.000 S 
ATOM     20  O   UNL     1       2.245   3.309  17.002  0.00  0.00    +0.000 OA
ATOM     21  O   UNL     1       3.802   2.593  18.858  0.00  0.00    +0.000 OA
BRANCH  19  26
ATOM     22  C   UNL     1       6.821   5.342  16.914  0.00  0.00    +0.000 A 
ATOM     23  C   UNL     1       6.896   5.064  15.546  0.00  0.00    +0.000 A 
ATOM     24  C   UNL     1       5.904   4.311  14.914  0.00  0.00    +0.000 A 
ATOM     25  C   UNL     1       4.810   3.851  15.645  0.00  0.00    +0.000 A 
ATOM     26  C   UNL     1       4.723   4.152  17.008  0.00  0.00    +0.000 A 
ATOM     27  C   UNL     1       5.732   4.880  17.653  0.00  0.00    +0.000 A 
BRANCH  22  28
ATOM     28  O   UNL     1       7.830   6.128  17.401  0.00  0.00    +0.000 OA
BRANCH  28  29
ATOM     29  C   UNL     1       7.601   7.538  17.366  0.00  0.00    +0.000 C 
BRANCH  29  31
ATOM     30  C   UNL     1       8.561   9.688  18.246  0.00  0.00    +0.000 C 
ATOM     31  C   UNL     1       8.447   8.188  18.458  0.00  0.00    +0.000 C 
ENDBRANCH  29  31
ENDBRANCH  28  29
ENDBRANCH  22  28
ENDBRANCH  19  26
ENDBRANCH   1  19
TORSDOF 8
ENDMDL
MODEL 9
REMARK VINA RESULT:      -7.9      2.622      2.964
REMARK  Name = 
REMARK  9 active torsions:
REMARK  status: ('A' for Active; 'I' for Inactive)
REMARK    1  A    between atoms: C_1  and  C_2
REMARK    2  A    between atoms: C_2  and  C_3
REMARK    3  A    between atoms: C_3  and  O_4
REMARK    4  A    between atoms: O_4  and  C_5
REMARK    5  A    between atoms: C_9  and  S_10
REMARK    6  A    between atoms: S_10  and  C_13
REMARK    7  A    between atoms: C_16  and  N_17
REMARK    8  A    between atoms: C_18  and  C_20
REMARK    9  A    between atoms: C_21  and  C_22
REMARK                            x       y       z     vdW  Elec       q    Type
REMARK                         _______ _______ _______ _____ _____    ______ ____
ROOT
ATOM      1  C   UNL     1       2.541   6.723  18.912  0.00  0.00    +0.000 A 
ATOM      2  C   UNL     1       2.683   7.551  17.805  0.00  0.00    +0.000 A 
ATOM      3  C   UNL     1       2.225   8.867  17.872  0.00  0.00    +0.000 A 
ATOM      4  C   UNL     1       1.610   9.376  19.023  0.00  0.00    +0.000 A 
ATOM      5  C   UNL     1       1.480   8.531  20.135  0.00  0.00    +0.000 A 
ATOM      6  C   UNL     1       1.950   7.208  20.083  0.00  0.00    +0.000 A 
ENDROOT
BRANCH   4   7
ATOM      7  N   UNL     1       1.110  10.701  19.105  0.00  0.00    +0.000 N 
ATOM      8  C   UNL     1      -0.174  11.091  18.780  0.00  0.00    +0.000 C 
ATOM      9  O   UNL     1      -1.074  10.356  18.378  0.00  0.00    +0.000 OA
ATOM     10  H   UNL     1       1.752  11.407  19.443  0.00  0.00    +0.000 HD
BRANCH   8  11
ATOM     11  C   UNL     1      -0.447  12.544  18.932  0.00  0.00    +0.000 C 
ATOM     12  C   UNL     1       0.614  13.346  19.143  0.00  0.00    +0.000 C 
BRANCH  12  13
ATOM     13  C   UNL     1       0.580  14.796  19.351  0.00  0.00    +0.000 A 
ATOM     14  C   UNL     1      -0.178  15.656  18.557  0.00  0.00    +0.000 A 
ATOM     15  C   UNL     1      -0.203  17.019  18.841  0.00  0.00    +0.000 A 
ATOM     16  C   UNL     1       0.523  17.482  19.925  0.00  0.00    +0.000 A 
ATOM     17  N   UNL     1       1.253  16.685  20.732  0.00  0.00    +0.000 NA
ATOM     18  C   UNL     1       1.257  15.365  20.431  0.00  0.00    +0.000 A 
ENDBRANCH  12  13
ENDBRANCH   8  11
ENDBRANCH   4   7
BRANCH   1  19
ATOM     19  S   UNL     1       3.110   5.039  18.848  0.00  0.00    +0.000 S 
ATOM     20  O   UNL     1       2.244   4.370  17.896  0.00  0.00    +0.000 OA
ATOM     21  O   UNL     1       3.209   4.575  20.221  0.00  0.00    +0.000 OA
BRANCH  19  26
ATOM     22  C   UNL     1       6.276   4.482  16.383  0.00  0.00    +0.000 A 
ATOM     23  C   UNL     1       7.351   4.852  17.198  0.00  0.00    +0.000 A 
ATOM     24  C   UNL     1       7.136   5.316  18.497  0.00  0.00    +0.000 A 
ATOM     25  C   UNL     1       5.840   5.388  19.003  0.00  0.00    +0.000 A 
ATOM     26  C   UNL     1       4.768   4.994  18.197  0.00  0.00    +0.000 A 
ATOM     27  C   UNL     1       4.976   4.557  16.881  0.00  0.00    +0.000 A 
BRANCH  22  28
ATOM     28  O   UNL     1       6.623   4.001  15.150  0.00  0.00    +0.000 OA
BRANCH  28  29
ATOM     29  C   UNL     1       5.638   4.132  14.124  0.00  0.00    +0.000 C 
BRANCH  29  31
ATOM     30  C   UNL     1       5.203   3.064  11.890  0.00  0.00    +0.000 C 
ATOM     31  C   UNL     1       6.253   3.670  12.806  0.00  0.00    +0.000 C 
ENDBRANCH  29  31
ENDBRANCH  28  29
ENDBRANCH  22  28
ENDBRANCH  19  26
ENDBRANCH   1  19
TORSDOF 8
ENDMDL
