MODEL 1
REMARK VINA RESULT:      -8.2      0.000      0.000
REMARK  Name = 
REMARK  5 active torsions:
REMARK  status: ('A' for Active; 'I' for Inactive)
REMARK    1  A    between atoms: C_1  and  C_2
REMARK    2  A    between atoms: C_2  and  N_3
REMARK    3  A    between atoms: C_11  and  S_12
REMARK    4  A    between atoms: S_12  and  N_15
REMARK    5  A    between atoms: N_15  and  C_16
REMARK                            x       y       z     vdW  Elec       q    Type
REMARK                         _______ _______ _______ _____ _____    ______ ____
ROOT
ATOM      1  N   UNL     1       2.131   3.761  19.471  0.00  0.00    +0.000 N 
ATOM      2  C   UNL     1       1.696   5.073  19.759  0.00  0.00    +0.000 C 
ATOM      3  O   UNL     1       0.835   5.382  20.577  0.00  0.00    +0.000 OA
ATOM      4  C   UNL     1       2.517   5.879  18.881  0.00  0.00    +0.000 A 
ATOM      5  C   UNL     1       2.547   7.260  18.716  0.00  0.00    +0.000 A 
ATOM      6  C   UNL     1       3.457   7.757  17.775  0.00  0.00    +0.000 A 
ATOM      7  C   UNL     1       4.308   6.903  17.038  0.00  0.00    +0.000 A 
ATOM      8  C   UNL     1       4.301   5.491  17.226  0.00  0.00    +0.000 A 
ATOM      9  C   UNL     1       5.076   4.431  16.652  0.00  0.00    +0.000 A 
ATOM     10  C   UNL     1       4.849   3.080  17.017  0.00  0.00    +0.000 A 
ATOM     11  C   UNL     1       3.875   2.719  17.963  0.00  0.00    +0.000 A 
ATOM     12  C   UNL     1       3.151   3.761  18.515  0.00  0.00    +0.000 A 
ATOM     13  C   UNL     1       3.376   5.070  18.148  0.00  0.00    +0.000 A 
ENDROOT
BRANCH   9  14
ATOM     14  S   UNL     1       6.361   4.711  15.450  0.00  0.00    +0.000 S 
ATOM     15  O   UNL     1       6.076   5.986  14.825  0.00  0.00    +0.000 OA
ATOM     16  O   UNL     1       7.657   4.426  16.006  0.00  0.00    +0.000 OA
BRANCH  14  17
ATOM     17  N   UNL     1       6.080   3.549  14.233  0.00  0.00    +0.000 NA
ATOM     18  H   UNL     1       5.368   2.896  14.561  0.00  0.00    +0.000 HD
BRANCH  17  19
ATOM     19  C   UNL     1       5.927   4.042  12.834  0.00  0.00    +0.000 C 
ATOM     20  C   UNL     1       4.901   3.220  12.075  0.00  0.00    +0.000 C 
ATOM     21  C   UNL     1       5.694   2.022  11.595  0.00  0.00    +0.000 C 
ATOM     22  O   UNL     1       7.065   2.432  11.502  0.00  0.00    +0.000 OA
ATOM     23  C   UNL     1       7.162   3.782  11.984  0.00  0.00    +0.000 C 
ENDBRANCH  17  19
ENDBRANCH  14  17
ENDBRANCH   9  14
BRANCH   1  25
ATOM     24  C   UNL     1       2.258   2.496  21.572  0.00  0.00    +0.000 C 
ATOM     25  C   UNL     1       1.643   2.603  20.186  0.00  0.00    +0.000 C 
ENDBRANCH   1  25
TORSDOF 4
ENDMDL
MODEL 2
REMARK VINA RESULT:      -7.7      1.105      1.159
REMARK  Name = 
REMARK  5 active torsions:
REMARK  status: ('A' for Active; 'I' for Inactive)
REMARK    1  A    between atoms: C_1  and  C_2
REMARK    2  A    between atoms: C_2  and  N_3
REMARK    3  A    between atoms: C_11  and  S_12
REMARK    4  A    between atoms: S_12  and  N_15
REMARK    5  A    between atoms: N_15  and  C_16
REMARK                            x       y       z     vdW  Elec       q    Type
REMARK                         _______ _______ _______ _____ _____    ______ ____
ROOT
ATOM      1  N   UNL     1       2.638   4.603  20.503  0.00  0.00    +0.000 N 
ATOM      2  C   UNL     1       1.958   5.824  20.308  0.00  0.00    +0.000 C 
ATOM      3  O   UNL     1       1.005   6.231  20.965  0.00  0.00    +0.000 OA
ATOM      4  C   UNL     1       2.677   6.413  19.198  0.00  0.00    +0.000 A 
ATOM      5  C   UNL     1       2.471   7.628  18.552  0.00  0.00    +0.000 A 
ATOM      6  C   UNL     1       3.337   7.927  17.493  0.00  0.00    +0.000 A 
ATOM      7  C   UNL     1       4.372   7.047  17.105  0.00  0.00    +0.000 A 
ATOM      8  C   UNL     1       4.604   5.815  17.783  0.00  0.00    +0.000 A 
ATOM      9  C   UNL     1       5.591   4.789  17.620  0.00  0.00    +0.000 A 
ATOM     10  C   UNL     1       5.585   3.633  18.443  0.00  0.00    +0.000 A 
ATOM     11  C   UNL     1       4.632   3.449  19.459  0.00  0.00    +0.000 A 
ATOM     12  C   UNL     1       3.700   4.461  19.607  0.00  0.00    +0.000 A 
ATOM     13  C   UNL     1       3.712   5.576  18.797  0.00  0.00    +0.000 A 
ENDROOT
BRANCH   9  14
ATOM     14  S   UNL     1       6.880   4.868  16.393  0.00  0.00    +0.000 S 
ATOM     15  O   UNL     1       6.916   6.235  15.915  0.00  0.00    +0.000 OA
ATOM     16  O   UNL     1       8.072   4.208  16.855  0.00  0.00    +0.000 OA
BRANCH  14  17
ATOM     17  N   UNL     1       6.288   3.955  15.079  0.00  0.00    +0.000 NA
ATOM     18  H   UNL     1       5.547   3.339  15.415  0.00  0.00    +0.000 HD
BRANCH  17  19
ATOM     19  C   UNL     1       6.014   4.681  13.806  0.00  0.00    +0.000 C 
ATOM     20  C   UNL     1       5.019   3.921  12.948  0.00  0.00    +0.000 C 
ATOM     21  C   UNL     1       5.880   2.911  12.219  0.00  0.00    +0.000 C 
ATOM     22  O   UNL     1       7.204   3.457  12.149  0.00  0.00    +0.000 OA
ATOM     23  C   UNL     1       7.216   4.699  12.873  0.00  0.00    +0.000 C 
ENDBRANCH  17  19
ENDBRANCH  14  17
ENDBRANCH   9  14
BRANCH   1  25
ATOM     24  C   UNL     1       1.242   2.702  21.190  0.00  0.00    +0.000 C 
ATOM     25  C   UNL     1       2.319   3.698  21.586  0.00  0.00    +0.000 C 
ENDBRANCH   1  25
TORSDOF 4
ENDMDL
MODEL 3
REMARK VINA RESULT:      -7.5      4.224      7.235
REMARK  Name = 
REMARK  5 active torsions:
REMARK  status: ('A' for Active; 'I' for Inactive)
REMARK    1  A    between atoms: C_1  and  C_2
REMARK    2  A    between atoms: C_2  and  N_3
REMARK    3  A    between atoms: C_11  and  S_12
REMARK    4  A    between atoms: S_12  and  N_15
REMARK    5  A    between atoms: N_15  and  C_16
REMARK                            x       y       z     vdW  Elec       q    Type
REMARK                         _______ _______ _______ _____ _____    ______ ____
ROOT
ATOM      1  N   UNL     1       2.824   4.610  20.461  0.00  0.00    +0.000 N 
ATOM      2  C   UNL     1       3.726   4.187  19.461  0.00  0.00    +0.000 C 
ATOM      3  O   UNL     1       4.275   3.091  19.403  0.00  0.00    +0.000 OA
ATOM      4  C   UNL     1       3.791   5.338  18.586  0.00  0.00    +0.000 A 
ATOM      5  C   UNL     1       4.520   5.522  17.415  0.00  0.00    +0.000 A 
ATOM      6  C   UNL     1       4.381   6.763  16.780  0.00  0.00    +0.000 A 
ATOM      7  C   UNL     1       3.538   7.773  17.295  0.00  0.00    +0.000 A 
ATOM      8  C   UNL     1       2.768   7.577  18.478  0.00  0.00    +0.000 A 
ATOM      9  C   UNL     1       1.825   8.405  19.170  0.00  0.00    +0.000 A 
ATOM     10  C   UNL     1       1.196   7.958  20.360  0.00  0.00    +0.000 A 
ATOM     11  C   UNL     1       1.452   6.689  20.905  0.00  0.00    +0.000 A 
ATOM     12  C   UNL     1       2.354   5.902  20.210  0.00  0.00    +0.000 A 
ATOM     13  C   UNL     1       2.963   6.349  19.058  0.00  0.00    +0.000 A 
ENDROOT
BRANCH   9  14
ATOM     14  S   UNL     1       1.372  10.035  18.611  0.00  0.00    +0.000 S 
ATOM     15  O   UNL     1       0.990  10.787  19.788  0.00  0.00    +0.000 OA
ATOM     16  O   UNL     1       2.343  10.549  17.680  0.00  0.00    +0.000 OA
BRANCH  14  17
ATOM     17  N   UNL     1      -0.077   9.811  17.739  0.00  0.00    +0.000 NA
ATOM     18  H   UNL     1      -0.142   8.832  17.457  0.00  0.00    +0.000 HD
BRANCH  17  19
ATOM     19  C   UNL     1      -1.317  10.418  18.300  0.00  0.00    +0.000 C 
ATOM     20  C   UNL     1      -2.544   9.617  17.905  0.00  0.00    +0.000 C 
ATOM     21  C   UNL     1      -2.879  10.142  16.524  0.00  0.00    +0.000 C 
ATOM     22  O   UNL     1      -2.361  11.476  16.442  0.00  0.00    +0.000 OA
ATOM     23  C   UNL     1      -1.653  11.758  17.661  0.00  0.00    +0.000 C 
ENDBRANCH  17  19
ENDBRANCH  14  17
ENDBRANCH   9  14
BRANCH   1  25
ATOM     24  C   UNL     1       1.183   2.899  21.102  0.00  0.00    +0.000 C 
ATOM     25  C   UNL     1       2.376   3.740  21.525  0.00  0.00    +0.000 C 
ENDBRANCH   1  25
TORSDOF 4
ENDMDL
MODEL 4
REMARK VINA RESULT:      -7.2      3.987      7.849
REMARK  Name = 
REMARK  5 active torsions:
REMARK  status: ('A' for Active; 'I' for Inactive)
REMARK    1  A    between atoms: C_1  and  C_2
REMARK    2  A    between atoms: C_2  and  N_3
REMARK    3  A    between atoms: C_11  and  S_12
REMARK    4  A    between atoms: S_12  and  N_15
REMARK    5  A    between atoms: N_15  and  C_16
REMARK                            x       y       z     vdW  Elec       q    Type
REMARK                         _______ _______ _______ _____ _____    ______ ____
ROOT
ATOM      1  N   UNL     1       5.164   4.720  18.174  0.00  0.00    +0.000 N 
ATOM      2  C   UNL     1       4.662   3.923  19.226  0.00  0.00    +0.000 C 
ATOM      3  O   UNL     1       5.130   2.855  19.607  0.00  0.00    +0.000 OA
ATOM      4  C   UNL     1       3.530   4.694  19.695  0.00  0.00    +0.000 A 
ATOM      5  C   UNL     1       2.636   4.420  20.725  0.00  0.00    +0.000 A 
ATOM      6  C   UNL     1       1.625   5.365  20.943  0.00  0.00    +0.000 A 
ATOM      7  C   UNL     1       1.523   6.539  20.165  0.00  0.00    +0.000 A 
ATOM      8  C   UNL     1       2.454   6.837  19.128  0.00  0.00    +0.000 A 
ATOM      9  C   UNL     1       2.596   7.955  18.243  0.00  0.00    +0.000 A 
ATOM     10  C   UNL     1       3.631   7.992  17.273  0.00  0.00    +0.000 A 
ATOM     11  C   UNL     1       4.568   6.953  17.146  0.00  0.00    +0.000 A 
ATOM     12  C   UNL     1       4.419   5.892  18.023  0.00  0.00    +0.000 A 
ATOM     13  C   UNL     1       3.406   5.865  18.956  0.00  0.00    +0.000 A 
ENDROOT
BRANCH   9  14
ATOM     14  S   UNL     1       1.506   9.364  18.277  0.00  0.00    +0.000 S 
ATOM     15  O   UNL     1       2.251  10.480  17.731  0.00  0.00    +0.000 OA
ATOM     16  O   UNL     1       0.203   9.019  17.774  0.00  0.00    +0.000 OA
BRANCH  14  17
ATOM     17  N   UNL     1       1.316   9.729  19.933  0.00  0.00    +0.000 NA
ATOM     18  H   UNL     1       1.882  10.549  20.156  0.00  0.00    +0.000 HD
BRANCH  17  19
ATOM     19  C   UNL     1      -0.068   9.714  20.485  0.00  0.00    +0.000 C 
ATOM     20  C   UNL     1      -0.674  11.106  20.477  0.00  0.00    +0.000 C 
ATOM     21  C   UNL     1      -0.142  11.730  21.751  0.00  0.00    +0.000 C 
ATOM     22  O   UNL     1       0.143  10.658  22.659  0.00  0.00    +0.000 OA
ATOM     23  C   UNL     1      -0.100   9.416  21.977  0.00  0.00    +0.000 C 
ENDBRANCH  17  19
ENDBRANCH  14  17
ENDBRANCH   9  14
BRANCH   1  25
ATOM     24  C   UNL     1       7.600   5.016  18.084  0.00  0.00    +0.000 C 
ATOM     25  C   UNL     1       6.371   4.386  17.452  0.00  0.00    +0.000 C 
ENDBRANCH   1  25
TORSDOF 4
ENDMDL
MODEL 5
REMARK VINA RESULT:      -7.1      1.079      2.863
REMARK  Name = 
REMARK  5 active torsions:
REMARK  status: ('A' for Active; 'I' for Inactive)
REMARK    1  A    between atoms: C_1  and  C_2
REMARK    2  A    between atoms: C_2  and  N_3
REMARK    3  A    between atoms: C_11  and  S_12
REMARK    4  A    between atoms: S_12  and  N_15
REMARK    5  A    between atoms: N_15  and  C_16
REMARK                            x       y       z     vdW  Elec       q    Type
REMARK                         _______ _______ _______ _____ _____    ______ ____
ROOT
ATOM      1  N   UNL     1       2.549   6.450  19.079  0.00  0.00    +0.000 N 
ATOM      2  C   UNL     1       1.965   5.229  19.480  0.00  0.00    +0.000 C 
ATOM      3  O   UNL     1       1.011   5.102  20.241  0.00  0.00    +0.000 OA
ATOM      4  C   UNL     1       2.758   4.250  18.766  0.00  0.00    +0.000 A 
ATOM      5  C   UNL     1       2.655   2.862  18.756  0.00  0.00    +0.000 A 
ATOM      6  C   UNL     1       3.579   2.173  17.961  0.00  0.00    +0.000 A 
ATOM      7  C   UNL     1       4.558   2.849  17.200  0.00  0.00    +0.000 A 
ATOM      8  C   UNL     1       4.647   4.271  17.185  0.00  0.00    +0.000 A 
ATOM      9  C   UNL     1       5.500   5.183  16.481  0.00  0.00    +0.000 A 
ATOM     10  C   UNL     1       5.380   6.584  16.663  0.00  0.00    +0.000 A 
ATOM     11  C   UNL     1       4.417   7.143  17.520  0.00  0.00    +0.000 A 
ATOM     12  C   UNL     1       3.595   6.243  18.177  0.00  0.00    +0.000 A 
ATOM     13  C   UNL     1       3.726   4.883  17.997  0.00  0.00    +0.000 A 
ENDROOT
BRANCH   9  14
ATOM     14  S   UNL     1       6.763   4.648  15.343  0.00  0.00    +0.000 S 
ATOM     15  O   UNL     1       7.140   5.809  14.564  0.00  0.00    +0.000 OA
ATOM     16  O   UNL     1       7.753   3.845  16.013  0.00  0.00    +0.000 OA
BRANCH  14  17
ATOM     17  N   UNL     1       5.955   3.621  14.246  0.00  0.00    +0.000 NA
ATOM     18  H   UNL     1       5.094   3.287  14.682  0.00  0.00    +0.000 HD
BRANCH  17  19
ATOM     19  C   UNL     1       5.842   4.079  12.832  0.00  0.00    +0.000 C 
ATOM     20  C   UNL     1       4.834   3.242  12.066  0.00  0.00    +0.000 C 
ATOM     21  C   UNL     1       5.634   2.030  11.638  0.00  0.00    +0.000 C 
ATOM     22  O   UNL     1       7.009   2.432  11.572  0.00  0.00    +0.000 OA
ATOM     23  C   UNL     1       7.099   3.794  12.023  0.00  0.00    +0.000 C 
ENDBRANCH  17  19
ENDBRANCH  14  17
ENDBRANCH   9  14
BRANCH   1  25
ATOM     24  C   UNL     1       1.663   8.597  18.281  0.00  0.00    +0.000 C 
ATOM     25  C   UNL     1       2.020   7.735  19.480  0.00  0.00    +0.000 C 
ENDBRANCH   1  25
TORSDOF 4
ENDMDL
MODEL 6
REMARK VINA RESULT:      -7.0      3.922      8.167
REMARK  Name = 
REMARK  5 active torsions:
REMARK  status: ('A' for Active; 'I' for Inactive)
REMARK    1  A    between atoms: C_1  and  C_2
REMARK    2  A    between atoms: C_2  and  N_3
REMARK    3  A    between atoms: C_11  and  S_12
REMARK    4  A    between atoms: S_12  and  N_15
REMARK    5  A    between atoms: N_15  and  C_16
REMARK                            x       y       z     vdW  Elec       q    Type
REMARK                         _______ _______ _______ _____ _____    ______ ____
ROOT
ATOM      1  N   UNL     1       4.063   5.285  17.231  0.00  0.00    +0.000 N 
ATOM      2  C   UNL     1       3.998   4.016  17.845  0.00  0.00    +0.000 C 
ATOM      3  O   UNL     1       4.533   2.990  17.438  0.00  0.00    +0.000 OA
ATOM      4  C   UNL     1       3.186   4.273  19.017  0.00  0.00    +0.000 A 
ATOM      5  C   UNL     1       2.776   3.400  20.020  0.00  0.00    +0.000 A 
ATOM      6  C   UNL     1       1.982   3.945  21.036  0.00  0.00    +0.000 A 
ATOM      7  C   UNL     1       1.623   5.312  21.049  0.00  0.00    +0.000 A 
ATOM      8  C   UNL     1       2.066   6.214  20.039  0.00  0.00    +0.000 A 
ATOM      9  C   UNL     1       1.884   7.623  19.850  0.00  0.00    +0.000 A 
ATOM     10  C   UNL     1       2.438   8.285  18.723  0.00  0.00    +0.000 A 
ATOM     11  C   UNL     1       3.197   7.603  17.758  0.00  0.00    +0.000 A 
ATOM     12  C   UNL     1       3.372   6.247  17.973  0.00  0.00    +0.000 A 
ATOM     13  C   UNL     1       2.824   5.613  19.067  0.00  0.00    +0.000 A 
ENDROOT
BRANCH   9  14
ATOM     14  S   UNL     1       0.963   8.644  20.982  0.00  0.00    +0.000 S 
ATOM     15  O   UNL     1      -0.327   8.010  21.159  0.00  0.00    +0.000 OA
ATOM     16  O   UNL     1       1.772   9.018  22.113  0.00  0.00    +0.000 OA
BRANCH  14  17
ATOM     17  N   UNL     1       0.637  10.075  20.114  0.00  0.00    +0.000 NA
ATOM     18  H   UNL     1       1.199  10.077  19.261  0.00  0.00    +0.000 HD
BRANCH  17  19
ATOM     19  C   UNL     1      -0.790  10.477  19.962  0.00  0.00    +0.000 C 
ATOM     20  C   UNL     1      -1.094  10.885  18.532  0.00  0.00    +0.000 C 
ATOM     21  C   UNL     1      -0.651  12.332  18.475  0.00  0.00    +0.000 C 
ATOM     22  O   UNL     1      -0.732  12.851  19.810  0.00  0.00    +0.000 OA
ATOM     23  C   UNL     1      -1.111  11.777  20.686  0.00  0.00    +0.000 C 
ENDBRANCH  17  19
ENDBRANCH  14  17
ENDBRANCH   9  14
BRANCH   1  25
ATOM     24  C   UNL     1       6.267   5.983  16.403  0.00  0.00    +0.000 C 
ATOM     25  C   UNL     1       4.857   5.539  16.050  0.00  0.00    +0.000 C 
ENDBRANCH   1  25
TORSDOF 4
ENDMDL
MODEL 7
REMARK VINA RESULT:      -7.0      4.113      8.019
REMARK  Name = 
REMARK  5 active torsions:
REMARK  status: ('A' for Active; 'I' for Inactive)
REMARK    1  A    between atoms: C_1  and  C_2
REMARK    2  A    between atoms: C_2  and  N_3
REMARK    3  A    between atoms: C_11  and  S_12
REMARK    4  A    between atoms: S_12  and  N_15
REMARK    5  A    between atoms: N_15  and  C_16
REMARK                            x       y       z     vdW  Elec       q    Type
REMARK                         _______ _______ _______ _____ _____    ______ ____
ROOT
ATOM      1  N   UNL     1       3.000   4.290  20.307  0.00  0.00    +0.000 N 
ATOM      2  C   UNL     1       3.911   3.969  19.277  0.00  0.00    +0.000 C 
ATOM      3  O   UNL     1       4.510   2.906  19.150  0.00  0.00    +0.000 OA
ATOM      4  C   UNL     1       3.912   5.172  18.471  0.00  0.00    +0.000 A 
ATOM      5  C   UNL     1       4.619   5.459  17.308  0.00  0.00    +0.000 A 
ATOM      6  C   UNL     1       4.415   6.727  16.749  0.00  0.00    +0.000 A 
ATOM      7  C   UNL     1       3.531   7.664  17.330  0.00  0.00    +0.000 A 
ATOM      8  C   UNL     1       2.784   7.363  18.506  0.00  0.00    +0.000 A 
ATOM      9  C   UNL     1       1.810   8.102  19.253  0.00  0.00    +0.000 A 
ATOM     10  C   UNL     1       1.216   7.557  20.420  0.00  0.00    +0.000 A 
ATOM     11  C   UNL     1       1.537   6.271  20.886  0.00  0.00    +0.000 A 
ATOM     12  C   UNL     1       2.468   5.570  20.138  0.00  0.00    +0.000 A 
ATOM     13  C   UNL     1       3.043   6.113  19.010  0.00  0.00    +0.000 A 
ENDROOT
BRANCH   9  14
ATOM     14  S   UNL     1       1.276   9.739  18.796  0.00  0.00    +0.000 S 
ATOM     15  O   UNL     1       2.433  10.418  18.251  0.00  0.00    +0.000 OA
ATOM     16  O   UNL     1       0.030   9.692  18.075  0.00  0.00    +0.000 OA
BRANCH  14  17
ATOM     17  N   UNL     1       0.960  10.524  20.277  0.00  0.00    +0.000 NA
ATOM     18  H   UNL     1       1.483  11.401  20.302  0.00  0.00    +0.000 HD
BRANCH  17  19
ATOM     19  C   UNL     1      -0.458  10.591  20.731  0.00  0.00    +0.000 C 
ATOM     20  C   UNL     1      -0.990  12.010  20.654  0.00  0.00    +0.000 C 
ATOM     21  C   UNL     1      -0.517  12.635  21.950  0.00  0.00    +0.000 C 
ATOM     22  O   UNL     1      -0.351  11.571  22.896  0.00  0.00    +0.000 OA
ATOM     23  C   UNL     1      -0.609  10.328  22.222  0.00  0.00    +0.000 C 
ENDBRANCH  17  19
ENDBRANCH  14  17
ENDBRANCH   9  14
BRANCH   1  25
ATOM     24  C   UNL     1       1.277   2.679  20.990  0.00  0.00    +0.000 C 
ATOM     25  C   UNL     1       2.605   3.337  21.322  0.00  0.00    +0.000 C 
ENDBRANCH   1  25
TORSDOF 4
ENDMDL
MODEL 8
REMARK VINA RESULT:      -6.9      3.986      7.971
REMARK  Name = 
REMARK  5 active torsions:
REMARK  status: ('A' for Active; 'I' for Inactive)
REMARK    1  A    between atoms: C_1  and  C_2
REMARK    2  A    between atoms: C_2  and  N_3
REMARK    3  A    between atoms: C_11  and  S_12
REMARK    4  A    between atoms: S_12  and  N_15
REMARK    5  A    between atoms: N_15  and  C_16
REMARK                            x       y       z     vdW  Elec       q    Type
REMARK                         _______ _______ _______ _____ _____    ______ ____
ROOT
ATOM      1  N   UNL     1       5.048   4.848  18.140  0.00  0.00    +0.000 N 
ATOM      2  C   UNL     1       4.612   3.994  19.176  0.00  0.00    +0.000 C 
ATOM      3  O   UNL     1       5.126   2.926  19.493  0.00  0.00    +0.000 OA
ATOM      4  C   UNL     1       3.476   4.710  19.718  0.00  0.00    +0.000 A 
ATOM      5  C   UNL     1       2.632   4.366  20.769  0.00  0.00    +0.000 A 
ATOM      6  C   UNL     1       1.603   5.269  21.065  0.00  0.00    +0.000 A 
ATOM      7  C   UNL     1       1.436   6.471  20.341  0.00  0.00    +0.000 A 
ATOM      8  C   UNL     1       2.317   6.840  19.284  0.00  0.00    +0.000 A 
ATOM      9  C   UNL     1       2.391   7.997  18.442  0.00  0.00    +0.000 A 
ATOM     10  C   UNL     1       3.386   8.106  17.437  0.00  0.00    +0.000 A 
ATOM     11  C   UNL     1       4.348   7.102  17.230  0.00  0.00    +0.000 A 
ATOM     12  C   UNL     1       4.264   6.002  18.067  0.00  0.00    +0.000 A 
ATOM     13  C   UNL     1       3.290   5.905  19.035  0.00  0.00    +0.000 A 
ENDROOT
BRANCH   9  14
ATOM     14  S   UNL     1       1.263   9.369  18.577  0.00  0.00    +0.000 S 
ATOM     15  O   UNL     1       2.072  10.568  18.648  0.00  0.00    +0.000 OA
ATOM     16  O   UNL     1       0.189   9.248  17.625  0.00  0.00    +0.000 OA
BRANCH  14  17
ATOM     17  N   UNL     1       0.568   9.211  20.127  0.00  0.00    +0.000 NA
ATOM     18  H   UNL     1       0.541   8.221  20.375  0.00  0.00    +0.000 HD
BRANCH  17  19
ATOM     19  C   UNL     1       1.038  10.145  21.189  0.00  0.00    +0.000 C 
ATOM     20  C   UNL     1       1.081   9.457  22.541  0.00  0.00    +0.000 C 
ATOM     21  C   UNL     1      -0.346   9.566  23.038  0.00  0.00    +0.000 C 
ATOM     22  O   UNL     1      -0.928  10.712  22.403  0.00  0.00    +0.000 OA
ATOM     23  C   UNL     1       0.035  11.251  21.482  0.00  0.00    +0.000 C 
ENDBRANCH  17  19
ENDBRANCH  14  17
ENDBRANCH   9  14
BRANCH   1  25
ATOM     24  C   UNL     1       7.491   5.090  18.049  0.00  0.00    +0.000 C 
ATOM     25  C   UNL     1       6.236   4.582  17.359  0.00  0.00    +0.000 C 
ENDBRANCH   1  25
TORSDOF 4
ENDMDL
MODEL 9
REMARK VINA RESULT:      -6.9      2.318      6.766
REMARK  Name = 
REMARK  5 active torsions:
REMARK  status: ('A' for Active; 'I' for Inactive)
REMARK    1  A    between atoms: C_1  and  C_2
REMARK    2  A    between atoms: C_2  and  N_3
REMARK    3  A    between atoms: C_11  and  S_12
REMARK    4  A    between atoms: S_12  and  N_15
REMARK    5  A    between atoms: N_15  and  C_16
REMARK                            x       y       z     vdW  Elec       q    Type
REMARK                         _______ _______ _______ _____ _____    ______ ____
ROOT
ATOM      1  N   UNL     1       5.723   4.318  14.955  0.00  0.00    +0.000 N 
ATOM      2  C   UNL     1       6.825   5.117  15.329  0.00  0.00    +0.000 C 
ATOM      3  O   UNL     1       7.640   5.623  14.564  0.00  0.00    +0.000 OA
ATOM      4  C   UNL     1       6.703   5.170  16.770  0.00  0.00    +0.000 A 
ATOM      5  C   UNL     1       7.504   5.819  17.705  0.00  0.00    +0.000 A 
ATOM      6  C   UNL     1       7.134   5.682  19.048  0.00  0.00    +0.000 A 
ATOM      7  C   UNL     1       6.000   4.932  19.436  0.00  0.00    +0.000 A 
ATOM      8  C   UNL     1       5.161   4.291  18.480  0.00  0.00    +0.000 A 
ATOM      9  C   UNL     1       3.956   3.526  18.604  0.00  0.00    +0.000 A 
ATOM     10  C   UNL     1       3.316   2.980  17.462  0.00  0.00    +0.000 A 
ATOM     11  C   UNL     1       3.817   3.175  16.164  0.00  0.00    +0.000 A 
ATOM     12  C   UNL     1       4.973   3.931  16.069  0.00  0.00    +0.000 A 
ATOM     13  C   UNL     1       5.590   4.450  17.186  0.00  0.00    +0.000 A 
ENDROOT
BRANCH   9  14
ATOM     14  S   UNL     1       3.175   3.195  20.171  0.00  0.00    +0.000 S 
ATOM     15  O   UNL     1       1.892   2.591  19.877  0.00  0.00    +0.000 OA
ATOM     16  O   UNL     1       4.098   2.578  21.087  0.00  0.00    +0.000 OA
BRANCH  14  17
ATOM     17  N   UNL     1       2.803   4.734  20.807  0.00  0.00    +0.000 NA
ATOM     18  H   UNL     1       3.662   5.283  20.861  0.00  0.00    +0.000 HD
BRANCH  17  19
ATOM     19  C   UNL     1       1.608   5.435  20.257  0.00  0.00    +0.000 C 
ATOM     20  C   UNL     1       1.852   5.894  18.831  0.00  0.00    +0.000 C 
ATOM     21  C   UNL     1       2.579   7.211  19.004  0.00  0.00    +0.000 C 
ATOM     22  O   UNL     1       2.198   7.739  20.281  0.00  0.00    +0.000 OA
ATOM     23  C   UNL     1       1.354   6.775  20.931  0.00  0.00    +0.000 C 
ENDBRANCH  17  19
ENDBRANCH  14  17
ENDBRANCH   9  14
BRANCH   1  25
ATOM     24  C   UNL     1       6.546   3.452  12.809  0.00  0.00    +0.000 C 
ATOM     25  C   UNL     1       5.382   4.058  13.574  0.00  0.00    +0.000 C 
ENDBRANCH   1  25
TORSDOF 4
ENDMDL
