MODEL 1
REMARK VINA RESULT:      -8.3      0.000      0.000
REMARK  Name = 
REMARK  11 active torsions:
REMARK  status: ('A' for Active; 'I' for Inactive)
REMARK    1  A    between atoms: C_1  and  C_2
REMARK    2  A    between atoms: C_7  and  C_8
REMARK    3  A    between atoms: C_16  and  C_17
REMARK    4  A    between atoms: C_17  and  C_18
REMARK    5  A    between atoms: C_18  and  N_19
REMARK    6  A    between atoms: N_19  and  C_20
REMARK    7  A    between atoms: C_20  and  C_21
REMARK    8  A    between atoms: C_21  and  C_22
REMARK    9  A    between atoms: C_22  and  C_23
REMARK   10  A    between atoms: C_23  and  C_24
REMARK   11  A    between atoms: C_27  and  O_28
REMARK                            x       y       z     vdW  Elec       q    Type
REMARK                         _______ _______ _______ _____ _____    ______ ____
ROOT
ATOM      1  C   UNL     1       4.436   4.444  17.974  0.00  0.00    +0.000 A 
ATOM      2  N   UNL     1       4.695   3.483  18.920  0.00  0.00    +0.000 N 
ATOM      3  C   UNL     1       3.664   3.342  19.814  0.00  0.00    +0.000 A 
ATOM      4  C   UNL     1       3.489   2.404  20.843  0.00  0.00    +0.000 A 
ATOM      5  C   UNL     1       2.345   2.503  21.637  0.00  0.00    +0.000 A 
ATOM      6  C   UNL     1       1.421   3.513  21.417  0.00  0.00    +0.000 A 
ATOM      7  C   UNL     1       1.615   4.435  20.381  0.00  0.00    +0.000 A 
ATOM      8  C   UNL     1       2.752   4.355  19.539  0.00  0.00    +0.000 A 
ATOM      9  C   UNL     1       3.250   5.075  18.383  0.00  0.00    +0.000 A 
ATOM     10  H   UNL     1       5.523   2.911  18.943  0.00  0.00    +0.000 HD
ENDROOT
BRANCH   1  17
ATOM     11  C   UNL     1       7.082   6.005  18.143  0.00  0.00    +0.000 C 
ATOM     12  C   UNL     1       6.563   5.360  16.886  0.00  0.00    +0.000 A 
ATOM     13  C   UNL     1       7.381   5.448  15.738  0.00  0.00    +0.000 A 
ATOM     14  C   UNL     1       7.010   4.861  14.532  0.00  0.00    +0.000 A 
ATOM     15  C   UNL     1       5.792   4.211  14.439  0.00  0.00    +0.000 A 
ATOM     16  C   UNL     1       4.955   4.149  15.555  0.00  0.00    +0.000 A 
ATOM     17  C   UNL     1       5.324   4.678  16.806  0.00  0.00    +0.000 A 
ENDBRANCH   1  17
BRANCH   9  18
ATOM     18  C   UNL     1       2.624   6.257  17.676  0.00  0.00    +0.000 C 
BRANCH  18  19
ATOM     19  C   UNL     1       3.413   7.553  17.738  0.00  0.00    +0.000 C 
BRANCH  19  20
ATOM     20  N   UNL     1       2.576   8.748  17.588  0.00  0.00    +0.000 NA
ATOM     21  H   UNL     1       2.086   8.710  16.693  0.00  0.00    +0.000 HD
BRANCH  20  22
ATOM     22  C   UNL     1       1.611   8.753  18.686  0.00  0.00    +0.000 C 
BRANCH  22  23
ATOM     23  C   UNL     1       0.982  10.127  18.859  0.00  0.00    +0.000 C 
BRANCH  23  24
ATOM     24  C   UNL     1      -0.426   9.954  19.420  0.00  0.00    +0.000 C 
BRANCH  24  25
ATOM     25  C   UNL     1      -1.315  11.143  19.075  0.00  0.00    +0.000 C 
BRANCH  25  26
ATOM     26  C   UNL     1      -2.155  10.837  17.862  0.00  0.00    +0.000 A 
ATOM     27  C   UNL     1      -1.719   9.892  16.923  0.00  0.00    +0.000 A 
ATOM     28  C   UNL     1      -2.475   9.630  15.779  0.00  0.00    +0.000 A 
ATOM     29  C   UNL     1      -3.663  10.324  15.573  0.00  0.00    +0.000 A 
ATOM     30  C   UNL     1      -4.104  11.273  16.487  0.00  0.00    +0.000 A 
ATOM     31  C   UNL     1      -3.349  11.534  17.630  0.00  0.00    +0.000 A 
BRANCH  29  32
ATOM     32  O   UNL     1      -4.431  10.101  14.469  0.00  0.00    +0.000 OA
ATOM     33  H   UNL     1      -4.671  10.960  14.084  0.00  0.00    +0.000 HD
ENDBRANCH  29  32
ENDBRANCH  25  26
ENDBRANCH  24  25
ENDBRANCH  23  24
ENDBRANCH  22  23
ENDBRANCH  20  22
ENDBRANCH  19  20
ENDBRANCH  18  19
ENDBRANCH   9  18
TORSDOF 10
ENDMDL
MODEL 2
REMARK VINA RESULT:      -8.3      1.176      1.547
REMARK  Name = 
REMARK  11 active torsions:
REMARK  status: ('A' for Active; 'I' for Inactive)
REMARK    1  A    between atoms: C_1  and  C_2
REMARK    2  A    between atoms: C_7  and  C_8
REMARK    3  A    between atoms: C_16  and  C_17
REMARK    4  A    between atoms: C_17  and  C_18
REMARK    5  A    between atoms: C_18  and  N_19
REMARK    6  A    between atoms: N_19  and  C_20
REMARK    7  A    between atoms: C_20  and  C_21
REMARK    8  A    between atoms: C_21  and  C_22
REMARK    9  A    between atoms: C_22  and  C_23
REMARK   10  A    between atoms: C_23  and  C_24
REMARK   11  A    between atoms: C_27  and  O_28
REMARK                            x       y       z     vdW  Elec       q    Type
REMARK                         _______ _______ _______ _____ _____    ______ ____
ROOT
ATOM      1  C   UNL     1       4.412   4.372  17.478  0.00  0.00    +0.000 A 
ATOM      2  N   UNL     1       4.099   3.144  18.007  0.00  0.00    +0.000 N 
ATOM      3  C   UNL     1       3.088   3.216  18.930  0.00  0.00    +0.000 A 
ATOM      4  C   UNL     1       2.408   2.188  19.601  0.00  0.00    +0.000 A 
ATOM      5  C   UNL     1       1.424   2.543  20.525  0.00  0.00    +0.000 A 
ATOM      6  C   UNL     1       1.144   3.877  20.778  0.00  0.00    +0.000 A 
ATOM      7  C   UNL     1       1.832   4.885  20.093  0.00  0.00    +0.000 A 
ATOM      8  C   UNL     1       2.823   4.566  19.131  0.00  0.00    +0.000 A 
ATOM      9  C   UNL     1       3.680   5.309  18.226  0.00  0.00    +0.000 A 
ATOM     10  H   UNL     1       4.527   2.276  17.728  0.00  0.00    +0.000 HD
ENDROOT
BRANCH   1  17
ATOM     11  C   UNL     1       7.314   5.327  17.835  0.00  0.00    +0.000 C 
ATOM     12  C   UNL     1       6.711   4.939  16.512  0.00  0.00    +0.000 A 
ATOM     13  C   UNL     1       7.564   4.979  15.386  0.00  0.00    +0.000 A 
ATOM     14  C   UNL     1       7.116   4.613  14.121  0.00  0.00    +0.000 A 
ATOM     15  C   UNL     1       5.794   4.242  13.948  0.00  0.00    +0.000 A 
ATOM     16  C   UNL     1       4.929   4.235  15.044  0.00  0.00    +0.000 A 
ATOM     17  C   UNL     1       5.362   4.541  16.349  0.00  0.00    +0.000 A 
ENDBRANCH   1  17
BRANCH   9  18
ATOM     18  C   UNL     1       3.771   6.807  18.044  0.00  0.00    +0.000 C 
BRANCH  18  19
ATOM     19  C   UNL     1       2.447   7.529  17.860  0.00  0.00    +0.000 C 
BRANCH  19  20
ATOM     20  N   UNL     1       2.602   8.933  17.466  0.00  0.00    +0.000 NA
ATOM     21  H   UNL     1       2.631   8.999  16.448  0.00  0.00    +0.000 HD
BRANCH  20  22
ATOM     22  C   UNL     1       1.447   9.666  17.980  0.00  0.00    +0.000 C 
BRANCH  22  23
ATOM     23  C   UNL     1       0.998   9.114  19.324  0.00  0.00    +0.000 C 
BRANCH  23  24
ATOM     24  C   UNL     1       0.065  10.126  19.983  0.00  0.00    +0.000 C 
BRANCH  24  25
ATOM     25  C   UNL     1      -0.284  11.266  19.033  0.00  0.00    +0.000 C 
BRANCH  25  26
ATOM     26  C   UNL     1      -1.734  11.188  18.631  0.00  0.00    +0.000 A 
ATOM     27  C   UNL     1      -2.670  12.069  19.191  0.00  0.00    +0.000 A 
ATOM     28  C   UNL     1      -4.020  11.979  18.849  0.00  0.00    +0.000 A 
ATOM     29  C   UNL     1      -4.432  10.999  17.952  0.00  0.00    +0.000 A 
ATOM     30  C   UNL     1      -3.521  10.110  17.396  0.00  0.00    +0.000 A 
ATOM     31  C   UNL     1      -2.172  10.200  17.738  0.00  0.00    +0.000 A 
BRANCH  29  32
ATOM     32  O   UNL     1      -5.741  10.873  17.592  0.00  0.00    +0.000 OA
ATOM     33  H   UNL     1      -5.923   9.935  17.417  0.00  0.00    +0.000 HD
ENDBRANCH  29  32
ENDBRANCH  25  26
ENDBRANCH  24  25
ENDBRANCH  23  24
ENDBRANCH  22  23
ENDBRANCH  20  22
ENDBRANCH  19  20
ENDBRANCH  18  19
ENDBRANCH   9  18
TORSDOF 10
ENDMDL
MODEL 3
REMARK VINA RESULT:      -8.2      4.804      8.570
REMARK  Name = 
REMARK  11 active torsions:
REMARK  status: ('A' for Active; 'I' for Inactive)
REMARK    1  A    between atoms: C_1  and  C_2
REMARK    2  A    between atoms: C_7  and  C_8
REMARK    3  A    between atoms: C_16  and  C_17
REMARK    4  A    between atoms: C_17  and  C_18
REMARK    5  A    between atoms: C_18  and  N_19
REMARK    6  A    between atoms: N_19  and  C_20
REMARK    7  A    between atoms: C_20  and  C_21
REMARK    8  A    between atoms: C_21  and  C_22
REMARK    9  A    between atoms: C_22  and  C_23
REMARK   10  A    between atoms: C_23  and  C_24
REMARK   11  A    between atoms: C_27  and  O_28
REMARK                            x       y       z     vdW  Elec       q    Type
REMARK                         _______ _______ _______ _____ _____    ______ ____
ROOT
ATOM      1  C   UNL     1       2.807   6.032  19.461  0.00  0.00    +0.000 A 
ATOM      2  N   UNL     1       2.151   6.797  20.394  0.00  0.00    +0.000 N 
ATOM      3  C   UNL     1       1.760   8.012  19.891  0.00  0.00    +0.000 A 
ATOM      4  C   UNL     1       0.976   9.017  20.476  0.00  0.00    +0.000 A 
ATOM      5  C   UNL     1       0.750  10.185  19.745  0.00  0.00    +0.000 A 
ATOM      6  C   UNL     1       1.303  10.344  18.484  0.00  0.00    +0.000 A 
ATOM      7  C   UNL     1       2.079   9.326  17.919  0.00  0.00    +0.000 A 
ATOM      8  C   UNL     1       2.313   8.115  18.619  0.00  0.00    +0.000 A 
ATOM      9  C   UNL     1       3.001   6.867  18.349  0.00  0.00    +0.000 A 
ATOM     10  H   UNL     1       1.938   6.497  21.331  0.00  0.00    +0.000 HD
ENDROOT
BRANCH   1  17
ATOM     11  C   UNL     1       0.796   3.845  20.256  0.00  0.00    +0.000 C 
ATOM     12  C   UNL     1       2.264   3.600  20.035  0.00  0.00    +0.000 A 
ATOM     13  C   UNL     1       2.714   2.266  20.158  0.00  0.00    +0.000 A 
ATOM     14  C   UNL     1       4.045   1.924  19.946  0.00  0.00    +0.000 A 
ATOM     15  C   UNL     1       4.963   2.917  19.648  0.00  0.00    +0.000 A 
ATOM     16  C   UNL     1       4.541   4.244  19.560  0.00  0.00    +0.000 A 
ATOM     17  C   UNL     1       3.192   4.619  19.709  0.00  0.00    +0.000 A 
ENDBRANCH   1  17
BRANCH   9  18
ATOM     18  C   UNL     1       3.756   6.467  17.100  0.00  0.00    +0.000 C 
BRANCH  18  19
ATOM     19  C   UNL     1       5.097   7.150  16.896  0.00  0.00    +0.000 C 
BRANCH  19  20
ATOM     20  N   UNL     1       6.158   6.610  17.751  0.00  0.00    +0.000 NA
ATOM     21  H   UNL     1       6.156   5.591  17.695  0.00  0.00    +0.000 HD
BRANCH  20  22
ATOM     22  C   UNL     1       7.432   7.133  17.259  0.00  0.00    +0.000 C 
BRANCH  22  23
ATOM     23  C   UNL     1       8.202   7.837  18.365  0.00  0.00    +0.000 C 
BRANCH  23  24
ATOM     24  C   UNL     1       8.340   9.313  18.004  0.00  0.00    +0.000 C 
BRANCH  24  25
ATOM     25  C   UNL     1       9.160  10.069  19.043  0.00  0.00    +0.000 C 
BRANCH  25  26
ATOM     26  C   UNL     1       9.755  11.314  18.439  0.00  0.00    +0.000 A 
ATOM     27  C   UNL     1       8.963  12.456  18.253  0.00  0.00    +0.000 A 
ATOM     28  C   UNL     1       9.500  13.600  17.661  0.00  0.00    +0.000 A 
ATOM     29  C   UNL     1      10.828  13.595  17.246  0.00  0.00    +0.000 A 
ATOM     30  C   UNL     1      11.624  12.469  17.411  0.00  0.00    +0.000 A 
ATOM     31  C   UNL     1      11.087  11.325  18.003  0.00  0.00    +0.000 A 
BRANCH  29  32
ATOM     32  O   UNL     1      11.392  14.690  16.661  0.00  0.00    +0.000 OA
ATOM     33  H   UNL     1      11.222  14.649  15.706  0.00  0.00    +0.000 HD
ENDBRANCH  29  32
ENDBRANCH  25  26
ENDBRANCH  24  25
ENDBRANCH  23  24
ENDBRANCH  22  23
ENDBRANCH  20  22
ENDBRANCH  19  20
ENDBRANCH  18  19
ENDBRANCH   9  18
TORSDOF 10
ENDMDL
MODEL 4
REMARK VINA RESULT:      -8.2      0.868      1.034
REMARK  Name = 
REMARK  11 active torsions:
REMARK  status: ('A' for Active; 'I' for Inactive)
REMARK    1  A    between atoms: C_1  and  C_2
REMARK    2  A    between atoms: C_7  and  C_8
REMARK    3  A    between atoms: C_16  and  C_17
REMARK    4  A    between atoms: C_17  and  C_18
REMARK    5  A    between atoms: C_18  and  N_19
REMARK    6  A    between atoms: N_19  and  C_20
REMARK    7  A    between atoms: C_20  and  C_21
REMARK    8  A    between atoms: C_21  and  C_22
REMARK    9  A    between atoms: C_22  and  C_23
REMARK   10  A    between atoms: C_23  and  C_24
REMARK   11  A    between atoms: C_27  and  O_28
REMARK                            x       y       z     vdW  Elec       q    Type
REMARK                         _______ _______ _______ _____ _____    ______ ____
ROOT
ATOM      1  C   UNL     1       4.276   4.400  18.170  0.00  0.00    +0.000 A 
ATOM      2  N   UNL     1       4.533   3.459  19.137  0.00  0.00    +0.000 N 
ATOM      3  C   UNL     1       3.469   3.282  19.986  0.00  0.00    +0.000 A 
ATOM      4  C   UNL     1       3.288   2.347  21.016  0.00  0.00    +0.000 A 
ATOM      5  C   UNL     1       2.106   2.404  21.756  0.00  0.00    +0.000 A 
ATOM      6  C   UNL     1       1.150   3.371  21.483  0.00  0.00    +0.000 A 
ATOM      7  C   UNL     1       1.351   4.290  20.447  0.00  0.00    +0.000 A 
ATOM      8  C   UNL     1       2.528   4.252  19.658  0.00  0.00    +0.000 A 
ATOM      9  C   UNL     1       3.047   4.982  18.517  0.00  0.00    +0.000 A 
ATOM     10  H   UNL     1       5.383   2.925  19.204  0.00  0.00    +0.000 HD
ENDROOT
BRANCH   1  17
ATOM     11  C   UNL     1       6.954   5.882  18.487  0.00  0.00    +0.000 C 
ATOM     12  C   UNL     1       6.458   5.306  17.188  0.00  0.00    +0.000 A 
ATOM     13  C   UNL     1       7.314   5.423  16.070  0.00  0.00    +0.000 A 
ATOM     14  C   UNL     1       6.966   4.899  14.829  0.00  0.00    +0.000 A 
ATOM     15  C   UNL     1       5.735   4.286  14.670  0.00  0.00    +0.000 A 
ATOM     16  C   UNL     1       4.863   4.197  15.756  0.00  0.00    +0.000 A 
ATOM     17  C   UNL     1       5.205   4.661  17.040  0.00  0.00    +0.000 A 
ENDBRANCH   1  17
BRANCH   9  18
ATOM     18  C   UNL     1       2.403   6.129  17.770  0.00  0.00    +0.000 C 
BRANCH  18  19
ATOM     19  C   UNL     1       2.660   7.513  18.342  0.00  0.00    +0.000 C 
BRANCH  19  20
ATOM     20  N   UNL     1       2.355   8.595  17.400  0.00  0.00    +0.000 NA
ATOM     21  H   UNL     1       1.585   8.310  16.793  0.00  0.00    +0.000 HD
BRANCH  20  22
ATOM     22  C   UNL     1       1.965   9.766  18.183  0.00  0.00    +0.000 C 
BRANCH  22  23
ATOM     23  C   UNL     1       1.186   9.363  19.425  0.00  0.00    +0.000 C 
BRANCH  23  24
ATOM     24  C   UNL     1      -0.287   9.697  19.211  0.00  0.00    +0.000 C 
BRANCH  24  25
ATOM     25  C   UNL     1      -0.469  10.749  18.122  0.00  0.00    +0.000 C 
BRANCH  25  26
ATOM     26  C   UNL     1      -1.932  10.939  17.815  0.00  0.00    +0.000 A 
ATOM     27  C   UNL     1      -2.447  10.550  16.571  0.00  0.00    +0.000 A 
ATOM     28  C   UNL     1      -3.794  10.756  16.267  0.00  0.00    +0.000 A 
ATOM     29  C   UNL     1      -4.620  11.361  17.208  0.00  0.00    +0.000 A 
ATOM     30  C   UNL     1      -4.125  11.763  18.442  0.00  0.00    +0.000 A 
ATOM     31  C   UNL     1      -2.779  11.557  18.745  0.00  0.00    +0.000 A 
BRANCH  29  32
ATOM     32  O   UNL     1      -5.941  11.583  16.952  0.00  0.00    +0.000 OA
ATOM     33  H   UNL     1      -6.084  11.512  15.993  0.00  0.00    +0.000 HD
ENDBRANCH  29  32
ENDBRANCH  25  26
ENDBRANCH  24  25
ENDBRANCH  23  24
ENDBRANCH  22  23
ENDBRANCH  20  22
ENDBRANCH  19  20
ENDBRANCH  18  19
ENDBRANCH   9  18
TORSDOF 10
ENDMDL
MODEL 5
REMARK VINA RESULT:      -8.0      3.222      6.171
REMARK  Name = 
REMARK  11 active torsions:
REMARK  status: ('A' for Active; 'I' for Inactive)
REMARK    1  A    between atoms: C_1  and  C_2
REMARK    2  A    between atoms: C_7  and  C_8
REMARK    3  A    between atoms: C_16  and  C_17
REMARK    4  A    between atoms: C_17  and  C_18
REMARK    5  A    between atoms: C_18  and  N_19
REMARK    6  A    between atoms: N_19  and  C_20
REMARK    7  A    between atoms: C_20  and  C_21
REMARK    8  A    between atoms: C_21  and  C_22
REMARK    9  A    between atoms: C_22  and  C_23
REMARK   10  A    between atoms: C_23  and  C_24
REMARK   11  A    between atoms: C_27  and  O_28
REMARK                            x       y       z     vdW  Elec       q    Type
REMARK                         _______ _______ _______ _____ _____    ______ ____
ROOT
ATOM      1  C   UNL     1       6.871   5.562  15.791  0.00  0.00    +0.000 A 
ATOM      2  N   UNL     1       7.668   5.308  14.702  0.00  0.00    +0.000 N 
ATOM      3  C   UNL     1       6.999   4.630  13.715  0.00  0.00    +0.000 A 
ATOM      4  C   UNL     1       7.415   4.288  12.419  0.00  0.00    +0.000 A 
ATOM      5  C   UNL     1       6.535   3.560  11.616  0.00  0.00    +0.000 A 
ATOM      6  C   UNL     1       5.293   3.177  12.099  0.00  0.00    +0.000 A 
ATOM      7  C   UNL     1       4.899   3.533  13.394  0.00  0.00    +0.000 A 
ATOM      8  C   UNL     1       5.754   4.291  14.233  0.00  0.00    +0.000 A 
ATOM      9  C   UNL     1       5.676   4.862  15.564  0.00  0.00    +0.000 A 
ATOM     10  H   UNL     1       8.623   5.612  14.608  0.00  0.00    +0.000 HD
ENDROOT
BRANCH   1  17
ATOM     11  C   UNL     1       7.897   4.434  18.463  0.00  0.00    +0.000 C 
ATOM     12  C   UNL     1       7.825   5.902  18.141  0.00  0.00    +0.000 A 
ATOM     13  C   UNL     1       8.308   6.796  19.122  0.00  0.00    +0.000 A 
ATOM     14  C   UNL     1       8.314   8.171  18.915  0.00  0.00    +0.000 A 
ATOM     15  C   UNL     1       7.796   8.684  17.738  0.00  0.00    +0.000 A 
ATOM     16  C   UNL     1       7.280   7.816  16.775  0.00  0.00    +0.000 A 
ATOM     17  C   UNL     1       7.312   6.416  16.925  0.00  0.00    +0.000 A 
ENDBRANCH   1  17
BRANCH   9  18
ATOM     18  C   UNL     1       4.527   4.792  16.546  0.00  0.00    +0.000 C 
BRANCH  18  19
ATOM     19  C   UNL     1       4.301   3.439  17.198  0.00  0.00    +0.000 C 
BRANCH  19  20
ATOM     20  N   UNL     1       4.705   3.399  18.606  0.00  0.00    +0.000 NA
ATOM     21  H   UNL     1       4.979   4.335  18.908  0.00  0.00    +0.000 HD
BRANCH  20  22
ATOM     22  C   UNL     1       3.556   2.941  19.384  0.00  0.00    +0.000 C 
BRANCH  22  23
ATOM     23  C   UNL     1       2.250   3.415  18.767  0.00  0.00    +0.000 C 
BRANCH  23  24
ATOM     24  C   UNL     1       1.535   4.322  19.765  0.00  0.00    +0.000 C 
BRANCH  24  25
ATOM     25  C   UNL     1       2.469   5.395  20.313  0.00  0.00    +0.000 C 
BRANCH  25  26
ATOM     26  C   UNL     1       2.286   6.686  19.557  0.00  0.00    +0.000 A 
ATOM     27  C   UNL     1       2.775   6.813  18.250  0.00  0.00    +0.000 A 
ATOM     28  C   UNL     1       2.640   8.018  17.558  0.00  0.00    +0.000 A 
ATOM     29  C   UNL     1       2.022   9.097  18.181  0.00  0.00    +0.000 A 
ATOM     30  C   UNL     1       1.541   8.993  19.480  0.00  0.00    +0.000 A 
ATOM     31  C   UNL     1       1.676   7.789  20.171  0.00  0.00    +0.000 A 
BRANCH  29  32
ATOM     32  O   UNL     1       1.871  10.292  17.543  0.00  0.00    +0.000 OA
ATOM     33  H   UNL     1       2.553  10.361  16.854  0.00  0.00    +0.000 HD
ENDBRANCH  29  32
ENDBRANCH  25  26
ENDBRANCH  24  25
ENDBRANCH  23  24
ENDBRANCH  22  23
ENDBRANCH  20  22
ENDBRANCH  19  20
ENDBRANCH  18  19
ENDBRANCH   9  18
TORSDOF 10
ENDMDL
MODEL 6
REMARK VINA RESULT:      -8.0      1.214      1.644
REMARK  Name = 
REMARK  11 active torsions:
REMARK  status: ('A' for Active; 'I' for Inactive)
REMARK    1  A    between atoms: C_1  and  C_2
REMARK    2  A    between atoms: C_7  and  C_8
REMARK    3  A    between atoms: C_16  and  C_17
REMARK    4  A    between atoms: C_17  and  C_18
REMARK    5  A    between atoms: C_18  and  N_19
REMARK    6  A    between atoms: N_19  and  C_20
REMARK    7  A    between atoms: C_20  and  C_21
REMARK    8  A    between atoms: C_21  and  C_22
REMARK    9  A    between atoms: C_22  and  C_23
REMARK   10  A    between atoms: C_23  and  C_24
REMARK   11  A    between atoms: C_27  and  O_28
REMARK                            x       y       z     vdW  Elec       q    Type
REMARK                         _______ _______ _______ _____ _____    ______ ____
ROOT
ATOM      1  C   UNL     1       4.773   4.463  17.814  0.00  0.00    +0.000 A 
ATOM      2  N   UNL     1       4.782   3.311  18.561  0.00  0.00    +0.000 N 
ATOM      3  C   UNL     1       3.858   3.340  19.574  0.00  0.00    +0.000 A 
ATOM      4  C   UNL     1       3.477   2.332  20.473  0.00  0.00    +0.000 A 
ATOM      5  C   UNL     1       2.518   2.640  21.439  0.00  0.00    +0.000 A 
ATOM      6  C   UNL     1       1.974   3.913  21.511  0.00  0.00    +0.000 A 
ATOM      7  C   UNL     1       2.366   4.901  20.601  0.00  0.00    +0.000 A 
ATOM      8  C   UNL     1       3.321   4.622  19.590  0.00  0.00    +0.000 A 
ATOM      9  C   UNL     1       3.917   5.350  18.487  0.00  0.00    +0.000 A 
ATOM     10  H   UNL     1       5.365   2.512  18.374  0.00  0.00    +0.000 HD
ENDROOT
BRANCH   1  17
ATOM     11  C   UNL     1       7.568   5.746  17.736  0.00  0.00    +0.000 C 
ATOM     12  C   UNL     1       6.872   5.168  16.533  0.00  0.00    +0.000 A 
ATOM     13  C   UNL     1       7.586   5.183  15.314  0.00  0.00    +0.000 A 
ATOM     14  C   UNL     1       7.048   4.649  14.148  0.00  0.00    +0.000 A 
ATOM     15  C   UNL     1       5.766   4.126  14.168  0.00  0.00    +0.000 A 
ATOM     16  C   UNL     1       5.034   4.138  15.356  0.00  0.00    +0.000 A 
ATOM     17  C   UNL     1       5.568   4.616  16.568  0.00  0.00    +0.000 A 
ENDBRANCH   1  17
BRANCH   9  18
ATOM     18  C   UNL     1       3.662   6.779  18.062  0.00  0.00    +0.000 C 
BRANCH  18  19
ATOM     19  C   UNL     1       2.213   7.230  18.108  0.00  0.00    +0.000 C 
BRANCH  19  20
ATOM     20  N   UNL     1       1.936   8.179  19.191  0.00  0.00    +0.000 NA
ATOM     21  H   UNL     1       2.764   8.272  19.782  0.00  0.00    +0.000 HD
BRANCH  20  22
ATOM     22  C   UNL     1       1.613   9.467  18.580  0.00  0.00    +0.000 C 
BRANCH  22  23
ATOM     23  C   UNL     1       0.462  10.147  19.303  0.00  0.00    +0.000 C 
BRANCH  23  24
ATOM     24  C   UNL     1      -0.666  10.395  18.306  0.00  0.00    +0.000 C 
BRANCH  24  25
ATOM     25  C   UNL     1      -1.278  11.779  18.486  0.00  0.00    +0.000 C 
BRANCH  25  26
ATOM     26  C   UNL     1      -2.764  11.732  18.244  0.00  0.00    +0.000 A 
ATOM     27  C   UNL     1      -3.656  12.121  19.254  0.00  0.00    +0.000 A 
ATOM     28  C   UNL     1      -5.034  12.046  19.048  0.00  0.00    +0.000 A 
ATOM     29  C   UNL     1      -5.518  11.572  17.833  0.00  0.00    +0.000 A 
ATOM     30  C   UNL     1      -4.649  11.171  16.825  0.00  0.00    +0.000 A 
ATOM     31  C   UNL     1      -3.272  11.246  17.032  0.00  0.00    +0.000 A 
BRANCH  29  32
ATOM     32  O   UNL     1      -6.856  11.480  17.591  0.00  0.00    +0.000 OA
ATOM     33  H   UNL     1      -7.052  10.577  17.289  0.00  0.00    +0.000 HD
ENDBRANCH  29  32
ENDBRANCH  25  26
ENDBRANCH  24  25
ENDBRANCH  23  24
ENDBRANCH  22  23
ENDBRANCH  20  22
ENDBRANCH  19  20
ENDBRANCH  18  19
ENDBRANCH   9  18
TORSDOF 10
ENDMDL
MODEL 7
REMARK VINA RESULT:      -7.9      3.680      9.982
REMARK  Name = 
REMARK  11 active torsions:
REMARK  status: ('A' for Active; 'I' for Inactive)
REMARK    1  A    between atoms: C_1  and  C_2
REMARK    2  A    between atoms: C_7  and  C_8
REMARK    3  A    between atoms: C_16  and  C_17
REMARK    4  A    between atoms: C_17  and  C_18
REMARK    5  A    between atoms: C_18  and  N_19
REMARK    6  A    between atoms: N_19  and  C_20
REMARK    7  A    between atoms: C_20  and  C_21
REMARK    8  A    between atoms: C_21  and  C_22
REMARK    9  A    between atoms: C_22  and  C_23
REMARK   10  A    between atoms: C_23  and  C_24
REMARK   11  A    between atoms: C_27  and  O_28
REMARK                            x       y       z     vdW  Elec       q    Type
REMARK                         _______ _______ _______ _____ _____    ______ ____
ROOT
ATOM      1  C   UNL     1      -1.939  11.905  19.705  0.00  0.00    +0.000 A 
ATOM      2  N   UNL     1      -2.913  12.368  18.855  0.00  0.00    +0.000 N 
ATOM      3  C   UNL     1      -3.084  11.551  17.766  0.00  0.00    +0.000 A 
ATOM      4  C   UNL     1      -4.042  11.608  16.743  0.00  0.00    +0.000 A 
ATOM      5  C   UNL     1      -3.973  10.657  15.723  0.00  0.00    +0.000 A 
ATOM      6  C   UNL     1      -2.974   9.697  15.722  0.00  0.00    +0.000 A 
ATOM      7  C   UNL     1      -2.032   9.657  16.757  0.00  0.00    +0.000 A 
ATOM      8  C   UNL     1      -2.080  10.591  17.822  0.00  0.00    +0.000 A 
ATOM      9  C   UNL     1      -1.333  10.825  19.043  0.00  0.00    +0.000 A 
ATOM     10  H   UNL     1      -3.472  13.188  19.020  0.00  0.00    +0.000 HD
ENDROOT
BRANCH   1  17
ATOM     11  C   UNL     1       0.467  13.739  20.265  0.00  0.00    +0.000 C 
ATOM     12  C   UNL     1      -0.589  13.401  21.282  0.00  0.00    +0.000 A 
ATOM     13  C   UNL     1      -0.474  14.013  22.550  0.00  0.00    +0.000 A 
ATOM     14  C   UNL     1      -1.412  13.792  23.553  0.00  0.00    +0.000 A 
ATOM     15  C   UNL     1      -2.461  12.919  23.323  0.00  0.00    +0.000 A 
ATOM     16  C   UNL     1      -2.567  12.277  22.088  0.00  0.00    +0.000 A 
ATOM     17  C   UNL     1      -1.671  12.522  21.030  0.00  0.00    +0.000 A 
ENDBRANCH   1  17
BRANCH   9  18
ATOM     18  C   UNL     1      -0.148  10.051  19.577  0.00  0.00    +0.000 C 
BRANCH  18  19
ATOM     19  C   UNL     1       1.133  10.171  18.771  0.00  0.00    +0.000 C 
BRANCH  19  20
ATOM     20  N   UNL     1       1.328   9.069  17.823  0.00  0.00    +0.000 NA
ATOM     21  H   UNL     1       1.113   9.391  16.878  0.00  0.00    +0.000 HD
BRANCH  20  22
ATOM     22  C   UNL     1       2.729   8.659  17.903  0.00  0.00    +0.000 C 
BRANCH  22  23
ATOM     23  C   UNL     1       2.858   7.145  17.935  0.00  0.00    +0.000 C 
BRANCH  23  24
ATOM     24  C   UNL     1       2.742   6.673  19.382  0.00  0.00    +0.000 C 
BRANCH  24  25
ATOM     25  C   UNL     1       1.744   5.530  19.520  0.00  0.00    +0.000 C 
BRANCH  25  26
ATOM     26  C   UNL     1       2.390   4.221  19.148  0.00  0.00    +0.000 A 
ATOM     27  C   UNL     1       1.874   3.453  18.094  0.00  0.00    +0.000 A 
ATOM     28  C   UNL     1       2.447   2.223  17.769  0.00  0.00    +0.000 A 
ATOM     29  C   UNL     1       3.531   1.758  18.507  0.00  0.00    +0.000 A 
ATOM     30  C   UNL     1       4.048   2.499  19.562  0.00  0.00    +0.000 A 
ATOM     31  C   UNL     1       3.475   3.729  19.887  0.00  0.00    +0.000 A 
BRANCH  29  32
ATOM     32  O   UNL     1       4.119   0.561  18.224  0.00  0.00    +0.000 OA
ATOM     33  H   UNL     1       3.464  -0.006  17.784  0.00  0.00    +0.000 HD
ENDBRANCH  29  32
ENDBRANCH  25  26
ENDBRANCH  24  25
ENDBRANCH  23  24
ENDBRANCH  22  23
ENDBRANCH  20  22
ENDBRANCH  19  20
ENDBRANCH  18  19
ENDBRANCH   9  18
TORSDOF 10
ENDMDL
MODEL 8
REMARK VINA RESULT:      -7.9      1.282      1.511
REMARK  Name = 
REMARK  11 active torsions:
REMARK  status: ('A' for Active; 'I' for Inactive)
REMARK    1  A    between atoms: C_1  and  C_2
REMARK    2  A    between atoms: C_7  and  C_8
REMARK    3  A    between atoms: C_16  and  C_17
REMARK    4  A    between atoms: C_17  and  C_18
REMARK    5  A    between atoms: C_18  and  N_19
REMARK    6  A    between atoms: N_19  and  C_20
REMARK    7  A    between atoms: C_20  and  C_21
REMARK    8  A    between atoms: C_21  and  C_22
REMARK    9  A    between atoms: C_22  and  C_23
REMARK   10  A    between atoms: C_23  and  C_24
REMARK   11  A    between atoms: C_27  and  O_28
REMARK                            x       y       z     vdW  Elec       q    Type
REMARK                         _______ _______ _______ _____ _____    ______ ____
ROOT
ATOM      1  C   UNL     1       4.313   4.426  17.430  0.00  0.00    +0.000 A 
ATOM      2  N   UNL     1       3.974   3.207  17.965  0.00  0.00    +0.000 N 
ATOM      3  C   UNL     1       2.960   3.305  18.883  0.00  0.00    +0.000 A 
ATOM      4  C   UNL     1       2.257   2.295  19.558  0.00  0.00    +0.000 A 
ATOM      5  C   UNL     1       1.277   2.676  20.476  0.00  0.00    +0.000 A 
ATOM      6  C   UNL     1       1.023   4.016  20.719  0.00  0.00    +0.000 A 
ATOM      7  C   UNL     1       1.734   5.006  20.030  0.00  0.00    +0.000 A 
ATOM      8  C   UNL     1       2.721   4.661  19.074  0.00  0.00    +0.000 A 
ATOM      9  C   UNL     1       3.597   5.381  18.169  0.00  0.00    +0.000 A 
ATOM     10  H   UNL     1       4.386   2.329  17.694  0.00  0.00    +0.000 HD
ENDROOT
BRANCH   1  17
ATOM     11  C   UNL     1       7.237   5.309  17.795  0.00  0.00    +0.000 C 
ATOM     12  C   UNL     1       6.629   4.933  16.471  0.00  0.00    +0.000 A 
ATOM     13  C   UNL     1       7.486   4.949  15.348  0.00  0.00    +0.000 A 
ATOM     14  C   UNL     1       7.035   4.591  14.082  0.00  0.00    +0.000 A 
ATOM     15  C   UNL     1       5.704   4.253  13.905  0.00  0.00    +0.000 A 
ATOM     16  C   UNL     1       4.836   4.270  14.998  0.00  0.00    +0.000 A 
ATOM     17  C   UNL     1       5.271   4.568  16.303  0.00  0.00    +0.000 A 
ENDBRANCH   1  17
BRANCH   9  18
ATOM     18  C   UNL     1       3.718   6.876  17.977  0.00  0.00    +0.000 C 
BRANCH  18  19
ATOM     19  C   UNL     1       2.417   7.613  17.712  0.00  0.00    +0.000 C 
BRANCH  19  20
ATOM     20  N   UNL     1       2.031   8.517  18.801  0.00  0.00    +0.000 NA
ATOM     21  H   UNL     1       2.869   8.848  19.281  0.00  0.00    +0.000 HD
BRANCH  20  22
ATOM     22  C   UNL     1       1.319   9.646  18.206  0.00  0.00    +0.000 C 
BRANCH  22  23
ATOM     23  C   UNL     1      -0.139   9.666  18.637  0.00  0.00    +0.000 C 
BRANCH  23  24
ATOM     24  C   UNL     1      -0.446  11.021  19.269  0.00  0.00    +0.000 C 
BRANCH  24  25
ATOM     25  C   UNL     1      -1.018  11.997  18.247  0.00  0.00    +0.000 C 
BRANCH  25  26
ATOM     26  C   UNL     1      -2.499  11.774  18.080  0.00  0.00    +0.000 A 
ATOM     27  C   UNL     1      -3.010  11.322  16.855  0.00  0.00    +0.000 A 
ATOM     28  C   UNL     1      -4.384  11.147  16.683  0.00  0.00    +0.000 A 
ATOM     29  C   UNL     1      -5.245  11.435  17.736  0.00  0.00    +0.000 A 
ATOM     30  C   UNL     1      -4.758  11.895  18.954  0.00  0.00    +0.000 A 
ATOM     31  C   UNL     1      -3.385  12.069  19.125  0.00  0.00    +0.000 A 
BRANCH  29  32
ATOM     32  O   UNL     1      -6.594  11.281  17.611  0.00  0.00    +0.000 OA
ATOM     33  H   UNL     1      -6.840  10.415  17.977  0.00  0.00    +0.000 HD
ENDBRANCH  29  32
ENDBRANCH  25  26
ENDBRANCH  24  25
ENDBRANCH  23  24
ENDBRANCH  22  23
ENDBRANCH  20  22
ENDBRANCH  19  20
ENDBRANCH  18  19
ENDBRANCH   9  18
TORSDOF 10
ENDMDL
MODEL 9
REMARK VINA RESULT:      -7.9      2.576      3.540
REMARK  Name = 
REMARK  11 active torsions:
REMARK  status: ('A' for Active; 'I' for Inactive)
REMARK    1  A    between atoms: C_1  and  C_2
REMARK    2  A    between atoms: C_7  and  C_8
REMARK    3  A    between atoms: C_16  and  C_17
REMARK    4  A    between atoms: C_17  and  C_18
REMARK    5  A    between atoms: C_18  and  N_19
REMARK    6  A    between atoms: N_19  and  C_20
REMARK    7  A    between atoms: C_20  and  C_21
REMARK    8  A    between atoms: C_21  and  C_22
REMARK    9  A    between atoms: C_22  and  C_23
REMARK   10  A    between atoms: C_23  and  C_24
REMARK   11  A    between atoms: C_27  and  O_28
REMARK                            x       y       z     vdW  Elec       q    Type
REMARK                         _______ _______ _______ _____ _____    ______ ____
ROOT
ATOM      1  C   UNL     1       4.575   4.356  17.980  0.00  0.00    +0.000 A 
ATOM      2  N   UNL     1       4.376   3.124  18.553  0.00  0.00    +0.000 N 
ATOM      3  C   UNL     1       3.422   3.156  19.539  0.00  0.00    +0.000 A 
ATOM      4  C   UNL     1       2.854   2.105  20.275  0.00  0.00    +0.000 A 
ATOM      5  C   UNL     1       1.911   2.422  21.254  0.00  0.00    +0.000 A 
ATOM      6  C   UNL     1       1.563   3.742  21.496  0.00  0.00    +0.000 A 
ATOM      7  C   UNL     1       2.141   4.773  20.747  0.00  0.00    +0.000 A 
ATOM      8  C   UNL     1       3.086   4.492  19.728  0.00  0.00    +0.000 A 
ATOM      9  C   UNL     1       3.835   5.263  18.754  0.00  0.00    +0.000 A 
ATOM     10  H   UNL     1       4.839   2.278  18.266  0.00  0.00    +0.000 HD
ENDROOT
BRANCH   1  17
ATOM     11  C   UNL     1       7.497   5.304  18.145  0.00  0.00    +0.000 C 
ATOM     12  C   UNL     1       6.797   4.950  16.860  0.00  0.00    +0.000 A 
ATOM     13  C   UNL     1       7.563   5.020  15.676  0.00  0.00    +0.000 A 
ATOM     14  C   UNL     1       7.022   4.686  14.438  0.00  0.00    +0.000 A 
ATOM     15  C   UNL     1       5.691   4.318  14.355  0.00  0.00    +0.000 A 
ATOM     16  C   UNL     1       4.910   4.282  15.512  0.00  0.00    +0.000 A 
ATOM     17  C   UNL     1       5.439   4.555  16.788  0.00  0.00    +0.000 A 
ENDBRANCH   1  17
BRANCH   9  18
ATOM     18  C   UNL     1       3.818   6.760  18.534  0.00  0.00    +0.000 C 
BRANCH  18  19
ATOM     19  C   UNL     1       2.708   7.281  17.640  0.00  0.00    +0.000 C 
BRANCH  19  20
ATOM     20  N   UNL     1       2.775   8.728  17.415  0.00  0.00    +0.000 NA
ATOM     21  H   UNL     1       3.003   8.910  16.436  0.00  0.00    +0.000 HD
BRANCH  20  22
ATOM     22  C   UNL     1       1.462   9.287  17.733  0.00  0.00    +0.000 C 
BRANCH  22  23
ATOM     23  C   UNL     1       1.588  10.667  18.359  0.00  0.00    +0.000 C 
BRANCH  23  24
ATOM     24  C   UNL     1       0.204  11.306  18.418  0.00  0.00    +0.000 C 
BRANCH  24  25
ATOM     25  C   UNL     1      -0.837  10.336  18.964  0.00  0.00    +0.000 C 
BRANCH  25  26
ATOM     26  C   UNL     1      -0.609  10.090  20.432  0.00  0.00    +0.000 A 
ATOM     27  C   UNL     1      -0.814  11.121  21.360  0.00  0.00    +0.000 A 
ATOM     28  C   UNL     1      -0.570  10.911  22.718  0.00  0.00    +0.000 A 
ATOM     29  C   UNL     1      -0.111   9.668  23.143  0.00  0.00    +0.000 A 
ATOM     30  C   UNL     1       0.109   8.639  22.237  0.00  0.00    +0.000 A 
ATOM     31  C   UNL     1      -0.135   8.850  20.881  0.00  0.00    +0.000 A 
BRANCH  29  32
ATOM     32  O   UNL     1       0.143   9.420  24.460  0.00  0.00    +0.000 OA
ATOM     33  H   UNL     1       0.952   9.895  24.712  0.00  0.00    +0.000 HD
ENDBRANCH  29  32
ENDBRANCH  25  26
ENDBRANCH  24  25
ENDBRANCH  23  24
ENDBRANCH  22  23
ENDBRANCH  20  22
ENDBRANCH  19  20
ENDBRANCH  18  19
ENDBRANCH   9  18
TORSDOF 10
ENDMDL
