MODEL 1
REMARK VINA RESULT:      -9.3      0.000      0.000
REMARK  Name = 
REMARK  3 active torsions:
REMARK  status: ('A' for Active; 'I' for Inactive)
REMARK    1  A    between atoms: C_1  and  C_2
REMARK    2  A    between atoms: C_2  and  C_3
REMARK    3  A    between atoms: C_2  and  N_9
REMARK                            x       y       z     vdW  Elec       q    Type
REMARK                         _______ _______ _______ _____ _____    ______ ____
ROOT
ATOM      1  N   UNL     1       4.698   5.050  16.601  0.00  0.00    +0.000 N 
ATOM      2  C   UNL     1       4.363   6.141  17.406  0.00  0.00    +0.000 A 
ATOM      3  C   UNL     1       4.086   5.611  18.649  0.00  0.00    +0.000 A 
ATOM      4  C   UNL     1       4.706   4.307  18.636  0.00  0.00    +0.000 A 
ATOM      5  C   UNL     1       4.246   3.928  17.355  0.00  0.00    +0.000 A 
ATOM      6  C   UNL     1       2.966   3.177  17.748  0.00  0.00    +0.000 A 
ATOM      7  C   UNL     1       1.622   3.378  17.463  0.00  0.00    +0.000 A 
ATOM      8  C   UNL     1       0.644   2.928  18.407  0.00  0.00    +0.000 A 
ATOM      9  C   UNL     1       0.985   2.256  19.596  0.00  0.00    +0.000 A 
ATOM     10  C   UNL     1       2.316   2.064  19.919  0.00  0.00    +0.000 A 
ATOM     11  C   UNL     1       3.240   2.581  19.023  0.00  0.00    +0.000 A 
ATOM     12  C   UNL     1       4.495   3.172  19.523  0.00  0.00    +0.000 C 
ATOM     13  O   UNL     1       5.252   2.717  20.357  0.00  0.00    +0.000 OA
ATOM     14  C   UNL     1       2.937   6.172  19.371  0.00  0.00    +0.000 C 
ATOM     15  O   UNL     1       2.515   5.714  20.427  0.00  0.00    +0.000 OA
ATOM     16  C   UNL     1       2.151   7.201  18.530  0.00  0.00    +0.000 C 
ATOM     17  C   UNL     1       3.133   8.222  17.938  0.00  0.00    +0.000 C 
ATOM     18  C   UNL     1       4.147   7.557  16.982  0.00  0.00    +0.000 C 
ENDROOT
BRANCH   1  20
ATOM     19  C   UNL     1       7.142   4.358  16.756  0.00  0.00    +0.000 C 
ATOM     20  C   UNL     1       6.068   5.136  15.969  0.00  0.00    +0.000 C 
BRANCH  20  21
ATOM     21  C   UNL     1       6.208   4.860  14.491  0.00  0.00    +0.000 A 
ATOM     22  C   UNL     1       5.431   3.907  13.823  0.00  0.00    +0.000 A 
ATOM     23  C   UNL     1       5.835   3.408  12.578  0.00  0.00    +0.000 A 
ATOM     24  C   UNL     1       7.008   3.865  11.973  0.00  0.00    +0.000 A 
ATOM     25  C   UNL     1       7.767   4.850  12.592  0.00  0.00    +0.000 A 
ATOM     26  C   UNL     1       7.368   5.347  13.838  0.00  0.00    +0.000 A 
ENDBRANCH  20  21
ENDBRANCH   1  20
TORSDOF 2
ENDMDL
MODEL 2
REMARK VINA RESULT:      -8.9      1.427      2.807
REMARK  Name = 
REMARK  3 active torsions:
REMARK  status: ('A' for Active; 'I' for Inactive)
REMARK    1  A    between atoms: C_1  and  C_2
REMARK    2  A    between atoms: C_2  and  C_3
REMARK    3  A    between atoms: C_2  and  N_9
REMARK                            x       y       z     vdW  Elec       q    Type
REMARK                         _______ _______ _______ _____ _____    ______ ____
ROOT
ATOM      1  N   UNL     1       4.570   4.815  16.902  0.00  0.00    +0.000 N 
ATOM      2  C   UNL     1       4.200   5.914  17.679  0.00  0.00    +0.000 A 
ATOM      3  C   UNL     1       3.880   5.398  18.918  0.00  0.00    +0.000 A 
ATOM      4  C   UNL     1       4.506   4.097  18.945  0.00  0.00    +0.000 A 
ATOM      5  C   UNL     1       4.096   3.700  17.652  0.00  0.00    +0.000 A 
ATOM      6  C   UNL     1       2.806   2.947  18.007  0.00  0.00    +0.000 A 
ATOM      7  C   UNL     1       1.472   3.138  17.670  0.00  0.00    +0.000 A 
ATOM      8  C   UNL     1       0.462   2.694  18.582  0.00  0.00    +0.000 A 
ATOM      9  C   UNL     1       0.761   2.040  19.791  0.00  0.00    +0.000 A 
ATOM     10  C   UNL     1       2.080   1.858  20.166  0.00  0.00    +0.000 A 
ATOM     11  C   UNL     1       3.035   2.369  19.299  0.00  0.00    +0.000 A 
ATOM     12  C   UNL     1       4.267   2.972  19.837  0.00  0.00    +0.000 C 
ATOM     13  O   UNL     1       4.994   2.532  20.705  0.00  0.00    +0.000 OA
ATOM     14  C   UNL     1       2.702   5.962  19.590  0.00  0.00    +0.000 C 
ATOM     15  O   UNL     1       2.243   5.515  20.634  0.00  0.00    +0.000 OA
ATOM     16  C   UNL     1       1.943   6.976  18.707  0.00  0.00    +0.000 C 
ATOM     17  C   UNL     1       2.941   7.995  18.139  0.00  0.00    +0.000 C 
ATOM     18  C   UNL     1       3.993   7.323  17.230  0.00  0.00    +0.000 C 
ENDROOT
BRANCH   1  20
ATOM     19  C   UNL     1       5.965   5.281  14.825  0.00  0.00    +0.000 C 
ATOM     20  C   UNL     1       5.962   4.900  16.320  0.00  0.00    +0.000 C 
BRANCH  20  21
ATOM     21  C   UNL     1       7.014   5.694  17.058  0.00  0.00    +0.000 A 
ATOM     22  C   UNL     1       7.575   5.267  18.267  0.00  0.00    +0.000 A 
ATOM     23  C   UNL     1       8.237   6.175  19.101  0.00  0.00    +0.000 A 
ATOM     24  C   UNL     1       8.368   7.517  18.736  0.00  0.00    +0.000 A 
ATOM     25  C   UNL     1       7.867   7.953  17.516  0.00  0.00    +0.000 A 
ATOM     26  C   UNL     1       7.200   7.048  16.681  0.00  0.00    +0.000 A 
ENDBRANCH  20  21
ENDBRANCH   1  20
TORSDOF 2
ENDMDL
MODEL 3
REMARK VINA RESULT:      -7.8      1.971      6.096
REMARK  Name = 
REMARK  3 active torsions:
REMARK  status: ('A' for Active; 'I' for Inactive)
REMARK    1  A    between atoms: C_1  and  C_2
REMARK    2  A    between atoms: C_2  and  C_3
REMARK    3  A    between atoms: C_2  and  N_9
REMARK                            x       y       z     vdW  Elec       q    Type
REMARK                         _______ _______ _______ _____ _____    ______ ____
ROOT
ATOM      1  N   UNL     1       2.432   5.749  18.716  0.00  0.00    +0.000 N 
ATOM      2  C   UNL     1       2.276   4.390  18.996  0.00  0.00    +0.000 A 
ATOM      3  C   UNL     1       3.556   3.888  19.104  0.00  0.00    +0.000 A 
ATOM      4  C   UNL     1       4.386   5.047  19.333  0.00  0.00    +0.000 A 
ATOM      5  C   UNL     1       3.801   5.857  18.334  0.00  0.00    +0.000 A 
ATOM      6  C   UNL     1       4.753   5.561  17.166  0.00  0.00    +0.000 A 
ATOM      7  C   UNL     1       4.568   4.999  15.910  0.00  0.00    +0.000 A 
ATOM      8  C   UNL     1       5.663   4.309  15.298  0.00  0.00    +0.000 A 
ATOM      9  C   UNL     1       6.932   4.206  15.899  0.00  0.00    +0.000 A 
ATOM     10  C   UNL     1       7.138   4.735  17.161  0.00  0.00    +0.000 A 
ATOM     11  C   UNL     1       6.037   5.328  17.760  0.00  0.00    +0.000 A 
ATOM     12  C   UNL     1       5.830   5.191  19.213  0.00  0.00    +0.000 C 
ATOM     13  O   UNL     1       6.648   5.337  20.099  0.00  0.00    +0.000 OA
ATOM     14  C   UNL     1       3.808   2.573  18.501  0.00  0.00    +0.000 C 
ATOM     15  O   UNL     1       4.922   2.068  18.424  0.00  0.00    +0.000 OA
ATOM     16  C   UNL     1       2.587   2.030  17.725  0.00  0.00    +0.000 C 
ATOM     17  C   UNL     1       1.341   2.131  18.616  0.00  0.00    +0.000 C 
ATOM     18  C   UNL     1       1.013   3.594  18.984  0.00  0.00    +0.000 C 
ENDROOT
BRANCH   1  20
ATOM     19  C   UNL     1       2.154   6.366  21.169  0.00  0.00    +0.000 C 
ATOM     20  C   UNL     1       1.765   6.673  19.708  0.00  0.00    +0.000 C 
BRANCH  20  21
ATOM     21  C   UNL     1       1.811   8.163  19.464  0.00  0.00    +0.000 A 
ATOM     22  C   UNL     1       1.224   9.091  20.332  0.00  0.00    +0.000 A 
ATOM     23  C   UNL     1       0.949  10.393  19.897  0.00  0.00    +0.000 A 
ATOM     24  C   UNL     1       1.272  10.796  18.600  0.00  0.00    +0.000 A 
ATOM     25  C   UNL     1       1.904   9.909  17.738  0.00  0.00    +0.000 A 
ATOM     26  C   UNL     1       2.176   8.605  18.168  0.00  0.00    +0.000 A 
ENDBRANCH  20  21
ENDBRANCH   1  20
TORSDOF 2
ENDMDL
MODEL 4
REMARK VINA RESULT:      -7.3      1.932      3.149
REMARK  Name = 
REMARK  3 active torsions:
REMARK  status: ('A' for Active; 'I' for Inactive)
REMARK    1  A    between atoms: C_1  and  C_2
REMARK    2  A    between atoms: C_2  and  C_3
REMARK    3  A    between atoms: C_2  and  N_9
REMARK                            x       y       z     vdW  Elec       q    Type
REMARK                         _______ _______ _______ _____ _____    ______ ____
ROOT
ATOM      1  N   UNL     1       4.080   5.548  17.255  0.00  0.00    +0.000 N 
ATOM      2  C   UNL     1       3.638   6.362  18.299  0.00  0.00    +0.000 A 
ATOM      3  C   UNL     1       3.505   5.525  19.388  0.00  0.00    +0.000 A 
ATOM      4  C   UNL     1       4.300   4.366  19.057  0.00  0.00    +0.000 A 
ATOM      5  C   UNL     1       3.830   4.228  17.732  0.00  0.00    +0.000 A 
ATOM      6  C   UNL     1       2.691   3.225  17.961  0.00  0.00    +0.000 A 
ATOM      7  C   UNL     1       1.318   3.284  17.758  0.00  0.00    +0.000 A 
ATOM      8  C   UNL     1       0.464   2.489  18.587  0.00  0.00    +0.000 A 
ATOM      9  C   UNL     1       0.959   1.620  19.578  0.00  0.00    +0.000 A 
ATOM     10  C   UNL     1       2.319   1.559  19.821  0.00  0.00    +0.000 A 
ATOM     11  C   UNL     1       3.113   2.400  19.055  0.00  0.00    +0.000 A 
ATOM     12  C   UNL     1       4.297   3.039  19.656  0.00  0.00    +0.000 C 
ATOM     13  O   UNL     1       5.154   2.522  20.346  0.00  0.00    +0.000 OA
ATOM     14  C   UNL     1       2.329   5.728  20.244  0.00  0.00    +0.000 C 
ATOM     15  O   UNL     1       2.032   4.982  21.170  0.00  0.00    +0.000 OA
ATOM     16  C   UNL     1       1.362   6.794  19.684  0.00  0.00    +0.000 C 
ATOM     17  C   UNL     1       2.159   8.058  19.329  0.00  0.00    +0.000 C 
ATOM     18  C   UNL     1       3.204   7.789  18.225  0.00  0.00    +0.000 C 
ENDROOT
BRANCH   1  20
ATOM     19  C   UNL     1       5.211   6.613  15.240  0.00  0.00    +0.000 C 
ATOM     20  C   UNL     1       5.388   5.979  16.635  0.00  0.00    +0.000 C 
BRANCH  20  21
ATOM     21  C   UNL     1       6.349   6.803  17.458  0.00  0.00    +0.000 A 
ATOM     22  C   UNL     1       6.694   8.119  17.127  0.00  0.00    +0.000 A 
ATOM     23  C   UNL     1       7.846   8.707  17.664  0.00  0.00    +0.000 A 
ATOM     24  C   UNL     1       8.659   8.002  18.553  0.00  0.00    +0.000 A 
ATOM     25  C   UNL     1       8.308   6.714  18.938  0.00  0.00    +0.000 A 
ATOM     26  C   UNL     1       7.160   6.121  18.399  0.00  0.00    +0.000 A 
ENDBRANCH  20  21
ENDBRANCH   1  20
TORSDOF 2
ENDMDL
MODEL 5
REMARK VINA RESULT:      -7.1      7.588     10.749
REMARK  Name = 
REMARK  3 active torsions:
REMARK  status: ('A' for Active; 'I' for Inactive)
REMARK    1  A    between atoms: C_1  and  C_2
REMARK    2  A    between atoms: C_2  and  C_3
REMARK    3  A    between atoms: C_2  and  N_9
REMARK                            x       y       z     vdW  Elec       q    Type
REMARK                         _______ _______ _______ _____ _____    ______ ____
ROOT
ATOM      1  N   UNL     1      -0.943  11.643  20.483  0.00  0.00    +0.000 N 
ATOM      2  C   UNL     1      -2.011  12.103  19.710  0.00  0.00    +0.000 A 
ATOM      3  C   UNL     1      -2.394  13.297  20.285  0.00  0.00    +0.000 A 
ATOM      4  C   UNL     1      -1.258  13.702  21.079  0.00  0.00    +0.000 A 
ATOM      5  C   UNL     1      -1.018  12.438  21.663  0.00  0.00    +0.000 A 
ATOM      6  C   UNL     1      -1.822  12.594  22.962  0.00  0.00    +0.000 A 
ATOM      7  C   UNL     1      -2.911  11.914  23.492  0.00  0.00    +0.000 A 
ATOM      8  C   UNL     1      -3.800  12.616  24.367  0.00  0.00    +0.000 A 
ATOM      9  C   UNL     1      -3.597  13.958  24.744  0.00  0.00    +0.000 A 
ATOM     10  C   UNL     1      -2.536  14.667  24.213  0.00  0.00    +0.000 A 
ATOM     11  C   UNL     1      -1.738  13.983  23.307  0.00  0.00    +0.000 A 
ATOM     12  C   UNL     1      -1.176  14.691  22.143  0.00  0.00    +0.000 C 
ATOM     13  O   UNL     1      -0.624  15.773  22.125  0.00  0.00    +0.000 OA
ATOM     14  C   UNL     1      -3.836  13.554  20.388  0.00  0.00    +0.000 C 
ATOM     15  O   UNL     1      -4.310  14.517  20.980  0.00  0.00    +0.000 OA
ATOM     16  C   UNL     1      -4.689  12.350  19.931  0.00  0.00    +0.000 C 
ATOM     17  C   UNL     1      -4.190  11.873  18.559  0.00  0.00    +0.000 C 
ATOM     18  C   UNL     1      -2.728  11.379  18.619  0.00  0.00    +0.000 C 
ENDROOT
BRANCH   1  20
ATOM     19  C   UNL     1       1.523  12.231  20.255  0.00  0.00    +0.000 C 
ATOM     20  C   UNL     1       0.335  11.412  19.710  0.00  0.00    +0.000 C 
BRANCH  20  21
ATOM     21  C   UNL     1       0.770   9.993  19.428  0.00  0.00    +0.000 A 
ATOM     22  C   UNL     1       1.005   9.058  20.444  0.00  0.00    +0.000 A 
ATOM     23  C   UNL     1       1.760   7.908  20.187  0.00  0.00    +0.000 A 
ATOM     24  C   UNL     1       2.275   7.661  18.913  0.00  0.00    +0.000 A 
ATOM     25  C   UNL     1       2.010   8.547  17.877  0.00  0.00    +0.000 A 
ATOM     26  C   UNL     1       1.260   9.701  18.131  0.00  0.00    +0.000 A 
ENDBRANCH  20  21
ENDBRANCH   1  20
TORSDOF 2
ENDMDL
MODEL 6
REMARK VINA RESULT:      -7.0      6.499      9.829
REMARK  Name = 
REMARK  3 active torsions:
REMARK  status: ('A' for Active; 'I' for Inactive)
REMARK    1  A    between atoms: C_1  and  C_2
REMARK    2  A    between atoms: C_2  and  C_3
REMARK    3  A    between atoms: C_2  and  N_9
REMARK                            x       y       z     vdW  Elec       q    Type
REMARK                         _______ _______ _______ _____ _____    ______ ____
ROOT
ATOM      1  N   UNL     1      -0.724  11.581  19.302  0.00  0.00    +0.000 N 
ATOM      2  C   UNL     1       0.514  12.195  19.506  0.00  0.00    +0.000 A 
ATOM      3  C   UNL     1       0.551  12.514  20.847  0.00  0.00    +0.000 A 
ATOM      4  C   UNL     1      -0.458  11.675  21.450  0.00  0.00    +0.000 A 
ATOM      5  C   UNL     1      -1.457  11.910  20.479  0.00  0.00    +0.000 A 
ATOM      6  C   UNL     1      -2.204  13.074  21.148  0.00  0.00    +0.000 A 
ATOM      7  C   UNL     1      -2.439  14.391  20.775  0.00  0.00    +0.000 A 
ATOM      8  C   UNL     1      -2.614  15.375  21.799  0.00  0.00    +0.000 A 
ATOM      9  C   UNL     1      -2.594  15.059  23.171  0.00  0.00    +0.000 A 
ATOM     10  C   UNL     1      -2.337  13.761  23.573  0.00  0.00    +0.000 A 
ATOM     11  C   UNL     1      -2.094  12.847  22.559  0.00  0.00    +0.000 A 
ATOM     12  C   UNL     1      -1.093  11.782  22.756  0.00  0.00    +0.000 C 
ATOM     13  O   UNL     1      -0.956  11.058  23.721  0.00  0.00    +0.000 OA
ATOM     14  C   UNL     1       1.120  13.820  21.206  0.00  0.00    +0.000 C 
ATOM     15  O   UNL     1       1.105  14.273  22.344  0.00  0.00    +0.000 OA
ATOM     16  C   UNL     1       1.473  14.675  19.969  0.00  0.00    +0.000 C 
ATOM     17  C   UNL     1       2.302  13.828  18.993  0.00  0.00    +0.000 C 
ATOM     18  C   UNL     1       1.510  12.609  18.473  0.00  0.00    +0.000 C 
ENDROOT
BRANCH   1  20
ATOM     19  C   UNL     1      -1.202  10.092  17.295  0.00  0.00    +0.000 C 
ATOM     20  C   UNL     1      -0.643  10.185  18.730  0.00  0.00    +0.000 C 
BRANCH  20  21
ATOM     21  C   UNL     1       0.661   9.431  18.826  0.00  0.00    +0.000 A 
ATOM     22  C   UNL     1       1.439   9.118  17.705  0.00  0.00    +0.000 A 
ATOM     23  C   UNL     1       2.411   8.113  17.775  0.00  0.00    +0.000 A 
ATOM     24  C   UNL     1       2.638   7.420  18.965  0.00  0.00    +0.000 A 
ATOM     25  C   UNL     1       1.916   7.750  20.105  0.00  0.00    +0.000 A 
ATOM     26  C   UNL     1       0.939   8.751  20.038  0.00  0.00    +0.000 A 
ENDBRANCH  20  21
ENDBRANCH   1  20
TORSDOF 2
ENDMDL
MODEL 7
REMARK VINA RESULT:      -6.9      8.558     11.077
REMARK  Name = 
REMARK  3 active torsions:
REMARK  status: ('A' for Active; 'I' for Inactive)
REMARK    1  A    between atoms: C_1  and  C_2
REMARK    2  A    between atoms: C_2  and  C_3
REMARK    3  A    between atoms: C_2  and  N_9
REMARK                            x       y       z     vdW  Elec       q    Type
REMARK                         _______ _______ _______ _____ _____    ______ ____
ROOT
ATOM      1  N   UNL     1      -1.570  12.508  19.482  0.00  0.00    +0.000 N 
ATOM      2  C   UNL     1      -0.546  13.392  19.826  0.00  0.00    +0.000 A 
ATOM      3  C   UNL     1      -0.430  13.306  21.198  0.00  0.00    +0.000 A 
ATOM      4  C   UNL     1      -1.069  12.058  21.541  0.00  0.00    +0.000 A 
ATOM      5  C   UNL     1      -2.210  12.238  20.727  0.00  0.00    +0.000 A 
ATOM      6  C   UNL     1      -3.166  12.865  21.751  0.00  0.00    +0.000 A 
ATOM      7  C   UNL     1      -3.816  14.091  21.818  0.00  0.00    +0.000 A 
ATOM      8  C   UNL     1      -4.133  14.632  23.104  0.00  0.00    +0.000 A 
ATOM      9  C   UNL     1      -3.848  13.957  24.307  0.00  0.00    +0.000 A 
ATOM     10  C   UNL     1      -3.180  12.747  24.273  0.00  0.00    +0.000 A 
ATOM     11  C   UNL     1      -2.816  12.287  23.015  0.00  0.00    +0.000 A 
ATOM     12  C   UNL     1      -1.535  11.580  22.835  0.00  0.00    +0.000 C 
ATOM     13  O   UNL     1      -1.073  10.689  23.520  0.00  0.00    +0.000 OA
ATOM     14  C   UNL     1      -0.218  14.563  21.928  0.00  0.00    +0.000 C 
ATOM     15  O   UNL     1      -0.216  14.640  23.151  0.00  0.00    +0.000 OA
ATOM     16  C   UNL     1      -0.287  15.803  21.011  0.00  0.00    +0.000 C 
ATOM     17  C   UNL     1       0.617  15.577  19.791  0.00  0.00    +0.000 C 
ATOM     18  C   UNL     1       0.149  14.376  18.942  0.00  0.00    +0.000 C 
ENDROOT
BRANCH   1  20
ATOM     19  C   UNL     1      -0.364  10.292  19.154  0.00  0.00    +0.000 C 
ATOM     20  C   UNL     1      -1.166  11.435  18.498  0.00  0.00    +0.000 C 
BRANCH  20  21
ATOM     21  C   UNL     1      -2.212  10.866  17.569  0.00  0.00    +0.000 A 
ATOM     22  C   UNL     1      -1.914   9.914  16.586  0.00  0.00    +0.000 A 
ATOM     23  C   UNL     1      -2.791   9.701  15.517  0.00  0.00    +0.000 A 
ATOM     24  C   UNL     1      -3.987  10.416  15.420  0.00  0.00    +0.000 A 
ATOM     25  C   UNL     1      -4.329  11.327  16.411  0.00  0.00    +0.000 A 
ATOM     26  C   UNL     1      -3.452  11.547  17.479  0.00  0.00    +0.000 A 
ENDBRANCH  20  21
ENDBRANCH   1  20
TORSDOF 2
ENDMDL
MODEL 8
REMARK VINA RESULT:      -6.9     10.156     13.315
REMARK  Name = 
REMARK  3 active torsions:
REMARK  status: ('A' for Active; 'I' for Inactive)
REMARK    1  A    between atoms: C_1  and  C_2
REMARK    2  A    between atoms: C_2  and  C_3
REMARK    3  A    between atoms: C_2  and  N_9
REMARK                            x       y       z     vdW  Elec       q    Type
REMARK                         _______ _______ _______ _____ _____    ______ ____
ROOT
ATOM      1  N   UNL     1      -5.037  12.573  19.629  0.00  0.00    +0.000 N 
ATOM      2  C   UNL     1      -3.944  12.750  20.480  0.00  0.00    +0.000 A 
ATOM      3  C   UNL     1      -4.483  12.956  21.733  0.00  0.00    +0.000 A 
ATOM      4  C   UNL     1      -5.830  12.444  21.641  0.00  0.00    +0.000 A 
ATOM      5  C   UNL     1      -6.140  13.043  20.399  0.00  0.00    +0.000 A 
ATOM      6  C   UNL     1      -6.801  14.338  20.892  0.00  0.00    +0.000 A 
ATOM      7  C   UNL     1      -6.490  15.683  20.733  0.00  0.00    +0.000 A 
ATOM      8  C   UNL     1      -6.889  16.606  21.752  0.00  0.00    +0.000 A 
ATOM      9  C   UNL     1      -7.614  16.215  22.893  0.00  0.00    +0.000 A 
ATOM     10  C   UNL     1      -7.916  14.880  23.091  0.00  0.00    +0.000 A 
ATOM     11  C   UNL     1      -7.448  14.000  22.126  0.00  0.00    +0.000 A 
ATOM     12  C   UNL     1      -6.967  12.664  22.522  0.00  0.00    +0.000 C 
ATOM     13  O   UNL     1      -7.499  11.875  23.277  0.00  0.00    +0.000 OA
ATOM     14  C   UNL     1      -3.854  13.990  22.566  0.00  0.00    +0.000 C 
ATOM     15  O   UNL     1      -4.305  14.352  23.646  0.00  0.00    +0.000 OA
ATOM     16  C   UNL     1      -2.747  14.765  21.818  0.00  0.00    +0.000 C 
ATOM     17  C   UNL     1      -1.790  13.762  21.159  0.00  0.00    +0.000 C 
ATOM     18  C   UNL     1      -2.506  12.891  20.104  0.00  0.00    +0.000 C 
ENDROOT
BRANCH   1  20
ATOM     19  C   UNL     1      -6.456  10.804  18.474  0.00  0.00    +0.000 C 
ATOM     20  C   UNL     1      -5.039  11.262  18.878  0.00  0.00    +0.000 C 
BRANCH  20  21
ATOM     21  C   UNL     1      -4.088  11.083  17.719  0.00  0.00    +0.000 A 
ATOM     22  C   UNL     1      -4.403  11.480  16.414  0.00  0.00    +0.000 A 
ATOM     23  C   UNL     1      -3.689  10.966  15.325  0.00  0.00    +0.000 A 
ATOM     24  C   UNL     1      -2.640  10.065  15.519  0.00  0.00    +0.000 A 
ATOM     25  C   UNL     1      -2.275   9.698  16.808  0.00  0.00    +0.000 A 
ATOM     26  C   UNL     1      -2.989  10.206  17.899  0.00  0.00    +0.000 A 
ENDBRANCH  20  21
ENDBRANCH   1  20
TORSDOF 2
ENDMDL
MODEL 9
REMARK VINA RESULT:      -6.8      5.089      8.838
REMARK  Name = 
REMARK  3 active torsions:
REMARK  status: ('A' for Active; 'I' for Inactive)
REMARK    1  A    between atoms: C_1  and  C_2
REMARK    2  A    between atoms: C_2  and  C_3
REMARK    3  A    between atoms: C_2  and  N_9
REMARK                            x       y       z     vdW  Elec       q    Type
REMARK                         _______ _______ _______ _____ _____    ______ ____
ROOT
ATOM      1  N   UNL     1       1.224   9.636  19.817  0.00  0.00    +0.000 N 
ATOM      2  C   UNL     1       0.208   9.570  20.772  0.00  0.00    +0.000 A 
ATOM      3  C   UNL     1      -0.643  10.615  20.477  0.00  0.00    +0.000 A 
ATOM      4  C   UNL     1      -0.336  10.962  19.109  0.00  0.00    +0.000 A 
ATOM      5  C   UNL     1       1.069  10.935  19.253  0.00  0.00    +0.000 A 
ATOM      6  C   UNL     1       1.329  12.418  19.555  0.00  0.00    +0.000 A 
ATOM      7  C   UNL     1       1.876  13.084  20.644  0.00  0.00    +0.000 A 
ATOM      8  C   UNL     1       1.455  14.426  20.912  0.00  0.00    +0.000 A 
ATOM      9  C   UNL     1       0.536  15.114  20.097  0.00  0.00    +0.000 A 
ATOM     10  C   UNL     1      -0.043  14.469  19.019  0.00  0.00    +0.000 A 
ATOM     11  C   UNL     1       0.326  13.144  18.833  0.00  0.00    +0.000 A 
ATOM     12  C   UNL     1      -0.670  12.165  18.361  0.00  0.00    +0.000 C 
ATOM     13  O   UNL     1      -1.460  12.288  17.446  0.00  0.00    +0.000 OA
ATOM     14  C   UNL     1      -1.178  11.378  21.612  0.00  0.00    +0.000 C 
ATOM     15  O   UNL     1      -1.847  12.397  21.486  0.00  0.00    +0.000 OA
ATOM     16  C   UNL     1      -0.578  10.933  22.964  0.00  0.00    +0.000 C 
ATOM     17  C   UNL     1      -0.675   9.405  23.078  0.00  0.00    +0.000 C 
ATOM     18  C   UNL     1       0.143   8.693  21.979  0.00  0.00    +0.000 C 
ENDROOT
BRANCH   1  20
ATOM     19  C   UNL     1       1.825   8.669  17.541  0.00  0.00    +0.000 C 
ATOM     20  C   UNL     1       1.390   8.380  18.992  0.00  0.00    +0.000 C 
BRANCH  20  21
ATOM     21  C   UNL     1       2.200   7.238  19.557  0.00  0.00    +0.000 A 
ATOM     22  C   UNL     1       3.413   6.820  18.996  0.00  0.00    +0.000 A 
ATOM     23  C   UNL     1       3.930   5.553  19.290  0.00  0.00    +0.000 A 
ATOM     24  C   UNL     1       3.260   4.692  20.161  0.00  0.00    +0.000 A 
ATOM     25  C   UNL     1       2.083   5.105  20.771  0.00  0.00    +0.000 A 
ATOM     26  C   UNL     1       1.559   6.369  20.476  0.00  0.00    +0.000 A 
ENDBRANCH  20  21
ENDBRANCH   1  20
TORSDOF 2
ENDMDL
