MODEL 1
REMARK VINA RESULT:      -7.2      0.000      0.000
REMARK  Name = 
REMARK  5 active torsions:
REMARK  status: ('A' for Active; 'I' for Inactive)
REMARK    1  A    between atoms: C_4  and  N_5
REMARK    2  A    between atoms: N_5  and  C_6
REMARK    3  A    between atoms: C_6  and  C_7
REMARK    4  A    between atoms: C_7  and  S_8
REMARK    5  A    between atoms: S_8  and  C_9
REMARK                            x       y       z     vdW  Elec       q    Type
REMARK                         _______ _______ _______ _____ _____    ______ ____
ROOT
ATOM      1  C   UNL     1       6.384   6.633  17.375  0.00  0.00    +0.000 C 
ENDROOT
BRANCH   1   2
ATOM      2  C   UNL     1       6.924   5.350  16.721  0.00  0.00    +0.000 C 
BRANCH   2   3
ATOM      3  N   UNL     1       7.586   5.638  15.441  0.00  0.00    +0.000 N 
ATOM      4  H   UNL     1       7.608   6.637  15.237  0.00  0.00    +0.000 HD
BRANCH   3   8
ATOM      5  C   UNL     1       6.092   3.548  12.071  0.00  0.00    +0.000 A 
ATOM      6  C   UNL     1       5.468   3.447  13.312  0.00  0.00    +0.000 A 
ATOM      7  C   UNL     1       5.981   4.142  14.413  0.00  0.00    +0.000 A 
ATOM      8  C   UNL     1       7.145   4.919  14.311  0.00  0.00    +0.000 A 
ATOM      9  C   UNL     1       7.731   5.040  13.043  0.00  0.00    +0.000 A 
ATOM     10  C   UNL     1       7.218   4.352  11.936  0.00  0.00    +0.000 A 
ENDBRANCH   3   8
ENDBRANCH   2   3
ENDBRANCH   1   2
BRANCH   1  11
ATOM     11  S   UNL     1       4.716   6.969  16.723  0.00  0.00    +0.000 S 
BRANCH  11  12
ATOM     12  C   UNL     1       3.721   5.867  17.649  0.00  0.00    +0.000 A 
ATOM     13  N   UNL     1       3.447   4.648  17.248  0.00  0.00    +0.000 NA
ATOM     14  C   UNL     1       2.587   4.043  18.155  0.00  0.00    +0.000 A 
ATOM     15  C   UNL     1       2.042   2.748  18.045  0.00  0.00    +0.000 A 
ATOM     16  C   UNL     1       1.150   2.279  19.016  0.00  0.00    +0.000 A 
ATOM     17  C   UNL     1       0.807   3.077  20.104  0.00  0.00    +0.000 A 
ATOM     18  C   UNL     1       1.349   4.357  20.251  0.00  0.00    +0.000 A 
ATOM     19  C   UNL     1       2.234   4.822  19.260  0.00  0.00    +0.000 A 
ATOM     20  S   UNL     1       3.038   6.339  19.149  0.00  0.00    +0.000 S 
ENDBRANCH  11  12
ENDBRANCH   1  11
TORSDOF 5
ENDMDL
MODEL 2
REMARK VINA RESULT:      -7.1      3.044      6.808
REMARK  Name = 
REMARK  5 active torsions:
REMARK  status: ('A' for Active; 'I' for Inactive)
REMARK    1  A    between atoms: C_4  and  N_5
REMARK    2  A    between atoms: N_5  and  C_6
REMARK    3  A    between atoms: C_6  and  C_7
REMARK    4  A    between atoms: C_7  and  S_8
REMARK    5  A    between atoms: S_8  and  C_9
REMARK                            x       y       z     vdW  Elec       q    Type
REMARK                         _______ _______ _______ _____ _____    ______ ____
ROOT
ATOM      1  C   UNL     1       1.551   3.907  19.395  0.00  0.00    +0.000 C 
ENDROOT
BRANCH   1   2
ATOM      2  C   UNL     1       1.766   4.714  20.687  0.00  0.00    +0.000 C 
BRANCH   2   3
ATOM      3  N   UNL     1       2.724   5.809  20.481  0.00  0.00    +0.000 N 
ATOM      4  H   UNL     1       3.198   6.070  21.345  0.00  0.00    +0.000 HD
BRANCH   3   8
ATOM      5  C   UNL     1       1.388   9.369  18.611  0.00  0.00    +0.000 A 
ATOM      6  C   UNL     1       1.110   9.116  19.951  0.00  0.00    +0.000 A 
ATOM      7  C   UNL     1       1.557   7.932  20.548  0.00  0.00    +0.000 A 
ATOM      8  C   UNL     1       2.254   6.960  19.815  0.00  0.00    +0.000 A 
ATOM      9  C   UNL     1       2.560   7.256  18.479  0.00  0.00    +0.000 A 
ATOM     10  C   UNL     1       2.122   8.442  17.878  0.00  0.00    +0.000 A 
ENDBRANCH   3   8
ENDBRANCH   2   3
ENDBRANCH   1   2
BRANCH   1  11
ATOM     11  S   UNL     1       2.938   2.744  19.190  0.00  0.00    +0.000 S 
BRANCH  11  12
ATOM     12  C   UNL     1       4.239   3.796  18.678  0.00  0.00    +0.000 A 
ATOM     13  N   UNL     1       5.212   4.165  19.477  0.00  0.00    +0.000 NA
ATOM     14  C   UNL     1       6.051   5.048  18.810  0.00  0.00    +0.000 A 
ATOM     15  C   UNL     1       7.185   5.685  19.353  0.00  0.00    +0.000 A 
ATOM     16  C   UNL     1       7.919   6.589  18.575  0.00  0.00    +0.000 A 
ATOM     17  C   UNL     1       7.549   6.852  17.260  0.00  0.00    +0.000 A 
ATOM     18  C   UNL     1       6.443   6.217  16.688  0.00  0.00    +0.000 A 
ATOM     19  C   UNL     1       5.705   5.321  17.484  0.00  0.00    +0.000 A 
ATOM     20  S   UNL     1       4.301   4.414  17.080  0.00  0.00    +0.000 S 
ENDBRANCH  11  12
ENDBRANCH   1  11
TORSDOF 5
ENDMDL
MODEL 3
REMARK VINA RESULT:      -7.1      1.232      1.949
REMARK  Name = 
REMARK  5 active torsions:
REMARK  status: ('A' for Active; 'I' for Inactive)
REMARK    1  A    between atoms: C_4  and  N_5
REMARK    2  A    between atoms: N_5  and  C_6
REMARK    3  A    between atoms: C_6  and  C_7
REMARK    4  A    between atoms: C_7  and  S_8
REMARK    5  A    between atoms: S_8  and  C_9
REMARK                            x       y       z     vdW  Elec       q    Type
REMARK                         _______ _______ _______ _____ _____    ______ ____
ROOT
ATOM      1  C   UNL     1       7.305   5.065  18.113  0.00  0.00    +0.000 C 
ENDROOT
BRANCH   1   2
ATOM      2  C   UNL     1       7.621   4.478  16.727  0.00  0.00    +0.000 C 
BRANCH   2   3
ATOM      3  N   UNL     1       7.278   5.423  15.654  0.00  0.00    +0.000 N 
ATOM      4  H   UNL     1       6.565   6.090  15.944  0.00  0.00    +0.000 HD
BRANCH   3   8
ATOM      5  C   UNL     1       6.477   3.729  11.853  0.00  0.00    +0.000 A 
ATOM      6  C   UNL     1       7.503   4.655  12.023  0.00  0.00    +0.000 A 
ATOM      7  C   UNL     1       7.748   5.206  13.286  0.00  0.00    +0.000 A 
ATOM      8  C   UNL     1       6.954   4.876  14.395  0.00  0.00    +0.000 A 
ATOM      9  C   UNL     1       5.955   3.910  14.209  0.00  0.00    +0.000 A 
ATOM     10  C   UNL     1       5.710   3.350  12.949  0.00  0.00    +0.000 A 
ENDBRANCH   3   8
ENDBRANCH   2   3
ENDBRANCH   1   2
BRANCH   1  11
ATOM     11  S   UNL     1       6.016   6.340  17.932  0.00  0.00    +0.000 S 
BRANCH  11  12
ATOM     12  C   UNL     1       4.567   5.481  18.406  0.00  0.00    +0.000 A 
ATOM     13  N   UNL     1       4.101   5.495  19.632  0.00  0.00    +0.000 NA
ATOM     14  C   UNL     1       2.985   4.672  19.714  0.00  0.00    +0.000 A 
ATOM     15  C   UNL     1       2.236   4.405  20.878  0.00  0.00    +0.000 A 
ATOM     16  C   UNL     1       1.154   3.518  20.824  0.00  0.00    +0.000 A 
ATOM     17  C   UNL     1       0.799   2.908  19.625  0.00  0.00    +0.000 A 
ATOM     18  C   UNL     1       1.511   3.171  18.451  0.00  0.00    +0.000 A 
ATOM     19  C   UNL     1       2.605   4.054  18.521  0.00  0.00    +0.000 A 
ATOM     20  S   UNL     1       3.675   4.556  17.271  0.00  0.00    +0.000 S 
ENDBRANCH  11  12
ENDBRANCH   1  11
TORSDOF 5
ENDMDL
MODEL 4
REMARK VINA RESULT:      -7.1      1.479      6.936
REMARK  Name = 
REMARK  5 active torsions:
REMARK  status: ('A' for Active; 'I' for Inactive)
REMARK    1  A    between atoms: C_4  and  N_5
REMARK    2  A    between atoms: N_5  and  C_6
REMARK    3  A    between atoms: C_6  and  C_7
REMARK    4  A    between atoms: C_7  and  S_8
REMARK    5  A    between atoms: S_8  and  C_9
REMARK                            x       y       z     vdW  Elec       q    Type
REMARK                         _______ _______ _______ _____ _____    ______ ____
ROOT
ATOM      1  C   UNL     1       5.962   5.399  18.885  0.00  0.00    +0.000 C 
ENDROOT
BRANCH   1   2
ATOM      2  C   UNL     1       4.524   5.937  18.805  0.00  0.00    +0.000 C 
BRANCH   2   3
ATOM      3  N   UNL     1       3.746   5.565  19.996  0.00  0.00    +0.000 N 
ATOM      4  H   UNL     1       4.344   5.280  20.770  0.00  0.00    +0.000 HD
BRANCH   3   8
ATOM      5  C   UNL     1       0.720   2.668  19.352  0.00  0.00    +0.000 A 
ATOM      6  C   UNL     1       1.382   3.263  18.281  0.00  0.00    +0.000 A 
ATOM      7  C   UNL     1       2.375   4.222  18.516  0.00  0.00    +0.000 A 
ATOM      8  C   UNL     1       2.702   4.634  19.817  0.00  0.00    +0.000 A 
ATOM      9  C   UNL     1       2.053   3.990  20.880  0.00  0.00    +0.000 A 
ATOM     10  C   UNL     1       1.063   3.026  20.651  0.00  0.00    +0.000 A 
ENDBRANCH   3   8
ENDBRANCH   2   3
ENDBRANCH   1   2
BRANCH   1  11
ATOM     11  S   UNL     1       7.017   6.369  17.758  0.00  0.00    +0.000 S 
BRANCH  11  12
ATOM     12  C   UNL     1       6.819   5.524  16.238  0.00  0.00    +0.000 A 
ATOM     13  N   UNL     1       7.626   5.699  15.218  0.00  0.00    +0.000 NA
ATOM     14  C   UNL     1       7.178   4.948  14.139  0.00  0.00    +0.000 A 
ATOM     15  C   UNL     1       7.764   4.907  12.857  0.00  0.00    +0.000 A 
ATOM     16  C   UNL     1       7.180   4.136  11.846  0.00  0.00    +0.000 A 
ATOM     17  C   UNL     1       6.032   3.391  12.099  0.00  0.00    +0.000 A 
ATOM     18  C   UNL     1       5.442   3.395  13.366  0.00  0.00    +0.000 A 
ATOM     19  C   UNL     1       6.031   4.186  14.371  0.00  0.00    +0.000 A 
ATOM     20  S   UNL     1       5.535   4.414  16.002  0.00  0.00    +0.000 S 
ENDBRANCH  11  12
ENDBRANCH   1  11
TORSDOF 5
ENDMDL
MODEL 5
REMARK VINA RESULT:      -7.0      1.670      6.887
REMARK  Name = 
REMARK  5 active torsions:
REMARK  status: ('A' for Active; 'I' for Inactive)
REMARK    1  A    between atoms: C_4  and  N_5
REMARK    2  A    between atoms: N_5  and  C_6
REMARK    3  A    between atoms: C_6  and  C_7
REMARK    4  A    between atoms: C_7  and  S_8
REMARK    5  A    between atoms: S_8  and  C_9
REMARK                            x       y       z     vdW  Elec       q    Type
REMARK                         _______ _______ _______ _____ _____    ______ ____
ROOT
ATOM      1  C   UNL     1       6.817   4.748  18.832  0.00  0.00    +0.000 C 
ENDROOT
BRANCH   1   2
ATOM      2  C   UNL     1       5.367   4.684  19.339  0.00  0.00    +0.000 C 
BRANCH   2   3
ATOM      3  N   UNL     1       4.909   3.294  19.479  0.00  0.00    +0.000 N 
ATOM      4  H   UNL     1       5.366   2.672  18.814  0.00  0.00    +0.000 HD
BRANCH   3   8
ATOM      5  C   UNL     1       0.699   2.809  19.490  0.00  0.00    +0.000 A 
ATOM      6  C   UNL     1       1.340   3.528  20.495  0.00  0.00    +0.000 A 
ATOM      7  C   UNL     1       2.732   3.672  20.475  0.00  0.00    +0.000 A 
ATOM      8  C   UNL     1       3.516   3.072  19.478  0.00  0.00    +0.000 A 
ATOM      9  C   UNL     1       2.845   2.390  18.453  0.00  0.00    +0.000 A 
ATOM     10  C   UNL     1       1.452   2.248  18.464  0.00  0.00    +0.000 A 
ENDBRANCH   3   8
ENDBRANCH   2   3
ENDBRANCH   1   2
BRANCH   1  11
ATOM     11  S   UNL     1       6.976   6.150  17.678  0.00  0.00    +0.000 S 
BRANCH  11  12
ATOM     12  C   UNL     1       6.825   5.371  16.118  0.00  0.00    +0.000 A 
ATOM     13  N   UNL     1       7.600   5.663  15.100  0.00  0.00    +0.000 NA
ATOM     14  C   UNL     1       7.198   4.934  13.988  0.00  0.00    +0.000 A 
ATOM     15  C   UNL     1       7.766   5.007  12.700  0.00  0.00    +0.000 A 
ATOM     16  C   UNL     1       7.231   4.244  11.656  0.00  0.00    +0.000 A 
ATOM     17  C   UNL     1       6.150   3.397  11.881  0.00  0.00    +0.000 A 
ATOM     18  C   UNL     1       5.580   3.289  13.153  0.00  0.00    +0.000 A 
ATOM     19  C   UNL     1       6.118   4.072  14.192  0.00  0.00    +0.000 A 
ATOM     20  S   UNL     1       5.630   4.175  15.838  0.00  0.00    +0.000 S 
ENDBRANCH  11  12
ENDBRANCH   1  11
TORSDOF 5
ENDMDL
MODEL 6
REMARK VINA RESULT:      -6.8      1.553      6.921
REMARK  Name = 
REMARK  5 active torsions:
REMARK  status: ('A' for Active; 'I' for Inactive)
REMARK    1  A    between atoms: C_4  and  N_5
REMARK    2  A    between atoms: N_5  and  C_6
REMARK    3  A    between atoms: C_6  and  C_7
REMARK    4  A    between atoms: C_7  and  S_8
REMARK    5  A    between atoms: S_8  and  C_9
REMARK                            x       y       z     vdW  Elec       q    Type
REMARK                         _______ _______ _______ _____ _____    ______ ____
ROOT
ATOM      1  C   UNL     1       6.142   5.445  18.866  0.00  0.00    +0.000 C 
ENDROOT
BRANCH   1   2
ATOM      2  C   UNL     1       4.674   5.839  18.629  0.00  0.00    +0.000 C 
BRANCH   2   3
ATOM      3  N   UNL     1       3.866   5.651  19.842  0.00  0.00    +0.000 N 
ATOM      4  H   UNL     1       4.443   5.491  20.666  0.00  0.00    +0.000 HD
BRANCH   3   8
ATOM      5  C   UNL     1       0.649   2.892  19.781  0.00  0.00    +0.000 A 
ATOM      6  C   UNL     1       1.238   3.280  20.982  0.00  0.00    +0.000 A 
ATOM      7  C   UNL     1       2.303   4.188  20.979  0.00  0.00    +0.000 A 
ATOM      8  C   UNL     1       2.827   4.699  19.781  0.00  0.00    +0.000 A 
ATOM      9  C   UNL     1       2.190   4.328  18.589  0.00  0.00    +0.000 A 
ATOM     10  C   UNL     1       1.119   3.425  18.586  0.00  0.00    +0.000 A 
ENDBRANCH   3   8
ENDBRANCH   2   3
ENDBRANCH   1   2
BRANCH   1  11
ATOM     11  S   UNL     1       7.194   6.364  17.697  0.00  0.00    +0.000 S 
BRANCH  11  12
ATOM     12  C   UNL     1       6.908   5.522  16.190  0.00  0.00    +0.000 A 
ATOM     13  N   UNL     1       7.678   5.666  15.137  0.00  0.00    +0.000 NA
ATOM     14  C   UNL     1       7.163   4.927  14.080  0.00  0.00    +0.000 A 
ATOM     15  C   UNL     1       7.695   4.862  12.776  0.00  0.00    +0.000 A 
ATOM     16  C   UNL     1       7.046   4.107  11.793  0.00  0.00    +0.000 A 
ATOM     17  C   UNL     1       5.885   3.401  12.096  0.00  0.00    +0.000 A 
ATOM     18  C   UNL     1       5.347   3.430  13.386  0.00  0.00    +0.000 A 
ATOM     19  C   UNL     1       6.001   4.204  14.362  0.00  0.00    +0.000 A 
ATOM     20  S   UNL     1       5.580   4.454  16.011  0.00  0.00    +0.000 S 
ENDBRANCH  11  12
ENDBRANCH   1  11
TORSDOF 5
ENDMDL
MODEL 7
REMARK VINA RESULT:      -6.8      2.842      6.767
REMARK  Name = 
REMARK  5 active torsions:
REMARK  status: ('A' for Active; 'I' for Inactive)
REMARK    1  A    between atoms: C_4  and  N_5
REMARK    2  A    between atoms: N_5  and  C_6
REMARK    3  A    between atoms: C_6  and  C_7
REMARK    4  A    between atoms: C_7  and  S_8
REMARK    5  A    between atoms: S_8  and  C_9
REMARK                            x       y       z     vdW  Elec       q    Type
REMARK                         _______ _______ _______ _____ _____    ______ ____
ROOT
ATOM      1  C   UNL     1       2.225   3.998  21.434  0.00  0.00    +0.000 C 
ENDROOT
BRANCH   1   2
ATOM      2  C   UNL     1       1.613   5.307  20.907  0.00  0.00    +0.000 C 
BRANCH   2   3
ATOM      3  N   UNL     1       2.645   6.200  20.360  0.00  0.00    +0.000 N 
ATOM      4  H   UNL     1       3.381   6.394  21.038  0.00  0.00    +0.000 HD
BRANCH   3   8
ATOM      5  C   UNL     1       1.256   9.699  18.416  0.00  0.00    +0.000 A 
ATOM      6  C   UNL     1       2.023   8.758  17.735  0.00  0.00    +0.000 A 
ATOM      7  C   UNL     1       2.477   7.612  18.398  0.00  0.00    +0.000 A 
ATOM      8  C   UNL     1       2.208   7.397  19.758  0.00  0.00    +0.000 A 
ATOM      9  C   UNL     1       1.397   8.337  20.411  0.00  0.00    +0.000 A 
ATOM     10  C   UNL     1       0.935   9.482  19.752  0.00  0.00    +0.000 A 
ENDBRANCH   3   8
ENDBRANCH   2   3
ENDBRANCH   1   2
BRANCH   1  11
ATOM     11  S   UNL     1       2.097   2.724  20.137  0.00  0.00    +0.000 S 
BRANCH  11  12
ATOM     12  C   UNL     1       3.309   3.238  18.985  0.00  0.00    +0.000 A 
ATOM     13  N   UNL     1       4.479   3.710  19.346  0.00  0.00    +0.000 NA
ATOM     14  C   UNL     1       5.193   4.093  18.218  0.00  0.00    +0.000 A 
ATOM     15  C   UNL     1       6.476   4.678  18.207  0.00  0.00    +0.000 A 
ATOM     16  C   UNL     1       7.062   5.055  16.994  0.00  0.00    +0.000 A 
ATOM     17  C   UNL     1       6.397   4.840  15.790  0.00  0.00    +0.000 A 
ATOM     18  C   UNL     1       5.134   4.242  15.769  0.00  0.00    +0.000 A 
ATOM     19  C   UNL     1       4.549   3.880  16.997  0.00  0.00    +0.000 A 
ATOM     20  S   UNL     1       3.018   3.154  17.297  0.00  0.00    +0.000 S 
ENDBRANCH  11  12
ENDBRANCH   1  11
TORSDOF 5
ENDMDL
MODEL 8
REMARK VINA RESULT:      -6.8      0.532      1.208
REMARK  Name = 
REMARK  5 active torsions:
REMARK  status: ('A' for Active; 'I' for Inactive)
REMARK    1  A    between atoms: C_4  and  N_5
REMARK    2  A    between atoms: N_5  and  C_6
REMARK    3  A    between atoms: C_6  and  C_7
REMARK    4  A    between atoms: C_7  and  S_8
REMARK    5  A    between atoms: S_8  and  C_9
REMARK                            x       y       z     vdW  Elec       q    Type
REMARK                         _______ _______ _______ _____ _____    ______ ____
ROOT
ATOM      1  C   UNL     1       6.533   6.263  17.622  0.00  0.00    +0.000 C 
ENDROOT
BRANCH   1   2
ATOM      2  C   UNL     1       7.170   5.178  16.738  0.00  0.00    +0.000 C 
BRANCH   2   3
ATOM      3  N   UNL     1       6.170   4.530  15.878  0.00  0.00    +0.000 N 
ATOM      4  H   UNL     1       5.901   3.612  16.227  0.00  0.00    +0.000 HD
BRANCH   3   8
ATOM      5  C   UNL     1       7.200   4.305  11.773  0.00  0.00    +0.000 A 
ATOM      6  C   UNL     1       7.853   5.188  12.629  0.00  0.00    +0.000 A 
ATOM      7  C   UNL     1       7.494   5.250  13.980  0.00  0.00    +0.000 A 
ATOM      8  C   UNL     1       6.454   4.464  14.498  0.00  0.00    +0.000 A 
ATOM      9  C   UNL     1       5.840   3.552  13.628  0.00  0.00    +0.000 A 
ATOM     10  C   UNL     1       6.200   3.480  12.276  0.00  0.00    +0.000 A 
ENDBRANCH   3   8
ENDBRANCH   2   3
ENDBRANCH   1   2
BRANCH   1  11
ATOM     11  S   UNL     1       4.916   6.720  16.917  0.00  0.00    +0.000 S 
BRANCH  11  12
ATOM     12  C   UNL     1       3.816   5.677  17.790  0.00  0.00    +0.000 A 
ATOM     13  N   UNL     1       3.494   4.475  17.374  0.00  0.00    +0.000 NA
ATOM     14  C   UNL     1       2.557   3.920  18.236  0.00  0.00    +0.000 A 
ATOM     15  C   UNL     1       1.947   2.657  18.096  0.00  0.00    +0.000 A 
ATOM     16  C   UNL     1       0.982   2.241  19.021  0.00  0.00    +0.000 A 
ATOM     17  C   UNL     1       0.631   3.057  20.092  0.00  0.00    +0.000 A 
ATOM     18  C   UNL     1       1.235   4.305  20.267  0.00  0.00    +0.000 A 
ATOM     19  C   UNL     1       2.193   4.718  19.323  0.00  0.00    +0.000 A 
ATOM     20  S   UNL     1       3.086   6.188  19.255  0.00  0.00    +0.000 S 
ENDBRANCH  11  12
ENDBRANCH   1  11
TORSDOF 5
ENDMDL
MODEL 9
REMARK VINA RESULT:      -6.7      3.792      5.903
REMARK  Name = 
REMARK  5 active torsions:
REMARK  status: ('A' for Active; 'I' for Inactive)
REMARK    1  A    between atoms: C_4  and  N_5
REMARK    2  A    between atoms: N_5  and  C_6
REMARK    3  A    between atoms: C_6  and  C_7
REMARK    4  A    between atoms: C_7  and  S_8
REMARK    5  A    between atoms: S_8  and  C_9
REMARK                            x       y       z     vdW  Elec       q    Type
REMARK                         _______ _______ _______ _____ _____    ______ ____
ROOT
ATOM      1  C   UNL     1       7.537   6.692  17.442  0.00  0.00    +0.000 C 
ENDROOT
BRANCH   1   2
ATOM      2  C   UNL     1       7.625   8.202  17.719  0.00  0.00    +0.000 C 
BRANCH   2   3
ATOM      3  N   UNL     1       8.637   8.501  18.742  0.00  0.00    +0.000 N 
ATOM      4  H   UNL     1       8.397   8.098  19.647  0.00  0.00    +0.000 HD
BRANCH   3   8
ATOM      5  C   UNL     1       9.618  12.604  19.143  0.00  0.00    +0.000 A 
ATOM      6  C   UNL     1       9.093  12.106  17.954  0.00  0.00    +0.000 A 
ATOM      7  C   UNL     1       8.780  10.746  17.841  0.00  0.00    +0.000 A 
ATOM      8  C   UNL     1       9.019   9.850  18.894  0.00  0.00    +0.000 A 
ATOM      9  C   UNL     1       9.509  10.382  20.095  0.00  0.00    +0.000 A 
ATOM     10  C   UNL     1       9.817  11.742  20.217  0.00  0.00    +0.000 A 
ENDBRANCH   3   8
ENDBRANCH   2   3
ENDBRANCH   1   2
BRANCH   1  11
ATOM     11  S   UNL     1       7.356   5.812  19.027  0.00  0.00    +0.000 S 
BRANCH  11  12
ATOM     12  C   UNL     1       5.767   5.095  18.881  0.00  0.00    +0.000 A 
ATOM     13  N   UNL     1       5.485   3.893  19.326  0.00  0.00    +0.000 NA
ATOM     14  C   UNL     1       4.171   3.576  19.008  0.00  0.00    +0.000 A 
ATOM     15  C   UNL     1       3.520   2.358  19.289  0.00  0.00    +0.000 A 
ATOM     16  C   UNL     1       2.200   2.158  18.870  0.00  0.00    +0.000 A 
ATOM     17  C   UNL     1       1.513   3.161  18.191  0.00  0.00    +0.000 A 
ATOM     18  C   UNL     1       2.127   4.387  17.918  0.00  0.00    +0.000 A 
ATOM     19  C   UNL     1       3.459   4.571  18.332  0.00  0.00    +0.000 A 
ATOM     20  S   UNL     1       4.480   5.940  18.128  0.00  0.00    +0.000 S 
ENDBRANCH  11  12
ENDBRANCH   1  11
TORSDOF 5
ENDMDL
