MODEL 1
REMARK VINA RESULT:      -7.2      0.000      0.000
REMARK  Name = 
REMARK  3 active torsions:
REMARK  status: ('A' for Active; 'I' for Inactive)
REMARK    1  A    between atoms: C_2  and  C_14
REMARK    2  A    between atoms: N_3  and  C_4
REMARK    3  A    between atoms: C_9  and  C_10
REMARK                            x       y       z     vdW  Elec       q    Type
REMARK                         _______ _______ _______ _____ _____    ______ ____
ROOT
ATOM      1  O   UNL     1       6.266   4.474  18.826  0.00  0.00    +0.000 OA
ATOM      2  C   UNL     1       5.466   4.304  17.912  0.00  0.00    +0.000 C 
ATOM      3  N   UNL     1       4.131   3.941  18.049  0.00  0.00    +0.000 N 
ATOM      4  H   UNL     1       3.673   3.653  17.184  0.00  0.00    +0.000 HD
ENDROOT
BRANCH   3   5
ATOM      5  C   UNL     1       3.443   3.825  19.284  0.00  0.00    +0.000 A 
ATOM      6  C   UNL     1       3.503   2.624  20.012  0.00  0.00    +0.000 A 
ATOM      7  C   UNL     1       2.805   2.446  21.206  0.00  0.00    +0.000 A 
ATOM      8  C   UNL     1       2.048   3.484  21.720  0.00  0.00    +0.000 A 
ATOM      9  C   UNL     1       2.006   4.700  21.039  0.00  0.00    +0.000 A 
ATOM     10  C   UNL     1       2.698   4.891  19.818  0.00  0.00    +0.000 A 
BRANCH  10  11
ATOM     11  C   UNL     1       2.525   6.226  19.143  0.00  0.00    +0.000 C 
ATOM     12  F   UNL     1       1.886   6.179  17.941  0.00  0.00    +0.000 F 
ATOM     13  F   UNL     1       1.810   7.102  19.907  0.00  0.00    +0.000 F 
ATOM     14  F   UNL     1       3.716   6.845  18.901  0.00  0.00    +0.000 F 
ENDBRANCH  10  11
ENDBRANCH   3   5
BRANCH   2  15
ATOM     15  C   UNL     1       5.958   4.462  16.511  0.00  0.00    +0.000 A 
ATOM     16  C   UNL     1       5.097   4.135  15.466  0.00  0.00    +0.000 A 
ATOM     17  C   UNL     1       5.567   4.233  14.163  0.00  0.00    +0.000 A 
ATOM     18  C   UNL     1       6.875   4.649  13.951  0.00  0.00    +0.000 A 
ATOM     19  C   UNL     1       7.661   4.965  15.053  0.00  0.00    +0.000 A 
ATOM     20  N   UNL     1       7.237   4.890  16.337  0.00  0.00    +0.000 NA
ENDBRANCH   2  15
TORSDOF 3
ENDMDL
MODEL 2
REMARK VINA RESULT:      -7.1      2.353      6.088
REMARK  Name = 
REMARK  3 active torsions:
REMARK  status: ('A' for Active; 'I' for Inactive)
REMARK    1  A    between atoms: C_2  and  C_14
REMARK    2  A    between atoms: N_3  and  C_4
REMARK    3  A    between atoms: C_9  and  C_10
REMARK                            x       y       z     vdW  Elec       q    Type
REMARK                         _______ _______ _______ _____ _____    ______ ____
ROOT
ATOM      1  O   UNL     1       4.026   1.955  17.509  0.00  0.00    +0.000 OA
ATOM      2  C   UNL     1       3.880   3.031  18.080  0.00  0.00    +0.000 C 
ATOM      3  N   UNL     1       4.505   4.227  17.744  0.00  0.00    +0.000 N 
ATOM      4  H   UNL     1       4.420   4.966  18.442  0.00  0.00    +0.000 HD
ENDROOT
BRANCH   3   5
ATOM      5  C   UNL     1       5.327   4.424  16.606  0.00  0.00    +0.000 A 
ATOM      6  C   UNL     1       4.809   4.201  15.317  0.00  0.00    +0.000 A 
ATOM      7  C   UNL     1       5.592   4.336  14.171  0.00  0.00    +0.000 A 
ATOM      8  C   UNL     1       6.913   4.728  14.285  0.00  0.00    +0.000 A 
ATOM      9  C   UNL     1       7.440   4.996  15.547  0.00  0.00    +0.000 A 
ATOM     10  C   UNL     1       6.662   4.850  16.722  0.00  0.00    +0.000 A 
BRANCH  10  11
ATOM     11  C   UNL     1       7.358   5.106  18.032  0.00  0.00    +0.000 C 
ATOM     12  F   UNL     1       6.561   4.999  19.132  0.00  0.00    +0.000 F 
ATOM     13  F   UNL     1       8.395   4.245  18.243  0.00  0.00    +0.000 F 
ATOM     14  F   UNL     1       7.904   6.355  18.096  0.00  0.00    +0.000 F 
ENDBRANCH  10  11
ENDBRANCH   3   5
BRANCH   2  15
ATOM     15  C   UNL     1       2.978   3.077  19.269  0.00  0.00    +0.000 A 
ATOM     16  C   UNL     1       1.722   3.663  19.125  0.00  0.00    +0.000 A 
ATOM     17  C   UNL     1       0.900   3.753  20.240  0.00  0.00    +0.000 A 
ATOM     18  C   UNL     1       1.360   3.261  21.455  0.00  0.00    +0.000 A 
ATOM     19  C   UNL     1       2.624   2.684  21.504  0.00  0.00    +0.000 A 
ATOM     20  N   UNL     1       3.451   2.570  20.438  0.00  0.00    +0.000 NA
ENDBRANCH   2  15
TORSDOF 3
ENDMDL
MODEL 3
REMARK VINA RESULT:      -7.1      2.134      6.008
REMARK  Name = 
REMARK  3 active torsions:
REMARK  status: ('A' for Active; 'I' for Inactive)
REMARK    1  A    between atoms: C_2  and  C_14
REMARK    2  A    between atoms: N_3  and  C_4
REMARK    3  A    between atoms: C_9  and  C_10
REMARK                            x       y       z     vdW  Elec       q    Type
REMARK                         _______ _______ _______ _____ _____    ______ ____
ROOT
ATOM      1  O   UNL     1       3.043   5.272  17.452  0.00  0.00    +0.000 OA
ATOM      2  C   UNL     1       3.605   4.326  17.993  0.00  0.00    +0.000 C 
ATOM      3  N   UNL     1       4.763   3.699  17.548  0.00  0.00    +0.000 N 
ATOM      4  H   UNL     1       4.975   2.812  18.007  0.00  0.00    +0.000 HD
ENDROOT
BRANCH   3   5
ATOM      5  C   UNL     1       5.555   4.133  16.455  0.00  0.00    +0.000 A 
ATOM      6  C   UNL     1       5.223   3.740  15.146  0.00  0.00    +0.000 A 
ATOM      7  C   UNL     1       5.998   4.102  14.045  0.00  0.00    +0.000 A 
ATOM      8  C   UNL     1       7.115   4.898  14.224  0.00  0.00    +0.000 A 
ATOM      9  C   UNL     1       7.442   5.337  15.506  0.00  0.00    +0.000 A 
ATOM     10  C   UNL     1       6.674   4.966  16.636  0.00  0.00    +0.000 A 
BRANCH  10  11
ATOM     11  C   UNL     1       7.162   5.448  17.976  0.00  0.00    +0.000 C 
ATOM     12  F   UNL     1       6.177   5.787  18.854  0.00  0.00    +0.000 F 
ATOM     13  F   UNL     1       7.921   4.513  18.617  0.00  0.00    +0.000 F 
ATOM     14  F   UNL     1       7.956   6.552  17.874  0.00  0.00    +0.000 F 
ENDBRANCH  10  11
ENDBRANCH   3   5
BRANCH   2  15
ATOM     15  C   UNL     1       2.986   3.755  19.226  0.00  0.00    +0.000 A 
ATOM     16  C   UNL     1       1.652   4.054  19.496  0.00  0.00    +0.000 A 
ATOM     17  C   UNL     1       1.087   3.566  20.666  0.00  0.00    +0.000 A 
ATOM     18  C   UNL     1       1.871   2.805  21.525  0.00  0.00    +0.000 A 
ATOM     19  C   UNL     1       3.190   2.549  21.170  0.00  0.00    +0.000 A 
ATOM     20  N   UNL     1       3.774   2.998  20.035  0.00  0.00    +0.000 NA
ENDBRANCH   2  15
TORSDOF 3
ENDMDL
MODEL 4
REMARK VINA RESULT:      -7.1      1.782      2.321
REMARK  Name = 
REMARK  3 active torsions:
REMARK  status: ('A' for Active; 'I' for Inactive)
REMARK    1  A    between atoms: C_2  and  C_14
REMARK    2  A    between atoms: N_3  and  C_4
REMARK    3  A    between atoms: C_9  and  C_10
REMARK                            x       y       z     vdW  Elec       q    Type
REMARK                         _______ _______ _______ _____ _____    ______ ____
ROOT
ATOM      1  O   UNL     1       7.133   4.461  16.722  0.00  0.00    +0.000 OA
ATOM      2  C   UNL     1       6.239   4.453  15.883  0.00  0.00    +0.000 C 
ATOM      3  N   UNL     1       4.875   4.392  16.140  0.00  0.00    +0.000 N 
ATOM      4  H   UNL     1       4.292   4.195  15.326  0.00  0.00    +0.000 HD
ENDROOT
BRANCH   3   5
ATOM      5  C   UNL     1       4.287   4.451  17.430  0.00  0.00    +0.000 A 
ATOM      6  C   UNL     1       3.956   3.264  18.107  0.00  0.00    +0.000 A 
ATOM      7  C   UNL     1       3.334   3.272  19.355  0.00  0.00    +0.000 A 
ATOM      8  C   UNL     1       3.053   4.477  19.974  0.00  0.00    +0.000 A 
ATOM      9  C   UNL     1       3.410   5.667  19.343  0.00  0.00    +0.000 A 
ATOM     10  C   UNL     1       4.030   5.676  18.070  0.00  0.00    +0.000 A 
BRANCH  10  11
ATOM     11  C   UNL     1       4.310   7.024  17.462  0.00  0.00    +0.000 C 
ATOM     12  F   UNL     1       4.112   7.096  16.115  0.00  0.00    +0.000 F 
ATOM     13  F   UNL     1       3.531   8.006  18.001  0.00  0.00    +0.000 F 
ATOM     14  F   UNL     1       5.596   7.430  17.664  0.00  0.00    +0.000 F 
ENDBRANCH  10  11
ENDBRANCH   3   5
BRANCH   2  15
ATOM     15  C   UNL     1       6.631   4.475  14.442  0.00  0.00    +0.000 A 
ATOM     16  C   UNL     1       6.000   3.589  13.570  0.00  0.00    +0.000 A 
ATOM     17  C   UNL     1       6.395   3.572  12.240  0.00  0.00    +0.000 A 
ATOM     18  C   UNL     1       7.406   4.432  11.829  0.00  0.00    +0.000 A 
ATOM     19  C   UNL     1       7.974   5.288  12.765  0.00  0.00    +0.000 A 
ATOM     20  N   UNL     1       7.609   5.341  14.068  0.00  0.00    +0.000 NA
ENDBRANCH   2  15
TORSDOF 3
ENDMDL
MODEL 5
REMARK VINA RESULT:      -7.0      2.221      2.776
REMARK  Name = 
REMARK  3 active torsions:
REMARK  status: ('A' for Active; 'I' for Inactive)
REMARK    1  A    between atoms: C_2  and  C_14
REMARK    2  A    between atoms: N_3  and  C_4
REMARK    3  A    between atoms: C_9  and  C_10
REMARK                            x       y       z     vdW  Elec       q    Type
REMARK                         _______ _______ _______ _____ _____    ______ ____
ROOT
ATOM      1  O   UNL     1       6.071   4.656  17.970  0.00  0.00    +0.000 OA
ATOM      2  C   UNL     1       5.317   4.722  17.005  0.00  0.00    +0.000 C 
ATOM      3  N   UNL     1       3.931   4.816  17.055  0.00  0.00    +0.000 N 
ATOM      4  H   UNL     1       3.458   4.661  16.164  0.00  0.00    +0.000 HD
ENDROOT
BRANCH   3   5
ATOM      5  C   UNL     1       3.168   4.972  18.240  0.00  0.00    +0.000 A 
ATOM      6  C   UNL     1       2.967   6.252  18.784  0.00  0.00    +0.000 A 
ATOM      7  C   UNL     1       2.264   6.451  19.972  0.00  0.00    +0.000 A 
ATOM      8  C   UNL     1       1.717   5.367  20.634  0.00  0.00    +0.000 A 
ATOM      9  C   UNL     1       1.866   4.090  20.094  0.00  0.00    +0.000 A 
ATOM     10  C   UNL     1       2.588   3.871  18.896  0.00  0.00    +0.000 A 
BRANCH  10  11
ATOM     11  C   UNL     1       2.736   2.442  18.445  0.00  0.00    +0.000 C 
ATOM     12  F   UNL     1       4.005   1.952  18.507  0.00  0.00    +0.000 F 
ATOM     13  F   UNL     1       1.974   1.586  19.186  0.00  0.00    +0.000 F 
ATOM     14  F   UNL     1       2.335   2.260  17.154  0.00  0.00    +0.000 F 
ENDBRANCH  10  11
ENDBRANCH   3   5
BRANCH   2  15
ATOM     15  C   UNL     1       5.919   4.664  15.640  0.00  0.00    +0.000 A 
ATOM     16  C   UNL     1       5.297   3.873  14.675  0.00  0.00    +0.000 A 
ATOM     17  C   UNL     1       5.880   3.776  13.420  0.00  0.00    +0.000 A 
ATOM     18  C   UNL     1       7.061   4.466  13.172  0.00  0.00    +0.000 A 
ATOM     19  C   UNL     1       7.606   5.239  14.191  0.00  0.00    +0.000 A 
ATOM     20  N   UNL     1       7.063   5.365  15.425  0.00  0.00    +0.000 NA
ENDBRANCH   2  15
TORSDOF 3
ENDMDL
MODEL 6
REMARK VINA RESULT:      -7.0      0.590      1.033
REMARK  Name = 
REMARK  3 active torsions:
REMARK  status: ('A' for Active; 'I' for Inactive)
REMARK    1  A    between atoms: C_2  and  C_14
REMARK    2  A    between atoms: N_3  and  C_4
REMARK    3  A    between atoms: C_9  and  C_10
REMARK                            x       y       z     vdW  Elec       q    Type
REMARK                         _______ _______ _______ _____ _____    ______ ____
ROOT
ATOM      1  O   UNL     1       5.785   4.003  18.831  0.00  0.00    +0.000 OA
ATOM      2  C   UNL     1       5.076   4.095  17.834  0.00  0.00    +0.000 C 
ATOM      3  N   UNL     1       3.696   3.940  17.795  0.00  0.00    +0.000 N 
ATOM      4  H   UNL     1       3.300   3.854  16.858  0.00  0.00    +0.000 HD
ENDROOT
BRANCH   3   5
ATOM      5  C   UNL     1       2.864   3.767  18.930  0.00  0.00    +0.000 A 
ATOM      6  C   UNL     1       2.594   2.474  19.415  0.00  0.00    +0.000 A 
ATOM      7  C   UNL     1       1.745   2.252  20.498  0.00  0.00    +0.000 A 
ATOM      8  C   UNL     1       1.164   3.326  21.147  0.00  0.00    +0.000 A 
ATOM      9  C   UNL     1       1.448   4.620  20.713  0.00  0.00    +0.000 A 
ATOM     10  C   UNL     1       2.298   4.863  19.606  0.00  0.00    +0.000 A 
BRANCH  10  11
ATOM     11  C   UNL     1       2.479   6.298  19.192  0.00  0.00    +0.000 C 
ATOM     12  F   UNL     1       1.863   7.208  19.999  0.00  0.00    +0.000 F 
ATOM     13  F   UNL     1       3.793   6.665  19.160  0.00  0.00    +0.000 F 
ATOM     14  F   UNL     1       2.004   6.542  17.937  0.00  0.00    +0.000 F 
ENDBRANCH  10  11
ENDBRANCH   3   5
BRANCH   2  15
ATOM     15  C   UNL     1       5.741   4.365  16.524  0.00  0.00    +0.000 A 
ATOM     16  C   UNL     1       5.043   4.069  15.355  0.00  0.00    +0.000 A 
ATOM     17  C   UNL     1       5.674   4.272  14.136  0.00  0.00    +0.000 A 
ATOM     18  C   UNL     1       6.977   4.756  14.126  0.00  0.00    +0.000 A 
ATOM     19  C   UNL     1       7.593   5.032  15.341  0.00  0.00    +0.000 A 
ATOM     20  N   UNL     1       7.008   4.856  16.550  0.00  0.00    +0.000 NA
ENDBRANCH   2  15
TORSDOF 3
ENDMDL
MODEL 7
REMARK VINA RESULT:      -7.0      2.392      2.925
REMARK  Name = 
REMARK  3 active torsions:
REMARK  status: ('A' for Active; 'I' for Inactive)
REMARK    1  A    between atoms: C_2  and  C_14
REMARK    2  A    between atoms: N_3  and  C_4
REMARK    3  A    between atoms: C_9  and  C_10
REMARK                            x       y       z     vdW  Elec       q    Type
REMARK                         _______ _______ _______ _____ _____    ______ ____
ROOT
ATOM      1  O   UNL     1       5.392   3.399  18.755  0.00  0.00    +0.000 OA
ATOM      2  C   UNL     1       5.181   4.563  19.080  0.00  0.00    +0.000 C 
ATOM      3  N   UNL     1       4.007   5.058  19.635  0.00  0.00    +0.000 N 
ATOM      4  H   UNL     1       3.939   6.075  19.658  0.00  0.00    +0.000 HD
ENDROOT
BRANCH   3   5
ATOM      5  C   UNL     1       2.897   4.268  20.028  0.00  0.00    +0.000 A 
ATOM      6  C   UNL     1       2.835   3.737  21.329  0.00  0.00    +0.000 A 
ATOM      7  C   UNL     1       1.788   2.917  21.745  0.00  0.00    +0.000 A 
ATOM      8  C   UNL     1       0.753   2.629  20.874  0.00  0.00    +0.000 A 
ATOM      9  C   UNL     1       0.768   3.176  19.592  0.00  0.00    +0.000 A 
ATOM     10  C   UNL     1       1.832   4.000  19.149  0.00  0.00    +0.000 A 
BRANCH  10  11
ATOM     11  C   UNL     1       1.769   4.480  17.724  0.00  0.00    +0.000 C 
ATOM     12  F   UNL     1       2.700   3.931  16.894  0.00  0.00    +0.000 F 
ATOM     13  F   UNL     1       0.562   4.221  17.143  0.00  0.00    +0.000 F 
ATOM     14  F   UNL     1       1.938   5.830  17.621  0.00  0.00    +0.000 F 
ENDBRANCH  10  11
ENDBRANCH   3   5
BRANCH   2  15
ATOM     15  C   UNL     1       6.261   5.565  18.835  0.00  0.00    +0.000 A 
ATOM     16  C   UNL     1       6.146   6.404  17.729  0.00  0.00    +0.000 A 
ATOM     17  C   UNL     1       7.171   7.303  17.469  0.00  0.00    +0.000 A 
ATOM     18  C   UNL     1       8.272   7.330  18.316  0.00  0.00    +0.000 A 
ATOM     19  C   UNL     1       8.298   6.462  19.402  0.00  0.00    +0.000 A 
ATOM     20  N   UNL     1       7.315   5.578  19.693  0.00  0.00    +0.000 NA
ENDBRANCH   2  15
TORSDOF 3
ENDMDL
MODEL 8
REMARK VINA RESULT:      -7.0      1.689      5.712
REMARK  Name = 
REMARK  3 active torsions:
REMARK  status: ('A' for Active; 'I' for Inactive)
REMARK    1  A    between atoms: C_2  and  C_14
REMARK    2  A    between atoms: N_3  and  C_4
REMARK    3  A    between atoms: C_9  and  C_10
REMARK                            x       y       z     vdW  Elec       q    Type
REMARK                         _______ _______ _______ _____ _____    ______ ____
ROOT
ATOM      1  O   UNL     1       5.546   3.391  19.074  0.00  0.00    +0.000 OA
ATOM      2  C   UNL     1       4.436   3.701  18.656  0.00  0.00    +0.000 C 
ATOM      3  N   UNL     1       4.159   4.289  17.427  0.00  0.00    +0.000 N 
ATOM      4  H   UNL     1       3.211   4.654  17.330  0.00  0.00    +0.000 HD
ENDROOT
BRANCH   3   5
ATOM      5  C   UNL     1       5.111   4.518  16.402  0.00  0.00    +0.000 A 
ATOM      6  C   UNL     1       5.251   3.594  15.351  0.00  0.00    +0.000 A 
ATOM      7  C   UNL     1       6.205   3.753  14.347  0.00  0.00    +0.000 A 
ATOM      8  C   UNL     1       7.030   4.863  14.353  0.00  0.00    +0.000 A 
ATOM      9  C   UNL     1       6.884   5.816  15.360  0.00  0.00    +0.000 A 
ATOM     10  C   UNL     1       5.929   5.663  16.395  0.00  0.00    +0.000 A 
BRANCH  10  11
ATOM     11  C   UNL     1       5.908   6.725  17.461  0.00  0.00    +0.000 C 
ATOM     12  F   UNL     1       4.674   7.231  17.739  0.00  0.00    +0.000 F 
ATOM     13  F   UNL     1       6.396   6.272  18.652  0.00  0.00    +0.000 F 
ATOM     14  F   UNL     1       6.681   7.802  17.139  0.00  0.00    +0.000 F 
ENDBRANCH  10  11
ENDBRANCH   3   5
BRANCH   2  15
ATOM     15  C   UNL     1       3.260   3.464  19.546  0.00  0.00    +0.000 A 
ATOM     16  C   UNL     1       2.040   4.042  19.199  0.00  0.00    +0.000 A 
ATOM     17  C   UNL     1       0.957   3.866  20.049  0.00  0.00    +0.000 A 
ATOM     18  C   UNL     1       1.130   3.127  21.213  0.00  0.00    +0.000 A 
ATOM     19  C   UNL     1       2.381   2.579  21.475  0.00  0.00    +0.000 A 
ATOM     20  N   UNL     1       3.458   2.721  20.666  0.00  0.00    +0.000 NA
ENDBRANCH   2  15
TORSDOF 3
ENDMDL
MODEL 9
REMARK VINA RESULT:      -7.0      3.368      6.432
REMARK  Name = 
REMARK  3 active torsions:
REMARK  status: ('A' for Active; 'I' for Inactive)
REMARK    1  A    between atoms: C_2  and  C_14
REMARK    2  A    between atoms: N_3  and  C_4
REMARK    3  A    between atoms: C_9  and  C_10
REMARK                            x       y       z     vdW  Elec       q    Type
REMARK                         _______ _______ _______ _____ _____    ______ ____
ROOT
ATOM      1  O   UNL     1       2.410   8.598  17.258  0.00  0.00    +0.000 OA
ATOM      2  C   UNL     1       2.332   8.021  18.337  0.00  0.00    +0.000 C 
ATOM      3  N   UNL     1       2.911   6.798  18.655  0.00  0.00    +0.000 N 
ATOM      4  H   UNL     1       2.580   6.378  19.524  0.00  0.00    +0.000 HD
ENDROOT
BRANCH   3   5
ATOM      5  C   UNL     1       3.792   6.072  17.813  0.00  0.00    +0.000 A 
ATOM      6  C   UNL     1       4.995   6.659  17.380  0.00  0.00    +0.000 A 
ATOM      7  C   UNL     1       5.869   6.003  16.515  0.00  0.00    +0.000 A 
ATOM      8  C   UNL     1       5.575   4.723  16.082  0.00  0.00    +0.000 A 
ATOM      9  C   UNL     1       4.410   4.102  16.529  0.00  0.00    +0.000 A 
ATOM     10  C   UNL     1       3.505   4.759  17.397  0.00  0.00    +0.000 A 
BRANCH  10  11
ATOM     11  C   UNL     1       2.250   4.012  17.761  0.00  0.00    +0.000 C 
ATOM     12  F   UNL     1       1.095   4.587  17.324  0.00  0.00    +0.000 F 
ATOM     13  F   UNL     1       2.241   2.743  17.260  0.00  0.00    +0.000 F 
ATOM     14  F   UNL     1       2.101   3.870  19.110  0.00  0.00    +0.000 F 
ENDBRANCH  10  11
ENDBRANCH   3   5
BRANCH   2  15
ATOM     15  C   UNL     1       1.515   8.655  19.414  0.00  0.00    +0.000 A 
ATOM     16  C   UNL     1       1.544   8.088  20.687  0.00  0.00    +0.000 A 
ATOM     17  C   UNL     1       0.748   8.645  21.679  0.00  0.00    +0.000 A 
ATOM     18  C   UNL     1      -0.049   9.740  21.366  0.00  0.00    +0.000 A 
ATOM     19  C   UNL     1      -0.007  10.245  20.072  0.00  0.00    +0.000 A 
ATOM     20  N   UNL     1       0.762   9.736  19.080  0.00  0.00    +0.000 NA
ENDBRANCH   2  15
TORSDOF 3
ENDMDL
