MODEL 1
REMARK VINA RESULT:      -7.6      0.000      0.000
REMARK  Name = 
REMARK  4 active torsions:
REMARK  status: ('A' for Active; 'I' for Inactive)
REMARK    1  A    between atoms: C_2  and  C_3
REMARK    2  A    between atoms: C_2  and  C_8
REMARK    3  A    between atoms: C_9  and  C_10
REMARK    4  A    between atoms: C_13  and  N_14
REMARK                            x       y       z     vdW  Elec       q    Type
REMARK                         _______ _______ _______ _____ _____    ______ ____
ROOT
ATOM      1  C   UNL     1      -0.800  11.557  20.193  0.00  0.00    +0.000 C 
ATOM      2  C   UNL     1       0.705  11.560  19.816  0.00  0.00    +0.000 C 
ATOM      3  C   UNL     1       1.424  12.292  20.972  0.00  0.00    +0.000 C 
ATOM      4  C   UNL     1       2.506  13.255  20.493  0.00  0.00    +0.000 C 
ATOM      5  C   UNL     1       1.702  14.432  19.987  0.00  0.00    +0.000 C 
ATOM      6  C   UNL     1       0.547  14.502  20.973  0.00  0.00    +0.000 C 
ATOM      7  N   UNL     1       0.402  13.176  21.594  0.00  0.00    +0.000 NA
ATOM      8  C   UNL     1      -0.903  12.467  21.441  0.00  0.00    +0.000 C 
ATOM      9  C   UNL     1      -0.991  11.438  22.675  0.00  0.00    +0.000 C 
ATOM     10  O   UNL     1      -0.207  10.548  22.973  0.00  0.00    +0.000 OA
ATOM     11  N   UNL     1      -2.155  11.685  23.374  0.00  0.00    +0.000 N 
ATOM     12  C   UNL     1      -2.823  12.775  22.863  0.00  0.00    +0.000 A 
ATOM     13  C   UNL     1      -3.963  13.339  23.409  0.00  0.00    +0.000 A 
ATOM     14  C   UNL     1      -4.460  14.494  22.813  0.00  0.00    +0.000 A 
ATOM     15  C   UNL     1      -3.839  15.019  21.675  0.00  0.00    +0.000 A 
ATOM     16  C   UNL     1      -2.716  14.393  21.115  0.00  0.00    +0.000 A 
ATOM     17  C   UNL     1      -2.170  13.274  21.733  0.00  0.00    +0.000 A 
ATOM     18  H   UNL     1      -2.412  11.167  24.200  0.00  0.00    +0.000 HD
ENDROOT
BRANCH   2  19
ATOM     19  C   UNL     1       1.291  10.196  19.477  0.00  0.00    +0.000 A 
ATOM     20  C   UNL     1       1.814   9.976  18.191  0.00  0.00    +0.000 A 
ATOM     21  C   UNL     1       2.303   8.720  17.816  0.00  0.00    +0.000 A 
ATOM     22  C   UNL     1       2.269   7.670  18.740  0.00  0.00    +0.000 A 
ATOM     23  C   UNL     1       1.791   7.882  20.034  0.00  0.00    +0.000 A 
ATOM     24  C   UNL     1       1.312   9.142  20.399  0.00  0.00    +0.000 A 
BRANCH  22  25
ATOM     25  N   UNL     1       2.727   6.333  18.343  0.00  0.00    +0.000 N 
ATOM     26  O   UNL     1       2.171   5.356  18.865  0.00  0.00    +0.000 OA
ATOM     27  O   UNL     1       3.660   6.258  17.529  0.00  0.00    +0.000 OA
ENDBRANCH  22  25
ENDBRANCH   2  19
BRANCH   1  29
ATOM     28  O   UNL     1      -1.131  13.029  18.354  0.00  0.00    +0.000 OA
ATOM     29  C   UNL     1      -1.585  12.078  18.998  0.00  0.00    +0.000 C 
BRANCH  29  30
ATOM     30  C   UNL     1      -2.802  11.408  18.536  0.00  0.00    +0.000 A 
ATOM     31  C   UNL     1      -2.825  10.219  17.824  0.00  0.00    +0.000 A 
ATOM     32  C   UNL     1      -4.140   9.776  17.521  0.00  0.00    +0.000 A 
ATOM     33  C   UNL     1      -5.093  10.647  17.997  0.00  0.00    +0.000 A 
ATOM     34  S   UNL     1      -4.390  11.980  18.808  0.00  0.00    +0.000 S 
ENDBRANCH  29  30
ENDBRANCH   1  29
TORSDOF 4
ENDMDL
MODEL 2
REMARK VINA RESULT:      -6.8      7.104     11.173
REMARK  Name = 
REMARK  4 active torsions:
REMARK  status: ('A' for Active; 'I' for Inactive)
REMARK    1  A    between atoms: C_2  and  C_3
REMARK    2  A    between atoms: C_2  and  C_8
REMARK    3  A    between atoms: C_9  and  C_10
REMARK    4  A    between atoms: C_13  and  N_14
REMARK                            x       y       z     vdW  Elec       q    Type
REMARK                         _______ _______ _______ _____ _____    ______ ____
ROOT
ATOM      1  C   UNL     1       7.700  14.589  19.966  0.00  0.00    +0.000 C 
ATOM      2  C   UNL     1       7.188  16.030  19.704  0.00  0.00    +0.000 C 
ATOM      3  C   UNL     1       7.838  16.469  18.373  0.00  0.00    +0.000 C 
ATOM      4  C   UNL     1       8.340  17.910  18.395  0.00  0.00    +0.000 C 
ATOM      5  C   UNL     1       9.611  17.805  19.207  0.00  0.00    +0.000 C 
ATOM      6  C   UNL     1      10.181  16.464  18.771  0.00  0.00    +0.000 C 
ATOM      7  N   UNL     1       9.075  15.656  18.234  0.00  0.00    +0.000 NA
ATOM      8  C   UNL     1       8.781  14.345  18.885  0.00  0.00    +0.000 C 
ATOM      9  C   UNL     1       8.033  13.459  17.770  0.00  0.00    +0.000 C 
ATOM     10  O   UNL     1       7.004  13.722  17.162  0.00  0.00    +0.000 OA
ATOM     11  N   UNL     1       8.727  12.278  17.605  0.00  0.00    +0.000 N 
ATOM     12  C   UNL     1       9.875  12.263  18.365  0.00  0.00    +0.000 A 
ATOM     13  C   UNL     1      10.836  11.267  18.337  0.00  0.00    +0.000 A 
ATOM     14  C   UNL     1      11.980  11.453  19.107  0.00  0.00    +0.000 A 
ATOM     15  C   UNL     1      12.107  12.592  19.909  0.00  0.00    +0.000 A 
ATOM     16  C   UNL     1      11.091  13.557  19.956  0.00  0.00    +0.000 A 
ATOM     17  C   UNL     1       9.970  13.418  19.146  0.00  0.00    +0.000 A 
ATOM     18  H   UNL     1       8.447  11.572  16.942  0.00  0.00    +0.000 HD
ENDROOT
BRANCH   2  19
ATOM     19  C   UNL     1       5.675  16.198  19.750  0.00  0.00    +0.000 A 
ATOM     20  C   UNL     1       5.021  16.183  20.994  0.00  0.00    +0.000 A 
ATOM     21  C   UNL     1       3.628  16.269  21.077  0.00  0.00    +0.000 A 
ATOM     22  C   UNL     1       2.877  16.373  19.901  0.00  0.00    +0.000 A 
ATOM     23  C   UNL     1       3.513  16.432  18.660  0.00  0.00    +0.000 A 
ATOM     24  C   UNL     1       4.905  16.351  18.590  0.00  0.00    +0.000 A 
BRANCH  22  25
ATOM     25  N   UNL     1       1.411  16.409  19.970  0.00  0.00    +0.000 N 
ATOM     26  O   UNL     1       0.875  17.496  20.225  0.00  0.00    +0.000 OA
ATOM     27  O   UNL     1       0.796  15.346  19.796  0.00  0.00    +0.000 OA
ENDBRANCH  22  25
ENDBRANCH   2  19
BRANCH   1  29
ATOM     28  O   UNL     1       8.904  15.487  21.811  0.00  0.00    +0.000 OA
ATOM     29  C   UNL     1       8.242  14.534  21.387  0.00  0.00    +0.000 C 
BRANCH  29  30
ATOM     30  C   UNL     1       7.905  13.431  22.289  0.00  0.00    +0.000 A 
ATOM     31  C   UNL     1       8.748  12.373  22.588  0.00  0.00    +0.000 A 
ATOM     32  C   UNL     1       8.182  11.453  23.510  0.00  0.00    +0.000 A 
ATOM     33  C   UNL     1       6.911  11.824  23.884  0.00  0.00    +0.000 A 
ATOM     34  S   UNL     1       6.422  13.278  23.125  0.00  0.00    +0.000 S 
ENDBRANCH  29  30
ENDBRANCH   1  29
TORSDOF 4
ENDMDL
MODEL 3
REMARK VINA RESULT:      -6.7      3.159      6.660
REMARK  Name = 
REMARK  4 active torsions:
REMARK  status: ('A' for Active; 'I' for Inactive)
REMARK    1  A    between atoms: C_2  and  C_3
REMARK    2  A    between atoms: C_2  and  C_8
REMARK    3  A    between atoms: C_9  and  C_10
REMARK    4  A    between atoms: C_13  and  N_14
REMARK                            x       y       z     vdW  Elec       q    Type
REMARK                         _______ _______ _______ _____ _____    ______ ____
ROOT
ATOM      1  C   UNL     1      -1.003  13.369  20.560  0.00  0.00    +0.000 C 
ATOM      2  C   UNL     1      -1.715  12.209  21.305  0.00  0.00    +0.000 C 
ATOM      3  C   UNL     1      -0.670  11.643  22.293  0.00  0.00    +0.000 C 
ATOM      4  C   UNL     1      -0.666  10.118  22.356  0.00  0.00    +0.000 C 
ATOM      5  C   UNL     1       0.046   9.736  21.078  0.00  0.00    +0.000 C 
ATOM      6  C   UNL     1       1.106  10.819  20.944  0.00  0.00    +0.000 C 
ATOM      7  N   UNL     1       0.660  11.986  21.722  0.00  0.00    +0.000 NA
ATOM      8  C   UNL     1       0.477  13.282  21.004  0.00  0.00    +0.000 C 
ATOM      9  C   UNL     1       0.624  14.428  22.123  0.00  0.00    +0.000 C 
ATOM     10  O   UNL     1      -0.026  14.568  23.150  0.00  0.00    +0.000 OA
ATOM     11  N   UNL     1       1.615  15.305  21.731  0.00  0.00    +0.000 N 
ATOM     12  C   UNL     1       2.224  14.883  20.570  0.00  0.00    +0.000 A 
ATOM     13  C   UNL     1       3.322  15.486  19.982  0.00  0.00    +0.000 A 
ATOM     14  C   UNL     1       3.865  14.878  18.855  0.00  0.00    +0.000 A 
ATOM     15  C   UNL     1       3.275  13.725  18.327  0.00  0.00    +0.000 A 
ATOM     16  C   UNL     1       2.131  13.168  18.916  0.00  0.00    +0.000 A 
ATOM     17  C   UNL     1       1.612  13.727  20.078  0.00  0.00    +0.000 A 
ATOM     18  H   UNL     1       1.891  16.097  22.290  0.00  0.00    +0.000 HD
ENDROOT
BRANCH   2  19
ATOM     19  C   UNL     1      -3.049  12.571  21.943  0.00  0.00    +0.000 A 
ATOM     20  C   UNL     1      -3.194  12.466  23.337  0.00  0.00    +0.000 A 
ATOM     21  C   UNL     1      -4.420  12.726  23.957  0.00  0.00    +0.000 A 
ATOM     22  C   UNL     1      -5.518  13.097  23.172  0.00  0.00    +0.000 A 
ATOM     23  C   UNL     1      -5.381  13.247  21.792  0.00  0.00    +0.000 A 
ATOM     24  C   UNL     1      -4.150  12.990  21.184  0.00  0.00    +0.000 A 
BRANCH  22  25
ATOM     25  N   UNL     1      -6.825  13.320  23.803  0.00  0.00    +0.000 N 
ATOM     26  O   UNL     1      -7.152  14.489  24.050  0.00  0.00    +0.000 OA
ATOM     27  O   UNL     1      -7.514  12.325  24.075  0.00  0.00    +0.000 OA
ENDBRANCH  22  25
ENDBRANCH   2  19
BRANCH   1  29
ATOM     28  O   UNL     1      -0.869  14.060  18.288  0.00  0.00    +0.000 OA
ATOM     29  C   UNL     1      -1.201  13.160  19.066  0.00  0.00    +0.000 C 
BRANCH  29  30
ATOM     30  C   UNL     1      -1.672  11.881  18.532  0.00  0.00    +0.000 A 
ATOM     31  C   UNL     1      -0.848  10.830  18.163  0.00  0.00    +0.000 A 
ATOM     32  C   UNL     1      -1.565   9.695  17.698  0.00  0.00    +0.000 A 
ATOM     33  C   UNL     1      -2.923   9.912  17.710  0.00  0.00    +0.000 A 
ATOM     34  S   UNL     1      -3.315  11.475  18.288  0.00  0.00    +0.000 S 
ENDBRANCH  29  30
ENDBRANCH   1  29
TORSDOF 4
ENDMDL
MODEL 4
REMARK VINA RESULT:      -6.7      7.744      9.896
REMARK  Name = 
REMARK  4 active torsions:
REMARK  status: ('A' for Active; 'I' for Inactive)
REMARK    1  A    between atoms: C_2  and  C_3
REMARK    2  A    between atoms: C_2  and  C_8
REMARK    3  A    between atoms: C_9  and  C_10
REMARK    4  A    between atoms: C_13  and  N_14
REMARK                            x       y       z     vdW  Elec       q    Type
REMARK                         _______ _______ _______ _____ _____    ______ ____
ROOT
ATOM      1  C   UNL     1       8.670  14.129  19.898  0.00  0.00    +0.000 C 
ATOM      2  C   UNL     1       9.773  13.248  19.255  0.00  0.00    +0.000 C 
ATOM      3  C   UNL     1      10.976  13.312  20.221  0.00  0.00    +0.000 C 
ATOM      4  C   UNL     1      12.316  13.455  19.504  0.00  0.00    +0.000 C 
ATOM      5  C   UNL     1      12.318  14.910  19.093  0.00  0.00    +0.000 C 
ATOM      6  C   UNL     1      11.638  15.595  20.268  0.00  0.00    +0.000 C 
ATOM      7  N   UNL     1      10.829  14.588  20.972  0.00  0.00    +0.000 NA
ATOM      8  C   UNL     1       9.361  14.825  21.095  0.00  0.00    +0.000 C 
ATOM      9  C   UNL     1       8.884  13.976  22.376  0.00  0.00    +0.000 C 
ATOM     10  O   UNL     1       9.004  12.774  22.572  0.00  0.00    +0.000 OA
ATOM     11  N   UNL     1       8.254  14.827  23.261  0.00  0.00    +0.000 N 
ATOM     12  C   UNL     1       8.308  16.131  22.825  0.00  0.00    +0.000 A 
ATOM     13  C   UNL     1       7.863  17.230  23.539  0.00  0.00    +0.000 A 
ATOM     14  C   UNL     1       8.074  18.488  22.984  0.00  0.00    +0.000 A 
ATOM     15  C   UNL     1       8.673  18.609  21.726  0.00  0.00    +0.000 A 
ATOM     16  C   UNL     1       9.066  17.473  21.005  0.00  0.00    +0.000 A 
ATOM     17  C   UNL     1       8.919  16.212  21.570  0.00  0.00    +0.000 A 
ATOM     18  H   UNL     1       7.886  14.514  24.146  0.00  0.00    +0.000 HD
ENDROOT
BRANCH   2  19
ATOM     19  C   UNL     1       9.340  11.835  18.885  0.00  0.00    +0.000 A 
ATOM     20  C   UNL     1       8.540  11.639  17.746  0.00  0.00    +0.000 A 
ATOM     21  C   UNL     1       8.067  10.368  17.406  0.00  0.00    +0.000 A 
ATOM     22  C   UNL     1       8.398   9.276  18.217  0.00  0.00    +0.000 A 
ATOM     23  C   UNL     1       9.225   9.446  19.327  0.00  0.00    +0.000 A 
ATOM     24  C   UNL     1       9.697  10.719  19.653  0.00  0.00    +0.000 A 
BRANCH  22  25
ATOM     25  N   UNL     1       7.863   7.945  17.903  0.00  0.00    +0.000 N 
ATOM     26  O   UNL     1       7.120   7.842  16.917  0.00  0.00    +0.000 OA
ATOM     27  O   UNL     1       8.164   7.007  18.657  0.00  0.00    +0.000 OA
ENDBRANCH  22  25
ENDBRANCH   2  19
BRANCH   1  29
ATOM     28  O   UNL     1       8.984  15.628  18.078  0.00  0.00    +0.000 OA
ATOM     29  C   UNL     1       8.167  15.100  18.840  0.00  0.00    +0.000 C 
BRANCH  29  30
ATOM     30  C   UNL     1       6.737  15.336  18.640  0.00  0.00    +0.000 A 
ATOM     31  C   UNL     1       5.930  14.600  17.787  0.00  0.00    +0.000 A 
ATOM     32  C   UNL     1       4.573  15.022  17.800  0.00  0.00    +0.000 A 
ATOM     33  C   UNL     1       4.379  16.083  18.654  0.00  0.00    +0.000 A 
ATOM     34  S   UNL     1       5.830  16.548  19.433  0.00  0.00    +0.000 S 
ENDBRANCH  29  30
ENDBRANCH   1  29
TORSDOF 4
ENDMDL
MODEL 5
REMARK VINA RESULT:      -6.6      2.346      3.501
REMARK  Name = 
REMARK  4 active torsions:
REMARK  status: ('A' for Active; 'I' for Inactive)
REMARK    1  A    between atoms: C_2  and  C_3
REMARK    2  A    between atoms: C_2  and  C_8
REMARK    3  A    between atoms: C_9  and  C_10
REMARK    4  A    between atoms: C_13  and  N_14
REMARK                            x       y       z     vdW  Elec       q    Type
REMARK                         _______ _______ _______ _____ _____    ______ ____
ROOT
ATOM      1  C   UNL     1      -3.311  12.811  21.832  0.00  0.00    +0.000 C 
ATOM      2  C   UNL     1      -1.779  13.054  21.872  0.00  0.00    +0.000 C 
ATOM      3  C   UNL     1      -1.489  13.664  23.261  0.00  0.00    +0.000 C 
ATOM      4  C   UNL     1      -0.487  14.814  23.216  0.00  0.00    +0.000 C 
ATOM      5  C   UNL     1      -1.318  15.955  22.672  0.00  0.00    +0.000 C 
ATOM      6  C   UNL     1      -2.675  15.724  23.318  0.00  0.00    +0.000 C 
ATOM      7  N   UNL     1      -2.757  14.305  23.699  0.00  0.00    +0.000 NA
ATOM      8  C   UNL     1      -3.857  13.482  23.116  0.00  0.00    +0.000 C 
ATOM      9  C   UNL     1      -4.081  12.259  24.137  0.00  0.00    +0.000 C 
ATOM     10  O   UNL     1      -3.264  11.431  24.514  0.00  0.00    +0.000 OA
ATOM     11  N   UNL     1      -5.405  12.247  24.529  0.00  0.00    +0.000 N 
ATOM     12  C   UNL     1      -6.090  13.320  24.005  0.00  0.00    +0.000 A 
ATOM     13  C   UNL     1      -7.403  13.647  24.298  0.00  0.00    +0.000 A 
ATOM     14  C   UNL     1      -7.914  14.818  23.747  0.00  0.00    +0.000 A 
ATOM     15  C   UNL     1      -7.125  15.594  22.892  0.00  0.00    +0.000 A 
ATOM     16  C   UNL     1      -5.815  15.207  22.573  0.00  0.00    +0.000 A 
ATOM     17  C   UNL     1      -5.268  14.074  23.163  0.00  0.00    +0.000 A 
ATOM     18  H   UNL     1      -5.771  11.573  25.183  0.00  0.00    +0.000 HD
ENDROOT
BRANCH   2  19
ATOM     19  C   UNL     1      -0.922  11.845  21.525  0.00  0.00    +0.000 A 
ATOM     20  C   UNL     1      -0.309  11.778  20.262  0.00  0.00    +0.000 A 
ATOM     21  C   UNL     1       0.434  10.657  19.878  0.00  0.00    +0.000 A 
ATOM     22  C   UNL     1       0.567   9.587  20.771  0.00  0.00    +0.000 A 
ATOM     23  C   UNL     1       0.001   9.655  22.044  0.00  0.00    +0.000 A 
ATOM     24  C   UNL     1      -0.733  10.782  22.418  0.00  0.00    +0.000 A 
BRANCH  22  25
ATOM     25  N   UNL     1       1.297   8.381  20.361  0.00  0.00    +0.000 N 
ATOM     26  O   UNL     1       1.788   8.366  19.223  0.00  0.00    +0.000 OA
ATOM     27  O   UNL     1       1.359   7.439  21.165  0.00  0.00    +0.000 OA
ENDBRANCH  22  25
ENDBRANCH   2  19
BRANCH   1  29
ATOM     28  O   UNL     1      -3.429  14.530  20.192  0.00  0.00    +0.000 OA
ATOM     29  C   UNL     1      -3.852  13.426  20.550  0.00  0.00    +0.000 C 
BRANCH  29  30
ATOM     30  C   UNL     1      -4.775  12.691  19.683  0.00  0.00    +0.000 A 
ATOM     31  C   UNL     1      -6.157  12.781  19.749  0.00  0.00    +0.000 A 
ATOM     32  C   UNL     1      -6.815  11.981  18.777  0.00  0.00    +0.000 A 
ATOM     33  C   UNL     1      -5.918  11.287  17.998  0.00  0.00    +0.000 A 
ATOM     34  S   UNL     1      -4.299  11.614  18.445  0.00  0.00    +0.000 S 
ENDBRANCH  29  30
ENDBRANCH   1  29
TORSDOF 4
ENDMDL
MODEL 6
REMARK VINA RESULT:      -6.6      2.383      3.496
REMARK  Name = 
REMARK  4 active torsions:
REMARK  status: ('A' for Active; 'I' for Inactive)
REMARK    1  A    between atoms: C_2  and  C_3
REMARK    2  A    between atoms: C_2  and  C_8
REMARK    3  A    between atoms: C_9  and  C_10
REMARK    4  A    between atoms: C_13  and  N_14
REMARK                            x       y       z     vdW  Elec       q    Type
REMARK                         _______ _______ _______ _____ _____    ______ ____
ROOT
ATOM      1  C   UNL     1      -3.498  12.870  21.623  0.00  0.00    +0.000 C 
ATOM      2  C   UNL     1      -1.965  13.101  21.558  0.00  0.00    +0.000 C 
ATOM      3  C   UNL     1      -1.560  13.614  22.958  0.00  0.00    +0.000 C 
ATOM      4  C   UNL     1      -0.552  14.759  22.910  0.00  0.00    +0.000 C 
ATOM      5  C   UNL     1      -1.410  15.938  22.512  0.00  0.00    +0.000 C 
ATOM      6  C   UNL     1      -2.715  15.672  23.246  0.00  0.00    +0.000 C 
ATOM      7  N   UNL     1      -2.783  14.231  23.537  0.00  0.00    +0.000 NA
ATOM      8  C   UNL     1      -3.934  13.456  22.988  0.00  0.00    +0.000 C 
ATOM      9  C   UNL     1      -4.091  12.169  23.940  0.00  0.00    +0.000 C 
ATOM     10  O   UNL     1      -3.256  11.312  24.194  0.00  0.00    +0.000 OA
ATOM     11  N   UNL     1      -5.380  12.138  24.433  0.00  0.00    +0.000 N 
ATOM     12  C   UNL     1      -6.092  13.248  24.038  0.00  0.00    +0.000 A 
ATOM     13  C   UNL     1      -7.374  13.562  24.456  0.00  0.00    +0.000 A 
ATOM     14  C   UNL     1      -7.914  14.770  24.026  0.00  0.00    +0.000 A 
ATOM     15  C   UNL     1      -7.185  15.598  23.165  0.00  0.00    +0.000 A 
ATOM     16  C   UNL     1      -5.909  15.226  22.719  0.00  0.00    +0.000 A 
ATOM     17  C   UNL     1      -5.330  14.052  23.186  0.00  0.00    +0.000 A 
ATOM     18  H   UNL     1      -5.701  11.423  25.067  0.00  0.00    +0.000 HD
ENDROOT
BRANCH   2  19
ATOM     19  C   UNL     1      -1.151  11.913  21.064  0.00  0.00    +0.000 A 
ATOM     20  C   UNL     1      -0.497  11.094  22.001  0.00  0.00    +0.000 A 
ATOM     21  C   UNL     1       0.313  10.031  21.588  0.00  0.00    +0.000 A 
ATOM     22  C   UNL     1       0.471   9.782  20.220  0.00  0.00    +0.000 A 
ATOM     23  C   UNL     1      -0.205  10.559  19.279  0.00  0.00    +0.000 A 
ATOM     24  C   UNL     1      -1.016  11.614  19.702  0.00  0.00    +0.000 A 
BRANCH  22  25
ATOM     25  N   UNL     1       1.362   8.705  19.772  0.00  0.00    +0.000 N 
ATOM     26  O   UNL     1       1.625   7.804  20.580  0.00  0.00    +0.000 OA
ATOM     27  O   UNL     1       1.819   8.772  18.621  0.00  0.00    +0.000 OA
ENDBRANCH  22  25
ENDBRANCH   2  19
BRANCH   1  29
ATOM     28  O   UNL     1      -3.814  14.743  20.191  0.00  0.00    +0.000 OA
ATOM     29  C   UNL     1      -4.131  13.574  20.431  0.00  0.00    +0.000 C 
BRANCH  29  30
ATOM     30  C   UNL     1      -5.018  12.862  19.510  0.00  0.00    +0.000 A 
ATOM     31  C   UNL     1      -4.667  11.727  18.797  0.00  0.00    +0.000 A 
ATOM     32  C   UNL     1      -5.724  11.223  17.994  0.00  0.00    +0.000 A 
ATOM     33  C   UNL     1      -6.857  11.996  18.101  0.00  0.00    +0.000 A 
ATOM     34  S   UNL     1      -6.633  13.311  19.173  0.00  0.00    +0.000 S 
ENDBRANCH  29  30
ENDBRANCH   1  29
TORSDOF 4
ENDMDL
MODEL 7
REMARK VINA RESULT:      -6.5      2.352      3.473
REMARK  Name = 
REMARK  4 active torsions:
REMARK  status: ('A' for Active; 'I' for Inactive)
REMARK    1  A    between atoms: C_2  and  C_3
REMARK    2  A    between atoms: C_2  and  C_8
REMARK    3  A    between atoms: C_9  and  C_10
REMARK    4  A    between atoms: C_13  and  N_14
REMARK                            x       y       z     vdW  Elec       q    Type
REMARK                         _______ _______ _______ _____ _____    ______ ____
ROOT
ATOM      1  C   UNL     1      -3.497  13.022  21.300  0.00  0.00    +0.000 C 
ATOM      2  C   UNL     1      -2.064  13.558  21.038  0.00  0.00    +0.000 C 
ATOM      3  C   UNL     1      -1.597  14.175  22.375  0.00  0.00    +0.000 C 
ATOM      4  C   UNL     1      -0.858  15.499  22.200  0.00  0.00    +0.000 C 
ATOM      5  C   UNL     1      -1.983  16.470  21.919  0.00  0.00    +0.000 C 
ATOM      6  C   UNL     1      -3.102  15.963  22.814  0.00  0.00    +0.000 C 
ATOM      7  N   UNL     1      -2.837  14.545  23.108  0.00  0.00    +0.000 NA
ATOM      8  C   UNL     1      -3.866  13.540  22.711  0.00  0.00    +0.000 C 
ATOM      9  C   UNL     1      -3.634  12.271  23.672  0.00  0.00    +0.000 C 
ATOM     10  O   UNL     1      -2.617  11.607  23.815  0.00  0.00    +0.000 OA
ATOM     11  N   UNL     1      -4.816  11.991  24.328  0.00  0.00    +0.000 N 
ATOM     12  C   UNL     1      -5.784  12.924  24.032  0.00  0.00    +0.000 A 
ATOM     13  C   UNL     1      -7.040  12.982  24.612  0.00  0.00    +0.000 A 
ATOM     14  C   UNL     1      -7.865  14.045  24.258  0.00  0.00    +0.000 A 
ATOM     15  C   UNL     1      -7.436  14.982  23.313  0.00  0.00    +0.000 A 
ATOM     16  C   UNL     1      -6.179  14.866  22.704  0.00  0.00    +0.000 A 
ATOM     17  C   UNL     1      -5.317  13.845  23.090  0.00  0.00    +0.000 A 
ATOM     18  H   UNL     1      -4.902  11.242  24.997  0.00  0.00    +0.000 HD
ENDROOT
BRANCH   2  19
ATOM     19  C   UNL     1      -1.094  12.547  20.440  0.00  0.00    +0.000 A 
ATOM     20  C   UNL     1      -1.260  12.146  19.104  0.00  0.00    +0.000 A 
ATOM     21  C   UNL     1      -0.431  11.173  18.535  0.00  0.00    +0.000 A 
ATOM     22  C   UNL     1       0.578  10.594  19.312  0.00  0.00    +0.000 A 
ATOM     23  C   UNL     1       0.783  11.012  20.628  0.00  0.00    +0.000 A 
ATOM     24  C   UNL     1      -0.046  11.988  21.183  0.00  0.00    +0.000 A 
BRANCH  22  25
ATOM     25  N   UNL     1       1.419   9.532  18.745  0.00  0.00    +0.000 N 
ATOM     26  O   UNL     1       1.666   8.552  19.461  0.00  0.00    +0.000 OA
ATOM     27  O   UNL     1       1.853   9.690  17.595  0.00  0.00    +0.000 OA
ENDBRANCH  22  25
ENDBRANCH   2  19
BRANCH   1  29
ATOM     28  O   UNL     1      -4.363  14.756  19.921  0.00  0.00    +0.000 OA
ATOM     29  C   UNL     1      -4.406  13.554  20.202  0.00  0.00    +0.000 C 
BRANCH  29  30
ATOM     30  C   UNL     1      -5.244  12.656  19.406  0.00  0.00    +0.000 A 
ATOM     31  C   UNL     1      -4.828  12.002  18.258  0.00  0.00    +0.000 A 
ATOM     32  C   UNL     1      -5.833  11.172  17.693  0.00  0.00    +0.000 A 
ATOM     33  C   UNL     1      -7.001  11.222  18.418  0.00  0.00    +0.000 A 
ATOM     34  S   UNL     1      -6.867  12.262  19.771  0.00  0.00    +0.000 S 
ENDBRANCH  29  30
ENDBRANCH   1  29
TORSDOF 4
ENDMDL
MODEL 8
REMARK VINA RESULT:      -6.5      4.137      7.431
REMARK  Name = 
REMARK  4 active torsions:
REMARK  status: ('A' for Active; 'I' for Inactive)
REMARK    1  A    between atoms: C_2  and  C_3
REMARK    2  A    between atoms: C_2  and  C_8
REMARK    3  A    between atoms: C_9  and  C_10
REMARK    4  A    between atoms: C_13  and  N_14
REMARK                            x       y       z     vdW  Elec       q    Type
REMARK                         _______ _______ _______ _____ _____    ______ ____
ROOT
ATOM      1  C   UNL     1      -1.425  14.922  21.475  0.00  0.00    +0.000 C 
ATOM      2  C   UNL     1      -1.970  15.107  22.916  0.00  0.00    +0.000 C 
ATOM      3  C   UNL     1      -1.988  16.632  23.164  0.00  0.00    +0.000 C 
ATOM      4  C   UNL     1      -1.500  17.020  24.557  0.00  0.00    +0.000 C 
ATOM      5  C   UNL     1      -0.001  16.859  24.439  0.00  0.00    +0.000 C 
ATOM      6  C   UNL     1       0.280  17.331  23.021  0.00  0.00    +0.000 C 
ATOM      7  N   UNL     1      -0.967  17.207  22.249  0.00  0.00    +0.000 NA
ATOM      8  C   UNL     1      -0.961  16.333  21.039  0.00  0.00    +0.000 C 
ATOM      9  C   UNL     1      -2.153  16.871  20.103  0.00  0.00    +0.000 C 
ATOM     10  O   UNL     1      -3.340  16.980  20.379  0.00  0.00    +0.000 OA
ATOM     11  N   UNL     1      -1.635  17.179  18.861  0.00  0.00    +0.000 N 
ATOM     12  C   UNL     1      -0.268  17.021  18.836  0.00  0.00    +0.000 A 
ATOM     13  C   UNL     1       0.553  17.351  17.773  0.00  0.00    +0.000 A 
ATOM     14  C   UNL     1       1.926  17.207  17.949  0.00  0.00    +0.000 A 
ATOM     15  C   UNL     1       2.429  16.699  19.151  0.00  0.00    +0.000 A 
ATOM     16  C   UNL     1       1.566  16.324  20.190  0.00  0.00    +0.000 A 
ATOM     17  C   UNL     1       0.197  16.518  20.055  0.00  0.00    +0.000 A 
ATOM     18  H   UNL     1      -2.202  17.551  18.114  0.00  0.00    +0.000 HD
ENDROOT
BRANCH   2  19
ATOM     19  C   UNL     1      -3.292  14.408  23.203  0.00  0.00    +0.000 A 
ATOM     20  C   UNL     1      -4.490  15.007  22.777  0.00  0.00    +0.000 A 
ATOM     21  C   UNL     1      -5.730  14.433  23.075  0.00  0.00    +0.000 A 
ATOM     22  C   UNL     1      -5.774  13.242  23.810  0.00  0.00    +0.000 A 
ATOM     23  C   UNL     1      -4.593  12.613  24.204  0.00  0.00    +0.000 A 
ATOM     24  C   UNL     1      -3.360  13.193  23.895  0.00  0.00    +0.000 A 
BRANCH  22  25
ATOM     25  N   UNL     1      -7.069  12.658  24.178  0.00  0.00    +0.000 N 
ATOM     26  O   UNL     1      -7.916  13.410  24.680  0.00  0.00    +0.000 OA
ATOM     27  O   UNL     1      -7.232  11.443  23.989  0.00  0.00    +0.000 OA
ENDBRANCH  22  25
ENDBRANCH   2  19
BRANCH   1  29
ATOM     28  O   UNL     1       0.525  13.966  22.444  0.00  0.00    +0.000 OA
ATOM     29  C   UNL     1      -0.298  13.902  21.525  0.00  0.00    +0.000 C 
BRANCH  29  30
ATOM     30  C   UNL     1      -0.234  12.790  20.576  0.00  0.00    +0.000 A 
ATOM     31  C   UNL     1      -1.184  11.786  20.473  0.00  0.00    +0.000 A 
ATOM     32  C   UNL     1      -0.892  10.843  19.452  0.00  0.00    +0.000 A 
ATOM     33  C   UNL     1       0.286  11.142  18.806  0.00  0.00    +0.000 A 
ATOM     34  S   UNL     1       1.016  12.556  19.434  0.00  0.00    +0.000 S 
ENDBRANCH  29  30
ENDBRANCH   1  29
TORSDOF 4
ENDMDL
MODEL 9
REMARK VINA RESULT:      -6.5      8.053     11.113
REMARK  Name = 
REMARK  4 active torsions:
REMARK  status: ('A' for Active; 'I' for Inactive)
REMARK    1  A    between atoms: C_2  and  C_3
REMARK    2  A    between atoms: C_2  and  C_8
REMARK    3  A    between atoms: C_9  and  C_10
REMARK    4  A    between atoms: C_13  and  N_14
REMARK                            x       y       z     vdW  Elec       q    Type
REMARK                         _______ _______ _______ _____ _____    ______ ____
ROOT
ATOM      1  C   UNL     1       8.543  14.595  20.429  0.00  0.00    +0.000 C 
ATOM      2  C   UNL     1       8.691  13.136  20.937  0.00  0.00    +0.000 C 
ATOM      3  C   UNL     1      10.209  12.903  21.103  0.00  0.00    +0.000 C 
ATOM      4  C   UNL     1      10.665  11.533  20.608  0.00  0.00    +0.000 C 
ATOM      5  C   UNL     1      10.657  11.705  19.106  0.00  0.00    +0.000 C 
ATOM      6  C   UNL     1      11.135  13.137  18.926  0.00  0.00    +0.000 C 
ATOM      7  N   UNL     1      10.873  13.861  20.180  0.00  0.00    +0.000 NA
ATOM      8  C   UNL     1       9.988  15.062  20.128  0.00  0.00    +0.000 C 
ATOM      9  C   UNL     1      10.388  15.959  21.402  0.00  0.00    +0.000 C 
ATOM     10  O   UNL     1      10.379  15.639  22.583  0.00  0.00    +0.000 OA
ATOM     11  N   UNL     1      10.730  17.222  20.964  0.00  0.00    +0.000 N 
ATOM     12  C   UNL     1      10.713  17.296  19.589  0.00  0.00    +0.000 A 
ATOM     13  C   UNL     1      11.111  18.392  18.845  0.00  0.00    +0.000 A 
ATOM     14  C   UNL     1      11.110  18.266  17.459  0.00  0.00    +0.000 A 
ATOM     15  C   UNL     1      10.673  17.078  16.864  0.00  0.00    +0.000 A 
ATOM     16  C   UNL     1      10.226  16.004  17.645  0.00  0.00    +0.000 A 
ATOM     17  C   UNL     1      10.278  16.090  19.031  0.00  0.00    +0.000 A 
ATOM     18  H   UNL     1      11.032  17.951  21.592  0.00  0.00    +0.000 HD
ENDROOT
BRANCH   2  19
ATOM     19  C   UNL     1       7.865  12.793  22.170  0.00  0.00    +0.000 A 
ATOM     20  C   UNL     1       6.700  13.532  22.441  0.00  0.00    +0.000 A 
ATOM     21  C   UNL     1       5.947  13.293  23.596  0.00  0.00    +0.000 A 
ATOM     22  C   UNL     1       6.364  12.301  24.492  0.00  0.00    +0.000 A 
ATOM     23  C   UNL     1       7.494  11.531  24.216  0.00  0.00    +0.000 A 
ATOM     24  C   UNL     1       8.235  11.774  23.057  0.00  0.00    +0.000 A 
BRANCH  22  25
ATOM     25  N   UNL     1       5.615  12.078  25.734  0.00  0.00    +0.000 N 
ATOM     26  O   UNL     1       5.708  12.936  26.623  0.00  0.00    +0.000 OA
ATOM     27  O   UNL     1       4.954  11.033  25.832  0.00  0.00    +0.000 OA
ENDBRANCH  22  25
ENDBRANCH   2  19
BRANCH   1  29
ATOM     28  O   UNL     1       7.888  13.773  18.295  0.00  0.00    +0.000 OA
ATOM     29  C   UNL     1       7.644  14.576  19.201  0.00  0.00    +0.000 C 
BRANCH  29  30
ATOM     30  C   UNL     1       6.444  15.409  19.124  0.00  0.00    +0.000 A 
ATOM     31  C   UNL     1       6.207  16.525  19.912  0.00  0.00    +0.000 A 
ATOM     32  C   UNL     1       4.975  17.166  19.616  0.00  0.00    +0.000 A 
ATOM     33  C   UNL     1       4.291  16.515  18.615  0.00  0.00    +0.000 A 
ATOM     34  S   UNL     1       5.146  15.148  18.043  0.00  0.00    +0.000 S 
ENDBRANCH  29  30
ENDBRANCH   1  29
TORSDOF 4
ENDMDL
