MODEL 1
REMARK VINA RESULT:      -7.7      0.000      0.000
REMARK  Name = 
REMARK  10 active torsions:
REMARK  status: ('A' for Active; 'I' for Inactive)
REMARK    1  A    between atoms: C_1  and  C_2
REMARK    2  A    between atoms: C_5  and  C_6
REMARK    3  A    between atoms: C_6  and  C_8
REMARK    4  A    between atoms: C_8  and  S_9
REMARK    5  A    between atoms: S_9  and  C_10
REMARK    6  A    between atoms: C_12  and  C_13
REMARK    7  A    between atoms: C_15  and  S_16
REMARK    8  A    between atoms: S_16  and  C_17
REMARK    9  A    between atoms: C_17  and  C_18
REMARK   10  A    between atoms: C_18  and  C_20
REMARK                            x       y       z     vdW  Elec       q    Type
REMARK                         _______ _______ _______ _____ _____    ______ ____
ROOT
ATOM      1  C   UNL     1       2.503   6.451  19.803  0.00  0.00    +0.000 A 
ATOM      2  C   UNL     1       1.790   5.370  20.290  0.00  0.00    +0.000 A 
ATOM      3  C   UNL     1       2.430   4.156  20.293  0.00  0.00    +0.000 A 
ATOM      4  C   UNL     1       1.757   2.919  20.809  0.00  0.00    +0.000 C 
ATOM      5  N   UNL     1       3.683   4.021  19.834  0.00  0.00    +0.000 NA
ATOM      6  C   UNL     1       4.310   5.129  19.396  0.00  0.00    +0.000 A 
ATOM      7  N   UNL     1       3.768   6.364  19.346  0.00  0.00    +0.000 NA
ENDROOT
BRANCH   1   8
ATOM      8  S   UNL     1       1.638   8.019  19.819  0.00  0.00    +0.000 S 
BRANCH   8   9
ATOM      9  C   UNL     1       1.857   8.621  18.119  0.00  0.00    +0.000 C 
BRANCH   9  10
ATOM     10  C   UNL     1       1.532  10.108  18.094  0.00  0.00    +0.000 C 
ATOM     11  O   UNL     1       2.415  10.947  17.895  0.00  0.00    +0.000 OA
BRANCH  10  16
ATOM     12  C   UNL     1      -3.996  11.828  18.756  0.00  0.00    +0.000 C 
ATOM     13  C   UNL     1      -2.572  11.390  18.578  0.00  0.00    +0.000 A 
ATOM     14  C   UNL     1      -2.233  10.379  17.675  0.00  0.00    +0.000 A 
ATOM     15  C   UNL     1      -0.899   9.977  17.531  0.00  0.00    +0.000 A 
ATOM     16  C   UNL     1       0.119  10.579  18.289  0.00  0.00    +0.000 A 
ATOM     17  C   UNL     1      -0.225  11.585  19.196  0.00  0.00    +0.000 A 
ATOM     18  C   UNL     1      -1.558  11.988  19.335  0.00  0.00    +0.000 A 
ENDBRANCH  10  16
ENDBRANCH   9  10
ENDBRANCH   8   9
ENDBRANCH   1   8
BRANCH   6  19
ATOM     19  S   UNL     1       5.936   4.843  18.740  0.00  0.00    +0.000 S 
BRANCH  19  20
ATOM     20  C   UNL     1       5.581   4.606  16.980  0.00  0.00    +0.000 C 
BRANCH  20  21
ATOM     21  C   UNL     1       6.593   5.250  16.050  0.00  0.00    +0.000 C 
ATOM     22  O   UNL     1       7.372   6.143  16.372  0.00  0.00    +0.000 OA
BRANCH  21  23
ATOM     23  C   UNL     1       6.617   4.789  14.632  0.00  0.00    +0.000 A 
ATOM     24  C   UNL     1       7.601   5.324  13.788  0.00  0.00    +0.000 A 
ATOM     25  C   UNL     1       7.684   4.916  12.457  0.00  0.00    +0.000 A 
ATOM     26  C   UNL     1       6.794   3.962  11.966  0.00  0.00    +0.000 A 
ATOM     27  C   UNL     1       5.820   3.418  12.804  0.00  0.00    +0.000 A 
ATOM     28  C   UNL     1       5.726   3.831  14.136  0.00  0.00    +0.000 A 
ENDBRANCH  21  23
ENDBRANCH  20  21
ENDBRANCH  19  20
ENDBRANCH   6  19
TORSDOF 8
ENDMDL
MODEL 2
REMARK VINA RESULT:      -7.7      0.996      1.646
REMARK  Name = 
REMARK  10 active torsions:
REMARK  status: ('A' for Active; 'I' for Inactive)
REMARK    1  A    between atoms: C_1  and  C_2
REMARK    2  A    between atoms: C_5  and  C_6
REMARK    3  A    between atoms: C_6  and  C_8
REMARK    4  A    between atoms: C_8  and  S_9
REMARK    5  A    between atoms: S_9  and  C_10
REMARK    6  A    between atoms: C_12  and  C_13
REMARK    7  A    between atoms: C_15  and  S_16
REMARK    8  A    between atoms: S_16  and  C_17
REMARK    9  A    between atoms: C_17  and  C_18
REMARK   10  A    between atoms: C_18  and  C_20
REMARK                            x       y       z     vdW  Elec       q    Type
REMARK                         _______ _______ _______ _____ _____    ______ ____
ROOT
ATOM      1  C   UNL     1       2.372   6.405  19.710  0.00  0.00    +0.000 A 
ATOM      2  C   UNL     1       1.999   5.442  20.631  0.00  0.00    +0.000 A 
ATOM      3  C   UNL     1       2.357   4.146  20.353  0.00  0.00    +0.000 A 
ATOM      4  C   UNL     1       2.016   3.023  21.286  0.00  0.00    +0.000 C 
ATOM      5  N   UNL     1       3.026   3.827  19.235  0.00  0.00    +0.000 NA
ATOM      6  C   UNL     1       3.366   4.830  18.403  0.00  0.00    +0.000 A 
ATOM      7  N   UNL     1       3.056   6.131  18.582  0.00  0.00    +0.000 NA
ENDROOT
BRANCH   1   8
ATOM      8  S   UNL     1       1.891   8.084  20.109  0.00  0.00    +0.000 S 
BRANCH   8   9
ATOM      9  C   UNL     1       1.423   8.767  18.492  0.00  0.00    +0.000 C 
BRANCH   9  10
ATOM     10  C   UNL     1       0.793  10.135  18.716  0.00  0.00    +0.000 C 
ATOM     11  O   UNL     1       1.438  11.053  19.228  0.00  0.00    +0.000 OA
BRANCH  10  16
ATOM     12  C   UNL     1      -4.710  11.268  17.171  0.00  0.00    +0.000 C 
ATOM     13  C   UNL     1      -3.296  10.972  17.576  0.00  0.00    +0.000 A 
ATOM     14  C   UNL     1      -2.649  11.730  18.556  0.00  0.00    +0.000 A 
ATOM     15  C   UNL     1      -1.326  11.443  18.914  0.00  0.00    +0.000 A 
ATOM     16  C   UNL     1      -0.625  10.395  18.294  0.00  0.00    +0.000 A 
ATOM     17  C   UNL     1      -1.273   9.644  17.309  0.00  0.00    +0.000 A 
ATOM     18  C   UNL     1      -2.597   9.929  16.958  0.00  0.00    +0.000 A 
ENDBRANCH  10  16
ENDBRANCH   9  10
ENDBRANCH   8   9
ENDBRANCH   1   8
BRANCH   6  19
ATOM     19  S   UNL     1       4.184   4.305  16.916  0.00  0.00    +0.000 S 
BRANCH  19  20
ATOM     20  C   UNL     1       5.621   5.408  16.884  0.00  0.00    +0.000 C 
BRANCH  20  21
ATOM     21  C   UNL     1       6.873   4.778  16.300  0.00  0.00    +0.000 C 
ATOM     22  O   UNL     1       7.845   4.415  16.954  0.00  0.00    +0.000 OA
BRANCH  21  23
ATOM     23  C   UNL     1       6.940   4.625  14.819  0.00  0.00    +0.000 A 
ATOM     24  C   UNL     1       6.090   3.683  14.220  0.00  0.00    +0.000 A 
ATOM     25  C   UNL     1       6.094   3.510  12.836  0.00  0.00    +0.000 A 
ATOM     26  C   UNL     1       6.936   4.287  12.042  0.00  0.00    +0.000 A 
ATOM     27  C   UNL     1       7.776   5.233  12.630  0.00  0.00    +0.000 A 
ATOM     28  C   UNL     1       7.783   5.403  14.017  0.00  0.00    +0.000 A 
ENDBRANCH  21  23
ENDBRANCH  20  21
ENDBRANCH  19  20
ENDBRANCH   6  19
TORSDOF 8
ENDMDL
MODEL 3
REMARK VINA RESULT:      -7.6      0.828      1.217
REMARK  Name = 
REMARK  10 active torsions:
REMARK  status: ('A' for Active; 'I' for Inactive)
REMARK    1  A    between atoms: C_1  and  C_2
REMARK    2  A    between atoms: C_5  and  C_6
REMARK    3  A    between atoms: C_6  and  C_8
REMARK    4  A    between atoms: C_8  and  S_9
REMARK    5  A    between atoms: S_9  and  C_10
REMARK    6  A    between atoms: C_12  and  C_13
REMARK    7  A    between atoms: C_15  and  S_16
REMARK    8  A    between atoms: S_16  and  C_17
REMARK    9  A    between atoms: C_17  and  C_18
REMARK   10  A    between atoms: C_18  and  C_20
REMARK                            x       y       z     vdW  Elec       q    Type
REMARK                         _______ _______ _______ _____ _____    ______ ____
ROOT
ATOM      1  C   UNL     1       2.259   6.064  19.690  0.00  0.00    +0.000 A 
ATOM      2  C   UNL     1       1.674   5.247  20.642  0.00  0.00    +0.000 A 
ATOM      3  C   UNL     1       1.975   3.909  20.578  0.00  0.00    +0.000 A 
ATOM      4  C   UNL     1       1.407   2.933  21.566  0.00  0.00    +0.000 C 
ATOM      5  N   UNL     1       2.786   3.415  19.632  0.00  0.00    +0.000 NA
ATOM      6  C   UNL     1       3.327   4.285  18.758  0.00  0.00    +0.000 A 
ATOM      7  N   UNL     1       3.091   5.613  18.731  0.00  0.00    +0.000 NA
ENDROOT
BRANCH   1   8
ATOM      8  S   UNL     1       1.848   7.804  19.806  0.00  0.00    +0.000 S 
BRANCH   8   9
ATOM      9  C   UNL     1       1.759   8.317  18.066  0.00  0.00    +0.000 C 
BRANCH   9  10
ATOM     10  C   UNL     1       1.559   9.825  18.023  0.00  0.00    +0.000 C 
ATOM     11  O   UNL     1       2.458  10.573  17.631  0.00  0.00    +0.000 OA
BRANCH  10  16
ATOM     12  C   UNL     1      -3.453  12.243  19.751  0.00  0.00    +0.000 C 
ATOM     13  C   UNL     1      -2.164  11.614  19.312  0.00  0.00    +0.000 A 
ATOM     14  C   UNL     1      -0.976  11.830  20.017  0.00  0.00    +0.000 A 
ATOM     15  C   UNL     1       0.219  11.242  19.586  0.00  0.00    +0.000 A 
ATOM     16  C   UNL     1       0.248  10.429  18.440  0.00  0.00    +0.000 A 
ATOM     17  C   UNL     1      -0.940  10.222  17.734  0.00  0.00    +0.000 A 
ATOM     18  C   UNL     1      -2.135  10.807  18.170  0.00  0.00    +0.000 A 
ENDBRANCH  10  16
ENDBRANCH   9  10
ENDBRANCH   8   9
ENDBRANCH   1   8
BRANCH   6  19
ATOM     19  S   UNL     1       4.330   3.533  17.498  0.00  0.00    +0.000 S 
BRANCH  19  20
ATOM     20  C   UNL     1       4.626   4.932  16.387  0.00  0.00    +0.000 C 
BRANCH  20  21
ATOM     21  C   UNL     1       6.067   5.064  15.927  0.00  0.00    +0.000 C 
ATOM     22  O   UNL     1       6.991   5.471  16.624  0.00  0.00    +0.000 OA
BRANCH  21  23
ATOM     23  C   UNL     1       6.373   4.708  14.511  0.00  0.00    +0.000 A 
ATOM     24  C   UNL     1       7.490   5.309  13.913  0.00  0.00    +0.000 A 
ATOM     25  C   UNL     1       7.837   5.000  12.599  0.00  0.00    +0.000 A 
ATOM     26  C   UNL     1       7.078   4.078  11.879  0.00  0.00    +0.000 A 
ATOM     27  C   UNL     1       5.971   3.469  12.472  0.00  0.00    +0.000 A 
ATOM     28  C   UNL     1       5.614   3.783  13.786  0.00  0.00    +0.000 A 
ENDBRANCH  21  23
ENDBRANCH  20  21
ENDBRANCH  19  20
ENDBRANCH   6  19
TORSDOF 8
ENDMDL
MODEL 4
REMARK VINA RESULT:      -7.6      1.983      9.245
REMARK  Name = 
REMARK  10 active torsions:
REMARK  status: ('A' for Active; 'I' for Inactive)
REMARK    1  A    between atoms: C_1  and  C_2
REMARK    2  A    between atoms: C_5  and  C_6
REMARK    3  A    between atoms: C_6  and  C_8
REMARK    4  A    between atoms: C_8  and  S_9
REMARK    5  A    between atoms: S_9  and  C_10
REMARK    6  A    between atoms: C_12  and  C_13
REMARK    7  A    between atoms: C_15  and  S_16
REMARK    8  A    between atoms: S_16  and  C_17
REMARK    9  A    between atoms: C_17  and  C_18
REMARK   10  A    between atoms: C_18  and  C_20
REMARK                            x       y       z     vdW  Elec       q    Type
REMARK                         _______ _______ _______ _____ _____    ______ ____
ROOT
ATOM      1  C   UNL     1       5.183   5.741  18.670  0.00  0.00    +0.000 A 
ATOM      2  C   UNL     1       4.437   4.575  18.684  0.00  0.00    +0.000 A 
ATOM      3  C   UNL     1       3.108   4.686  18.359  0.00  0.00    +0.000 A 
ATOM      4  C   UNL     1       2.208   3.487  18.330  0.00  0.00    +0.000 C 
ATOM      5  N   UNL     1       2.556   5.869  18.054  0.00  0.00    +0.000 NA
ATOM      6  C   UNL     1       3.359   6.950  18.046  0.00  0.00    +0.000 A 
ATOM      7  N   UNL     1       4.673   6.948  18.356  0.00  0.00    +0.000 NA
ENDROOT
BRANCH   1   8
ATOM      8  S   UNL     1       6.913   5.557  19.096  0.00  0.00    +0.000 S 
BRANCH   8   9
ATOM      9  C   UNL     1       7.596   4.686  17.656  0.00  0.00    +0.000 C 
BRANCH   9  10
ATOM     10  C   UNL     1       7.304   5.516  16.413  0.00  0.00    +0.000 C 
ATOM     11  O   UNL     1       7.553   6.724  16.385  0.00  0.00    +0.000 OA
BRANCH  10  16
ATOM     12  C   UNL     1       5.189   3.038  11.582  0.00  0.00    +0.000 C 
ATOM     13  C   UNL     1       5.731   3.684  12.823  0.00  0.00    +0.000 A 
ATOM     14  C   UNL     1       6.972   4.327  12.822  0.00  0.00    +0.000 A 
ATOM     15  C   UNL     1       7.465   4.916  13.993  0.00  0.00    +0.000 A 
ATOM     16  C   UNL     1       6.726   4.869  15.188  0.00  0.00    +0.000 A 
ATOM     17  C   UNL     1       5.488   4.219  15.186  0.00  0.00    +0.000 A 
ATOM     18  C   UNL     1       4.995   3.636  14.013  0.00  0.00    +0.000 A 
ENDBRANCH  10  16
ENDBRANCH   9  10
ENDBRANCH   8   9
ENDBRANCH   1   8
BRANCH   6  19
ATOM     19  S   UNL     1       2.527   8.482  17.703  0.00  0.00    +0.000 S 
BRANCH  19  20
ATOM     20  C   UNL     1       1.387   8.598  19.106  0.00  0.00    +0.000 C 
BRANCH  20  21
ATOM     21  C   UNL     1       1.021  10.019  19.492  0.00  0.00    +0.000 C 
ATOM     22  O   UNL     1       1.268  11.014  18.818  0.00  0.00    +0.000 OA
BRANCH  21  23
ATOM     23  C   UNL     1       0.345  10.223  20.805  0.00  0.00    +0.000 A 
ATOM     24  C   UNL     1      -0.532  11.311  20.927  0.00  0.00    +0.000 A 
ATOM     25  C   UNL     1      -1.208  11.540  22.125  0.00  0.00    +0.000 A 
ATOM     26  C   UNL     1      -1.022  10.677  23.204  0.00  0.00    +0.000 A 
ATOM     27  C   UNL     1      -0.158   9.587  23.086  0.00  0.00    +0.000 A 
ATOM     28  C   UNL     1       0.529   9.359  21.890  0.00  0.00    +0.000 A 
ENDBRANCH  21  23
ENDBRANCH  20  21
ENDBRANCH  19  20
ENDBRANCH   6  19
TORSDOF 8
ENDMDL
MODEL 5
REMARK VINA RESULT:      -7.6      2.371      8.977
REMARK  Name = 
REMARK  10 active torsions:
REMARK  status: ('A' for Active; 'I' for Inactive)
REMARK    1  A    between atoms: C_1  and  C_2
REMARK    2  A    between atoms: C_5  and  C_6
REMARK    3  A    between atoms: C_6  and  C_8
REMARK    4  A    between atoms: C_8  and  S_9
REMARK    5  A    between atoms: S_9  and  C_10
REMARK    6  A    between atoms: C_12  and  C_13
REMARK    7  A    between atoms: C_15  and  S_16
REMARK    8  A    between atoms: S_16  and  C_17
REMARK    9  A    between atoms: C_17  and  C_18
REMARK   10  A    between atoms: C_18  and  C_20
REMARK                            x       y       z     vdW  Elec       q    Type
REMARK                         _______ _______ _______ _____ _____    ______ ____
ROOT
ATOM      1  C   UNL     1       5.037   5.071  18.823  0.00  0.00    +0.000 A 
ATOM      2  C   UNL     1       4.644   3.744  18.798  0.00  0.00    +0.000 A 
ATOM      3  C   UNL     1       3.336   3.492  18.468  0.00  0.00    +0.000 A 
ATOM      4  C   UNL     1       2.804   2.091  18.398  0.00  0.00    +0.000 C 
ATOM      5  N   UNL     1       2.476   4.484  18.195  0.00  0.00    +0.000 NA
ATOM      6  C   UNL     1       2.948   5.744  18.223  0.00  0.00    +0.000 A 
ATOM      7  N   UNL     1       4.211   6.098  18.541  0.00  0.00    +0.000 NA
ENDROOT
BRANCH   1   8
ATOM      8  S   UNL     1       6.751   5.362  19.253  0.00  0.00    +0.000 S 
BRANCH   8   9
ATOM      9  C   UNL     1       7.643   4.791  17.778  0.00  0.00    +0.000 C 
BRANCH   9  10
ATOM     10  C   UNL     1       7.216   5.653  16.598  0.00  0.00    +0.000 C 
ATOM     11  O   UNL     1       7.293   6.883  16.651  0.00  0.00    +0.000 OA
BRANCH  10  16
ATOM     12  C   UNL     1       5.120   3.161  11.766  0.00  0.00    +0.000 C 
ATOM     13  C   UNL     1       5.661   3.795  13.014  0.00  0.00    +0.000 A 
ATOM     14  C   UNL     1       4.879   3.909  14.166  0.00  0.00    +0.000 A 
ATOM     15  C   UNL     1       5.399   4.512  15.318  0.00  0.00    +0.000 A 
ATOM     16  C   UNL     1       6.711   5.015  15.336  0.00  0.00    +0.000 A 
ATOM     17  C   UNL     1       7.488   4.905  14.179  0.00  0.00    +0.000 A 
ATOM     18  C   UNL     1       6.967   4.296  13.031  0.00  0.00    +0.000 A 
ENDBRANCH  10  16
ENDBRANCH   9  10
ENDBRANCH   8   9
ENDBRANCH   1   8
BRANCH   6  19
ATOM     19  S   UNL     1       1.722   6.995  17.921  0.00  0.00    +0.000 S 
BRANCH  19  20
ATOM     20  C   UNL     1       2.116   8.208  19.207  0.00  0.00    +0.000 C 
BRANCH  20  21
ATOM     21  C   UNL     1       1.391   7.977  20.521  0.00  0.00    +0.000 C 
ATOM     22  O   UNL     1       1.304   6.895  21.092  0.00  0.00    +0.000 OA
BRANCH  21  23
ATOM     23  C   UNL     1       0.703   9.144  21.141  0.00  0.00    +0.000 A 
ATOM     24  C   UNL     1       0.064   8.946  22.374  0.00  0.00    +0.000 A 
ATOM     25  C   UNL     1      -0.580  10.006  23.012  0.00  0.00    +0.000 A 
ATOM     26  C   UNL     1      -0.577  11.273  22.429  0.00  0.00    +0.000 A 
ATOM     27  C   UNL     1       0.066  11.478  21.208  0.00  0.00    +0.000 A 
ATOM     28  C   UNL     1       0.703  10.417  20.560  0.00  0.00    +0.000 A 
ENDBRANCH  21  23
ENDBRANCH  20  21
ENDBRANCH  19  20
ENDBRANCH   6  19
TORSDOF 8
ENDMDL
MODEL 6
REMARK VINA RESULT:      -7.6      1.846      2.929
REMARK  Name = 
REMARK  10 active torsions:
REMARK  status: ('A' for Active; 'I' for Inactive)
REMARK    1  A    between atoms: C_1  and  C_2
REMARK    2  A    between atoms: C_5  and  C_6
REMARK    3  A    between atoms: C_6  and  C_8
REMARK    4  A    between atoms: C_8  and  S_9
REMARK    5  A    between atoms: S_9  and  C_10
REMARK    6  A    between atoms: C_12  and  C_13
REMARK    7  A    between atoms: C_15  and  S_16
REMARK    8  A    between atoms: S_16  and  C_17
REMARK    9  A    between atoms: C_17  and  C_18
REMARK   10  A    between atoms: C_18  and  C_20
REMARK                            x       y       z     vdW  Elec       q    Type
REMARK                         _______ _______ _______ _____ _____    ______ ____
ROOT
ATOM      1  C   UNL     1       2.834   6.830  18.314  0.00  0.00    +0.000 A 
ATOM      2  C   UNL     1       2.011   6.259  19.269  0.00  0.00    +0.000 A 
ATOM      3  C   UNL     1       2.063   4.894  19.395  0.00  0.00    +0.000 A 
ATOM      4  C   UNL     1       1.222   4.170  20.405  0.00  0.00    +0.000 C 
ATOM      5  N   UNL     1       2.864   4.146  18.622  0.00  0.00    +0.000 NA
ATOM      6  C   UNL     1       3.646   4.786  17.732  0.00  0.00    +0.000 A 
ATOM      7  N   UNL     1       3.665   6.120  17.526  0.00  0.00    +0.000 NA
ENDROOT
BRANCH   1   8
ATOM      8  S   UNL     1       2.743   8.614  18.180  0.00  0.00    +0.000 S 
BRANCH   8   9
ATOM      9  C   UNL     1       1.055   8.890  17.568  0.00  0.00    +0.000 C 
BRANCH   9  10
ATOM     10  C   UNL     1       0.363   9.872  18.503  0.00  0.00    +0.000 C 
ATOM     11  O   UNL     1       0.935  10.300  19.509  0.00  0.00    +0.000 OA
BRANCH  10  16
ATOM     12  C   UNL     1      -5.036  11.647  17.218  0.00  0.00    +0.000 C 
ATOM     13  C   UNL     1      -3.642  11.195  17.543  0.00  0.00    +0.000 A 
ATOM     14  C   UNL     1      -2.980  10.258  16.745  0.00  0.00    +0.000 A 
ATOM     15  C   UNL     1      -1.683   9.842  17.071  0.00  0.00    +0.000 A 
ATOM     16  C   UNL     1      -1.027  10.355  18.202  0.00  0.00    +0.000 A 
ATOM     17  C   UNL     1      -1.695  11.287  19.000  0.00  0.00    +0.000 A 
ATOM     18  C   UNL     1      -2.989  11.705  18.670  0.00  0.00    +0.000 A 
ENDBRANCH  10  16
ENDBRANCH   9  10
ENDBRANCH   8   9
ENDBRANCH   1   8
BRANCH   6  19
ATOM     19  S   UNL     1       4.619   3.712  16.703  0.00  0.00    +0.000 S 
BRANCH  19  20
ATOM     20  C   UNL     1       5.160   4.849  15.401  0.00  0.00    +0.000 C 
BRANCH  20  21
ATOM     21  C   UNL     1       6.642   5.175  15.439  0.00  0.00    +0.000 C 
ATOM     22  O   UNL     1       7.419   5.018  14.503  0.00  0.00    +0.000 OA
BRANCH  21  23
ATOM     23  C   UNL     1       7.201   5.691  16.722  0.00  0.00    +0.000 A 
ATOM     24  C   UNL     1       7.331   7.080  16.866  0.00  0.00    +0.000 A 
ATOM     25  C   UNL     1       7.829   7.622  18.051  0.00  0.00    +0.000 A 
ATOM     26  C   UNL     1       8.186   6.780  19.103  0.00  0.00    +0.000 A 
ATOM     27  C   UNL     1       8.048   5.398  18.970  0.00  0.00    +0.000 A 
ATOM     28  C   UNL     1       7.560   4.849  17.781  0.00  0.00    +0.000 A 
ENDBRANCH  21  23
ENDBRANCH  20  21
ENDBRANCH  19  20
ENDBRANCH   6  19
TORSDOF 8
ENDMDL
MODEL 7
REMARK VINA RESULT:      -7.5      0.735      1.525
REMARK  Name = 
REMARK  10 active torsions:
REMARK  status: ('A' for Active; 'I' for Inactive)
REMARK    1  A    between atoms: C_1  and  C_2
REMARK    2  A    between atoms: C_5  and  C_6
REMARK    3  A    between atoms: C_6  and  C_8
REMARK    4  A    between atoms: C_8  and  S_9
REMARK    5  A    between atoms: S_9  and  C_10
REMARK    6  A    between atoms: C_12  and  C_13
REMARK    7  A    between atoms: C_15  and  S_16
REMARK    8  A    between atoms: S_16  and  C_17
REMARK    9  A    between atoms: C_17  and  C_18
REMARK   10  A    between atoms: C_18  and  C_20
REMARK                            x       y       z     vdW  Elec       q    Type
REMARK                         _______ _______ _______ _____ _____    ______ ____
ROOT
ATOM      1  C   UNL     1       2.485   6.250  19.735  0.00  0.00    +0.000 A 
ATOM      2  C   UNL     1       1.658   5.238  20.191  0.00  0.00    +0.000 A 
ATOM      3  C   UNL     1       2.157   3.960  20.138  0.00  0.00    +0.000 A 
ATOM      4  C   UNL     1       1.353   2.788  20.617  0.00  0.00    +0.000 C 
ATOM      5  N   UNL     1       3.381   3.703  19.656  0.00  0.00    +0.000 NA
ATOM      6  C   UNL     1       4.125   4.750  19.252  0.00  0.00    +0.000 A 
ATOM      7  N   UNL     1       3.727   6.039  19.257  0.00  0.00    +0.000 NA
ENDROOT
BRANCH   1   8
ATOM      8  S   UNL     1       1.803   7.904  19.822  0.00  0.00    +0.000 S 
BRANCH   8   9
ATOM      9  C   UNL     1       1.957   8.498  18.112  0.00  0.00    +0.000 C 
BRANCH   9  10
ATOM     10  C   UNL     1       1.792  10.011  18.116  0.00  0.00    +0.000 C 
ATOM     11  O   UNL     1       2.622  10.741  17.568  0.00  0.00    +0.000 OA
BRANCH  10  16
ATOM     12  C   UNL     1      -2.749  12.526  20.763  0.00  0.00    +0.000 C 
ATOM     13  C   UNL     1      -1.580  11.872  20.087  0.00  0.00    +0.000 A 
ATOM     14  C   UNL     1      -0.286  11.988  20.604  0.00  0.00    +0.000 A 
ATOM     15  C   UNL     1       0.793  11.378  19.953  0.00  0.00    +0.000 A 
ATOM     16  C   UNL     1       0.598  10.643  18.772  0.00  0.00    +0.000 A 
ATOM     17  C   UNL     1      -0.696  10.534  18.255  0.00  0.00    +0.000 A 
ATOM     18  C   UNL     1      -1.774  11.141  18.910  0.00  0.00    +0.000 A 
ENDBRANCH  10  16
ENDBRANCH   9  10
ENDBRANCH   8   9
ENDBRANCH   1   8
BRANCH   6  19
ATOM     19  S   UNL     1       5.702   4.307  18.562  0.00  0.00    +0.000 S 
BRANCH  19  20
ATOM     20  C   UNL     1       5.326   4.270  16.791  0.00  0.00    +0.000 C 
BRANCH  20  21
ATOM     21  C   UNL     1       6.165   5.224  15.959  0.00  0.00    +0.000 C 
ATOM     22  O   UNL     1       6.552   6.326  16.333  0.00  0.00    +0.000 OA
BRANCH  21  23
ATOM     23  C   UNL     1       6.511   4.803  14.571  0.00  0.00    +0.000 A 
ATOM     24  C   UNL     1       5.702   3.832  13.962  0.00  0.00    +0.000 A 
ATOM     25  C   UNL     1       5.965   3.413  12.658  0.00  0.00    +0.000 A 
ATOM     26  C   UNL     1       7.029   3.972  11.950  0.00  0.00    +0.000 A 
ATOM     27  C   UNL     1       7.830   4.946  12.547  0.00  0.00    +0.000 A 
ATOM     28  C   UNL     1       7.577   5.361  13.857  0.00  0.00    +0.000 A 
ENDBRANCH  21  23
ENDBRANCH  20  21
ENDBRANCH  19  20
ENDBRANCH   6  19
TORSDOF 8
ENDMDL
MODEL 8
REMARK VINA RESULT:      -7.4      1.964      2.353
REMARK  Name = 
REMARK  10 active torsions:
REMARK  status: ('A' for Active; 'I' for Inactive)
REMARK    1  A    between atoms: C_1  and  C_2
REMARK    2  A    between atoms: C_5  and  C_6
REMARK    3  A    between atoms: C_6  and  C_8
REMARK    4  A    between atoms: C_8  and  S_9
REMARK    5  A    between atoms: S_9  and  C_10
REMARK    6  A    between atoms: C_12  and  C_13
REMARK    7  A    between atoms: C_15  and  S_16
REMARK    8  A    between atoms: S_16  and  C_17
REMARK    9  A    between atoms: C_17  and  C_18
REMARK   10  A    between atoms: C_18  and  C_20
REMARK                            x       y       z     vdW  Elec       q    Type
REMARK                         _______ _______ _______ _____ _____    ______ ____
ROOT
ATOM      1  C   UNL     1       2.475   6.453  19.718  0.00  0.00    +0.000 A 
ATOM      2  C   UNL     1       1.787   5.513  20.465  0.00  0.00    +0.000 A 
ATOM      3  C   UNL     1       2.335   4.257  20.538  0.00  0.00    +0.000 A 
ATOM      4  C   UNL     1       1.681   3.163  21.328  0.00  0.00    +0.000 C 
ATOM      5  N   UNL     1       3.477   3.951  19.904  0.00  0.00    +0.000 NA
ATOM      6  C   UNL     1       4.091   4.931  19.216  0.00  0.00    +0.000 A 
ATOM      7  N   UNL     1       3.632   6.193  19.078  0.00  0.00    +0.000 NA
ENDROOT
BRANCH   1   8
ATOM      8  S   UNL     1       1.733   8.081  19.649  0.00  0.00    +0.000 S 
BRANCH   8   9
ATOM      9  C   UNL     1       0.825   8.181  21.220  0.00  0.00    +0.000 C 
BRANCH   9  10
ATOM     10  C   UNL     1       1.145   9.519  21.872  0.00  0.00    +0.000 C 
ATOM     11  O   UNL     1       1.855   9.580  22.879  0.00  0.00    +0.000 OA
BRANCH  10  16
ATOM     12  C   UNL     1      -1.052  14.429  19.633  0.00  0.00    +0.000 C 
ATOM     13  C   UNL     1      -0.489  13.160  20.202  0.00  0.00    +0.000 A 
ATOM     14  C   UNL     1      -1.321  12.178  20.747  0.00  0.00    +0.000 A 
ATOM     15  C   UNL     1      -0.774  11.005  21.281  0.00  0.00    +0.000 A 
ATOM     16  C   UNL     1       0.615  10.795  21.284  0.00  0.00    +0.000 A 
ATOM     17  C   UNL     1       1.444  11.782  20.744  0.00  0.00    +0.000 A 
ATOM     18  C   UNL     1       0.895  12.952  20.205  0.00  0.00    +0.000 A 
ENDBRANCH  10  16
ENDBRANCH   9  10
ENDBRANCH   8   9
ENDBRANCH   1   8
BRANCH   6  19
ATOM     19  S   UNL     1       5.556   4.416  18.351  0.00  0.00    +0.000 S 
BRANCH  19  20
ATOM     20  C   UNL     1       5.260   5.098  16.700  0.00  0.00    +0.000 C 
BRANCH  20  21
ATOM     21  C   UNL     1       6.527   5.427  15.929  0.00  0.00    +0.000 C 
ATOM     22  O   UNL     1       7.443   6.124  16.352  0.00  0.00    +0.000 OA
BRANCH  21  23
ATOM     23  C   UNL     1       6.646   4.893  14.542  0.00  0.00    +0.000 A 
ATOM     24  C   UNL     1       5.707   3.937  14.127  0.00  0.00    +0.000 A 
ATOM     25  C   UNL     1       5.757   3.416  12.834  0.00  0.00    +0.000 A 
ATOM     26  C   UNL     1       6.736   3.856  11.945  0.00  0.00    +0.000 A 
ATOM     27  C   UNL     1       7.667   4.814  12.349  0.00  0.00    +0.000 A 
ATOM     28  C   UNL     1       7.627   5.332  13.646  0.00  0.00    +0.000 A 
ENDBRANCH  21  23
ENDBRANCH  20  21
ENDBRANCH  19  20
ENDBRANCH   6  19
TORSDOF 8
ENDMDL
MODEL 9
REMARK VINA RESULT:      -7.3      3.044      4.613
REMARK  Name = 
REMARK  10 active torsions:
REMARK  status: ('A' for Active; 'I' for Inactive)
REMARK    1  A    between atoms: C_1  and  C_2
REMARK    2  A    between atoms: C_5  and  C_6
REMARK    3  A    between atoms: C_6  and  C_8
REMARK    4  A    between atoms: C_8  and  S_9
REMARK    5  A    between atoms: S_9  and  C_10
REMARK    6  A    between atoms: C_12  and  C_13
REMARK    7  A    between atoms: C_15  and  S_16
REMARK    8  A    between atoms: S_16  and  C_17
REMARK    9  A    between atoms: C_17  and  C_18
REMARK   10  A    between atoms: C_18  and  C_20
REMARK                            x       y       z     vdW  Elec       q    Type
REMARK                         _______ _______ _______ _____ _____    ______ ____
ROOT
ATOM      1  C   UNL     1       4.843   4.008  18.606  0.00  0.00    +0.000 A 
ATOM      2  C   UNL     1       5.884   4.531  19.353  0.00  0.00    +0.000 A 
ATOM      3  C   UNL     1       6.768   5.349  18.696  0.00  0.00    +0.000 A 
ATOM      4  C   UNL     1       7.927   5.981  19.409  0.00  0.00    +0.000 C 
ATOM      5  N   UNL     1       6.638   5.618  17.389  0.00  0.00    +0.000 NA
ATOM      6  C   UNL     1       5.585   5.082  16.743  0.00  0.00    +0.000 A 
ATOM      7  N   UNL     1       4.666   4.263  17.295  0.00  0.00    +0.000 NA
ENDROOT
BRANCH   1   8
ATOM      8  S   UNL     1       3.706   2.949  19.498  0.00  0.00    +0.000 S 
BRANCH   8   9
ATOM      9  C   UNL     1       3.089   4.035  20.816  0.00  0.00    +0.000 C 
BRANCH   9  10
ATOM     10  C   UNL     1       1.812   4.704  20.326  0.00  0.00    +0.000 C 
ATOM     11  O   UNL     1       0.723   4.132  20.414  0.00  0.00    +0.000 OA
BRANCH  10  16
ATOM     12  C   UNL     1       1.947  10.127  18.200  0.00  0.00    +0.000 C 
ATOM     13  C   UNL     1       1.904   8.731  18.746  0.00  0.00    +0.000 A 
ATOM     14  C   UNL     1       1.517   8.481  20.066  0.00  0.00    +0.000 A 
ATOM     15  C   UNL     1       1.492   7.170  20.559  0.00  0.00    +0.000 A 
ATOM     16  C   UNL     1       1.857   6.087  19.742  0.00  0.00    +0.000 A 
ATOM     17  C   UNL     1       2.250   6.342  18.426  0.00  0.00    +0.000 A 
ATOM     18  C   UNL     1       2.269   7.652  17.933  0.00  0.00    +0.000 A 
ENDBRANCH  10  16
ENDBRANCH   9  10
ENDBRANCH   8   9
ENDBRANCH   1   8
BRANCH   6  19
ATOM     19  S   UNL     1       5.535   5.433  15.001  0.00  0.00    +0.000 S 
BRANCH  19  20
ATOM     20  C   UNL     1       7.154   4.827  14.462  0.00  0.00    +0.000 C 
BRANCH  20  21
ATOM     21  C   UNL     1       7.330   4.783  12.955  0.00  0.00    +0.000 C 
ATOM     22  O   UNL     1       7.892   5.647  12.290  0.00  0.00    +0.000 OA
BRANCH  21  23
ATOM     23  C   UNL     1       6.743   3.622  12.227  0.00  0.00    +0.000 A 
ATOM     24  C   UNL     1       7.625   2.666  11.701  0.00  0.00    +0.000 A 
ATOM     25  C   UNL     1       7.133   1.549  11.028  0.00  0.00    +0.000 A 
ATOM     26  C   UNL     1       5.757   1.372  10.887  0.00  0.00    +0.000 A 
ATOM     27  C   UNL     1       4.874   2.314  11.417  0.00  0.00    +0.000 A 
ATOM     28  C   UNL     1       5.363   3.441  12.084  0.00  0.00    +0.000 A 
ENDBRANCH  21  23
ENDBRANCH  20  21
ENDBRANCH  19  20
ENDBRANCH   6  19
TORSDOF 8
ENDMDL
