MODEL 1
REMARK VINA RESULT:      -8.8      0.000      0.000
REMARK  Name = 
REMARK  6 active torsions:
REMARK  status: ('A' for Active; 'I' for Inactive)
REMARK    1  A    between atoms: C_1  and  N_2
REMARK    2  A    between atoms: N_8  and  C_9
REMARK    3  A    between atoms: C_12  and  C_13
REMARK    4  A    between atoms: C_18  and  C_19
REMARK    5  A    between atoms: C_23  and  O_24
REMARK    6  A    between atoms: C_26  and  C_27
REMARK                            x       y       z     vdW  Elec       q    Type
REMARK                         _______ _______ _______ _____ _____    ______ ____
ROOT
ATOM      1  C   UNL     1       0.132  10.910  19.157  0.00  0.00    +0.000 A 
ATOM      2  C   UNL     1      -1.211  10.843  19.213  0.00  0.00    +0.000 A 
ATOM      3  C   UNL     1      -1.912  12.147  19.289  0.00  0.00    +0.000 A 
ATOM      4  N   UNL     1      -1.357  13.314  19.323  0.00  0.00    +0.000 NA
ATOM      5  C   UNL     1       0.016  13.341  19.266  0.00  0.00    +0.000 A 
ATOM      6  C   UNL     1       0.924  14.387  19.303  0.00  0.00    +0.000 A 
ATOM      7  C   UNL     1       2.212  13.763  19.179  0.00  0.00    +0.000 A 
ATOM      8  N   UNL     1       2.101  12.426  19.128  0.00  0.00    +0.000 NA
ATOM      9  N   UNL     1       0.774  12.164  19.168  0.00  0.00    +0.000 N 
ENDROOT
BRANCH   1  13
ATOM     10  C   UNL     1       2.431   7.252  18.955  0.00  0.00    +0.000 A 
ATOM     11  C   UNL     1       2.177   8.031  17.811  0.00  0.00    +0.000 A 
ATOM     12  C   UNL     1       1.423   9.215  17.859  0.00  0.00    +0.000 A 
ATOM     13  C   UNL     1       0.888   9.654  19.072  0.00  0.00    +0.000 A 
ATOM     14  C   UNL     1       1.126   8.892  20.209  0.00  0.00    +0.000 A 
ATOM     15  F   UNL     1       0.642   9.290  21.396  0.00  0.00    +0.000 F 
ATOM     16  C   UNL     1       1.879   7.718  20.156  0.00  0.00    +0.000 A 
BRANCH  10  24
ATOM     17  C   UNL     1       3.512   1.920  18.137  0.00  0.00    +0.000 C 
ATOM     18  N   UNL     1       3.054   3.221  18.610  0.00  0.00    +0.000 NA
ATOM     19  C   UNL     1       2.669   4.131  17.485  0.00  0.00    +0.000 C 
ATOM     20  C   UNL     1       3.583   5.371  17.676  0.00  0.00    +0.000 C 
ATOM     21  C   UNL     1       4.862   4.694  18.172  0.00  0.00    +0.000 C 
ATOM     22  C   UNL     1       4.130   3.987  19.309  0.00  0.00    +0.000 C 
ATOM     23  C   UNL     1       3.477   5.215  20.032  0.00  0.00    +0.000 C 
ATOM     24  N   UNL     1       3.158   6.098  18.891  0.00  0.00    +0.000 N 
ENDBRANCH  10  24
ENDBRANCH   1  13
BRANCH   6  25
ATOM     25  C   UNL     1       0.536  15.791  19.471  0.00  0.00    +0.000 A 
ATOM     26  C   UNL     1       0.688  16.449  20.700  0.00  0.00    +0.000 A 
ATOM     27  C   UNL     1       0.270  17.773  20.865  0.00  0.00    +0.000 A 
ATOM     28  C   UNL     1      -0.349  18.449  19.816  0.00  0.00    +0.000 A 
ATOM     29  C   UNL     1      -0.507  17.803  18.598  0.00  0.00    +0.000 A 
ATOM     30  C   UNL     1      -0.032  16.508  18.407  0.00  0.00    +0.000 A 
BRANCH  29  31
ATOM     31  O   UNL     1      -1.146  18.400  17.551  0.00  0.00    +0.000 OA
ATOM     32  H   UNL     1      -1.697  19.123  17.892  0.00  0.00    +0.000 HD
ENDBRANCH  29  31
ENDBRANCH   6  25
BRANCH   7  33
ATOM     33  C   UNL     1       3.547  14.387  19.152  0.00  0.00    +0.000 A 
ATOM     34  C   UNL     1       4.258  14.475  17.953  0.00  0.00    +0.000 A 
ATOM     35  C   UNL     1       5.567  14.931  17.990  0.00  0.00    +0.000 A 
ATOM     36  N   UNL     1       6.210  15.288  19.122  0.00  0.00    +0.000 NA
ATOM     37  C   UNL     1       5.494  15.234  20.263  0.00  0.00    +0.000 A 
ATOM     38  C   UNL     1       4.166  14.843  20.319  0.00  0.00    +0.000 A 
ENDBRANCH   7  33
TORSDOF 5
ENDMDL
MODEL 2
REMARK VINA RESULT:      -8.6      0.821      1.134
REMARK  Name = 
REMARK  6 active torsions:
REMARK  status: ('A' for Active; 'I' for Inactive)
REMARK    1  A    between atoms: C_1  and  N_2
REMARK    2  A    between atoms: N_8  and  C_9
REMARK    3  A    between atoms: C_12  and  C_13
REMARK    4  A    between atoms: C_18  and  C_19
REMARK    5  A    between atoms: C_23  and  O_24
REMARK    6  A    between atoms: C_26  and  C_27
REMARK                            x       y       z     vdW  Elec       q    Type
REMARK                         _______ _______ _______ _____ _____    ______ ____
ROOT
ATOM      1  C   UNL     1       0.134  10.968  19.584  0.00  0.00    +0.000 A 
ATOM      2  C   UNL     1      -1.208  10.918  19.669  0.00  0.00    +0.000 A 
ATOM      3  C   UNL     1      -1.898  12.229  19.659  0.00  0.00    +0.000 A 
ATOM      4  N   UNL     1      -1.335  13.391  19.595  0.00  0.00    +0.000 NA
ATOM      5  C   UNL     1       0.038  13.402  19.512  0.00  0.00    +0.000 A 
ATOM      6  C   UNL     1       0.954  14.440  19.454  0.00  0.00    +0.000 A 
ATOM      7  C   UNL     1       2.234  13.797  19.355  0.00  0.00    +0.000 A 
ATOM      8  N   UNL     1       2.113  12.462  19.406  0.00  0.00    +0.000 NA
ATOM      9  N   UNL     1       0.785  12.215  19.490  0.00  0.00    +0.000 N 
ENDROOT
BRANCH   1  13
ATOM     10  C   UNL     1       2.263   7.205  19.517  0.00  0.00    +0.000 A 
ATOM     11  C   UNL     1       1.632   7.677  20.682  0.00  0.00    +0.000 A 
ATOM     12  C   UNL     1       0.946   8.902  20.722  0.00  0.00    +0.000 A 
ATOM     13  C   UNL     1       0.879   9.704  19.580  0.00  0.00    +0.000 A 
ATOM     14  C   UNL     1       1.503   9.252  18.424  0.00  0.00    +0.000 A 
ATOM     15  F   UNL     1       1.447   9.986  17.302  0.00  0.00    +0.000 F 
ATOM     16  C   UNL     1       2.180   8.032  18.389  0.00  0.00    +0.000 A 
BRANCH  10  24
ATOM     17  C   UNL     1       3.536   2.069  18.007  0.00  0.00    +0.000 C 
ATOM     18  N   UNL     1       2.932   3.287  18.534  0.00  0.00    +0.000 NA
ATOM     19  C   UNL     1       3.081   4.447  17.598  0.00  0.00    +0.000 C 
ATOM     20  C   UNL     1       3.836   5.513  18.437  0.00  0.00    +0.000 C 
ATOM     21  C   UNL     1       4.767   4.611  19.249  0.00  0.00    +0.000 C 
ATOM     22  C   UNL     1       3.608   3.771  19.776  0.00  0.00    +0.000 C 
ATOM     23  C   UNL     1       2.719   4.887  20.425  0.00  0.00    +0.000 C 
ATOM     24  N   UNL     1       2.934   6.016  19.496  0.00  0.00    +0.000 N 
ENDBRANCH  10  24
ENDBRANCH   1  13
BRANCH   6  25
ATOM     25  C   UNL     1       0.578  15.856  19.522  0.00  0.00    +0.000 A 
ATOM     26  C   UNL     1       0.724  16.593  20.706  0.00  0.00    +0.000 A 
ATOM     27  C   UNL     1       0.318  17.930  20.777  0.00  0.00    +0.000 A 
ATOM     28  C   UNL     1      -0.282  18.540  19.677  0.00  0.00    +0.000 A 
ATOM     29  C   UNL     1      -0.433  17.815  18.504  0.00  0.00    +0.000 A 
ATOM     30  C   UNL     1       0.030  16.505  18.406  0.00  0.00    +0.000 A 
BRANCH  29  31
ATOM     31  O   UNL     1      -1.054  18.346  17.411  0.00  0.00    +0.000 OA
ATOM     32  H   UNL     1      -0.921  17.751  16.656  0.00  0.00    +0.000 HD
ENDBRANCH  29  31
ENDBRANCH   6  25
BRANCH   7  33
ATOM     33  C   UNL     1       3.573  14.407  19.257  0.00  0.00    +0.000 A 
ATOM     34  C   UNL     1       4.213  14.504  18.019  0.00  0.00    +0.000 A 
ATOM     35  C   UNL     1       5.528  14.943  17.985  0.00  0.00    +0.000 A 
ATOM     36  N   UNL     1       6.240  15.276  19.081  0.00  0.00    +0.000 NA
ATOM     37  C   UNL     1       5.593  15.214  20.262  0.00  0.00    +0.000 A 
ATOM     38  C   UNL     1       4.265  14.838  20.391  0.00  0.00    +0.000 A 
ENDBRANCH   7  33
TORSDOF 5
ENDMDL
MODEL 3
REMARK VINA RESULT:      -8.6      0.771      1.104
REMARK  Name = 
REMARK  6 active torsions:
REMARK  status: ('A' for Active; 'I' for Inactive)
REMARK    1  A    between atoms: C_1  and  N_2
REMARK    2  A    between atoms: N_8  and  C_9
REMARK    3  A    between atoms: C_12  and  C_13
REMARK    4  A    between atoms: C_18  and  C_19
REMARK    5  A    between atoms: C_23  and  O_24
REMARK    6  A    between atoms: C_26  and  C_27
REMARK                            x       y       z     vdW  Elec       q    Type
REMARK                         _______ _______ _______ _____ _____    ______ ____
ROOT
ATOM      1  C   UNL     1       0.115  10.886  19.070  0.00  0.00    +0.000 A 
ATOM      2  C   UNL     1      -1.228  10.814  19.112  0.00  0.00    +0.000 A 
ATOM      3  C   UNL     1      -1.936  12.116  19.150  0.00  0.00    +0.000 A 
ATOM      4  N   UNL     1      -1.387  13.286  19.164  0.00  0.00    +0.000 NA
ATOM      5  C   UNL     1      -0.013  13.318  19.123  0.00  0.00    +0.000 A 
ATOM      6  C   UNL     1       0.890  14.369  19.148  0.00  0.00    +0.000 A 
ATOM      7  C   UNL     1       2.181  13.748  19.053  0.00  0.00    +0.000 A 
ATOM      8  N   UNL     1       2.078  12.410  19.031  0.00  0.00    +0.000 NA
ATOM      9  N   UNL     1       0.751  12.143  19.061  0.00  0.00    +0.000 N 
ENDROOT
BRANCH   1  13
ATOM     10  C   UNL     1       2.431   7.234  18.981  0.00  0.00    +0.000 A 
ATOM     11  C   UNL     1       2.217   8.004  17.823  0.00  0.00    +0.000 A 
ATOM     12  C   UNL     1       1.459   9.186  17.834  0.00  0.00    +0.000 A 
ATOM     13  C   UNL     1       0.877   9.632  19.023  0.00  0.00    +0.000 A 
ATOM     14  C   UNL     1       1.075   8.879  20.173  0.00  0.00    +0.000 A 
ATOM     15  F   UNL     1       0.547   9.284  21.339  0.00  0.00    +0.000 F 
ATOM     16  C   UNL     1       1.834   7.707  20.157  0.00  0.00    +0.000 A 
BRANCH  10  24
ATOM     17  C   UNL     1       3.597   1.928  18.113  0.00  0.00    +0.000 C 
ATOM     18  N   UNL     1       3.093   3.215  18.578  0.00  0.00    +0.000 NA
ATOM     19  C   UNL     1       2.816   4.159  17.449  0.00  0.00    +0.000 C 
ATOM     20  C   UNL     1       3.705   5.392  17.763  0.00  0.00    +0.000 C 
ATOM     21  C   UNL     1       4.931   4.699  18.359  0.00  0.00    +0.000 C 
ATOM     22  C   UNL     1       4.096   3.960  19.399  0.00  0.00    +0.000 C 
ATOM     23  C   UNL     1       3.374   5.165  20.093  0.00  0.00    +0.000 C 
ATOM     24  N   UNL     1       3.163   6.082  18.953  0.00  0.00    +0.000 N 
ENDBRANCH  10  24
ENDBRANCH   1  13
BRANCH   6  25
ATOM     25  C   UNL     1       0.493  15.775  19.278  0.00  0.00    +0.000 A 
ATOM     26  C   UNL     1      -0.065  16.478  18.201  0.00  0.00    +0.000 A 
ATOM     27  C   UNL     1      -0.396  17.832  18.318  0.00  0.00    +0.000 A 
ATOM     28  C   UNL     1      -0.131  18.518  19.502  0.00  0.00    +0.000 A 
ATOM     29  C   UNL     1       0.426  17.830  20.570  0.00  0.00    +0.000 A 
ATOM     30  C   UNL     1       0.695  16.466  20.482  0.00  0.00    +0.000 A 
BRANCH  29  31
ATOM     31  O   UNL     1       0.748  18.461  21.736  0.00  0.00    +0.000 OA
ATOM     32  H   UNL     1       0.695  19.420  21.597  0.00  0.00    +0.000 HD
ENDBRANCH  29  31
ENDBRANCH   6  25
BRANCH   7  33
ATOM     33  C   UNL     1       3.514  14.378  19.028  0.00  0.00    +0.000 A 
ATOM     34  C   UNL     1       4.214  14.495  17.825  0.00  0.00    +0.000 A 
ATOM     35  C   UNL     1       5.522  14.954  17.860  0.00  0.00    +0.000 A 
ATOM     36  N   UNL     1       6.173  15.289  18.994  0.00  0.00    +0.000 NA
ATOM     37  C   UNL     1       5.468  15.208  20.140  0.00  0.00    +0.000 A 
ATOM     38  C   UNL     1       4.141  14.811  20.198  0.00  0.00    +0.000 A 
ENDBRANCH   7  33
TORSDOF 5
ENDMDL
MODEL 4
REMARK VINA RESULT:      -8.4      1.135      1.586
REMARK  Name = 
REMARK  6 active torsions:
REMARK  status: ('A' for Active; 'I' for Inactive)
REMARK    1  A    between atoms: C_1  and  N_2
REMARK    2  A    between atoms: N_8  and  C_9
REMARK    3  A    between atoms: C_12  and  C_13
REMARK    4  A    between atoms: C_18  and  C_19
REMARK    5  A    between atoms: C_23  and  O_24
REMARK    6  A    between atoms: C_26  and  C_27
REMARK                            x       y       z     vdW  Elec       q    Type
REMARK                         _______ _______ _______ _____ _____    ______ ____
ROOT
ATOM      1  C   UNL     1       0.076  10.956  19.623  0.00  0.00    +0.000 A 
ATOM      2  C   UNL     1      -1.265  10.896  19.724  0.00  0.00    +0.000 A 
ATOM      3  C   UNL     1      -1.964  12.202  19.718  0.00  0.00    +0.000 A 
ATOM      4  N   UNL     1      -1.410  13.368  19.644  0.00  0.00    +0.000 NA
ATOM      5  C   UNL     1      -0.039  13.389  19.545  0.00  0.00    +0.000 A 
ATOM      6  C   UNL     1       0.869  14.433  19.474  0.00  0.00    +0.000 A 
ATOM      7  C   UNL     1       2.153  13.799  19.361  0.00  0.00    +0.000 A 
ATOM      8  N   UNL     1       2.042  12.463  19.418  0.00  0.00    +0.000 NA
ATOM      9  N   UNL     1       0.717  12.207  19.518  0.00  0.00    +0.000 N 
ENDROOT
BRANCH   1  13
ATOM     10  C   UNL     1       2.234   7.209  19.538  0.00  0.00    +0.000 A 
ATOM     11  C   UNL     1       1.563   7.650  20.693  0.00  0.00    +0.000 A 
ATOM     12  C   UNL     1       0.867   8.869  20.739  0.00  0.00    +0.000 A 
ATOM     13  C   UNL     1       0.830   9.696  19.614  0.00  0.00    +0.000 A 
ATOM     14  C   UNL     1       1.493   9.275  18.469  0.00  0.00    +0.000 A 
ATOM     15  F   UNL     1       1.467  10.035  17.362  0.00  0.00    +0.000 F 
ATOM     16  C   UNL     1       2.180   8.061  18.427  0.00  0.00    +0.000 A 
BRANCH  10  24
ATOM     17  C   UNL     1       3.545   2.090  18.004  0.00  0.00    +0.000 C 
ATOM     18  N   UNL     1       2.932   3.301  18.537  0.00  0.00    +0.000 NA
ATOM     19  C   UNL     1       3.072   4.466  17.606  0.00  0.00    +0.000 C 
ATOM     20  C   UNL     1       3.819   5.534  18.450  0.00  0.00    +0.000 C 
ATOM     21  C   UNL     1       4.757   4.635  19.258  0.00  0.00    +0.000 C 
ATOM     22  C   UNL     1       3.605   3.784  19.781  0.00  0.00    +0.000 C 
ATOM     23  C   UNL     1       2.708   4.890  20.435  0.00  0.00    +0.000 C 
ATOM     24  N   UNL     1       2.914   6.025  19.511  0.00  0.00    +0.000 N 
ENDBRANCH  10  24
ENDBRANCH   1  13
BRANCH   6  25
ATOM     25  C   UNL     1       0.485  15.846  19.542  0.00  0.00    +0.000 A 
ATOM     26  C   UNL     1       0.121  16.559  18.390  0.00  0.00    +0.000 A 
ATOM     27  C   UNL     1      -0.197  17.920  18.456  0.00  0.00    +0.000 A 
ATOM     28  C   UNL     1      -0.113  18.602  19.668  0.00  0.00    +0.000 A 
ATOM     29  C   UNL     1       0.251  17.904  20.811  0.00  0.00    +0.000 A 
ATOM     30  C   UNL     1       0.503  16.535  20.764  0.00  0.00    +0.000 A 
BRANCH  29  31
ATOM     31  O   UNL     1       0.393  18.529  22.014  0.00  0.00    +0.000 OA
ATOM     32  H   UNL     1       1.088  18.078  22.521  0.00  0.00    +0.000 HD
ENDBRANCH  29  31
ENDBRANCH   6  25
BRANCH   7  33
ATOM     33  C   UNL     1       3.486  14.418  19.246  0.00  0.00    +0.000 A 
ATOM     34  C   UNL     1       4.124  14.488  18.006  0.00  0.00    +0.000 A 
ATOM     35  C   UNL     1       5.435  14.939  17.958  0.00  0.00    +0.000 A 
ATOM     36  N   UNL     1       6.145  15.306  19.045  0.00  0.00    +0.000 NA
ATOM     37  C   UNL     1       5.499  15.269  20.227  0.00  0.00    +0.000 A 
ATOM     38  C   UNL     1       4.176  14.884  20.368  0.00  0.00    +0.000 A 
ENDBRANCH   7  33
TORSDOF 5
ENDMDL
MODEL 5
REMARK VINA RESULT:      -8.4      0.913      1.155
REMARK  Name = 
REMARK  6 active torsions:
REMARK  status: ('A' for Active; 'I' for Inactive)
REMARK    1  A    between atoms: C_1  and  N_2
REMARK    2  A    between atoms: N_8  and  C_9
REMARK    3  A    between atoms: C_12  and  C_13
REMARK    4  A    between atoms: C_18  and  C_19
REMARK    5  A    between atoms: C_23  and  O_24
REMARK    6  A    between atoms: C_26  and  C_27
REMARK                            x       y       z     vdW  Elec       q    Type
REMARK                         _______ _______ _______ _____ _____    ______ ____
ROOT
ATOM      1  C   UNL     1       0.186  10.698  19.104  0.00  0.00    +0.000 A 
ATOM      2  C   UNL     1      -1.144  10.528  19.212  0.00  0.00    +0.000 A 
ATOM      3  C   UNL     1      -1.932  11.766  19.415  0.00  0.00    +0.000 A 
ATOM      4  N   UNL     1      -1.461  12.967  19.513  0.00  0.00    +0.000 NA
ATOM      5  C   UNL     1      -0.098  13.101  19.400  0.00  0.00    +0.000 A 
ATOM      6  C   UNL     1       0.734  14.206  19.477  0.00  0.00    +0.000 A 
ATOM      7  C   UNL     1       2.055  13.691  19.251  0.00  0.00    +0.000 A 
ATOM      8  N   UNL     1       2.038  12.357  19.105  0.00  0.00    +0.000 NA
ATOM      9  N   UNL     1       0.736  11.994  19.182  0.00  0.00    +0.000 N 
ENDROOT
BRANCH   1  13
ATOM     10  C   UNL     1       2.727   7.245  18.535  0.00  0.00    +0.000 A 
ATOM     11  C   UNL     1       2.421   8.121  17.478  0.00  0.00    +0.000 A 
ATOM     12  C   UNL     1       1.589   9.240  17.645  0.00  0.00    +0.000 A 
ATOM     13  C   UNL     1       1.025   9.513  18.893  0.00  0.00    +0.000 A 
ATOM     14  C   UNL     1       1.314   8.653  19.945  0.00  0.00    +0.000 A 
ATOM     15  F   UNL     1       0.804   8.890  21.164  0.00  0.00    +0.000 F 
ATOM     16  C   UNL     1       2.145   7.544  19.775  0.00  0.00    +0.000 A 
BRANCH  10  24
ATOM     17  C   UNL     1       5.949   3.634  15.919  0.00  0.00    +0.000 C 
ATOM     18  N   UNL     1       4.859   4.458  16.427  0.00  0.00    +0.000 NA
ATOM     19  C   UNL     1       5.271   5.884  16.630  0.00  0.00    +0.000 C 
ATOM     20  C   UNL     1       4.992   6.145  18.135  0.00  0.00    +0.000 C 
ATOM     21  C   UNL     1       5.367   4.783  18.722  0.00  0.00    +0.000 C 
ATOM     22  C   UNL     1       4.414   4.040  17.792  0.00  0.00    +0.000 C 
ATOM     23  C   UNL     1       3.067   4.772  18.121  0.00  0.00    +0.000 C 
ATOM     24  N   UNL     1       3.530   6.156  18.356  0.00  0.00    +0.000 N 
ENDBRANCH  10  24
ENDBRANCH   1  13
BRANCH   6  25
ATOM     25  C   UNL     1       0.254  15.561  19.765  0.00  0.00    +0.000 A 
ATOM     26  C   UNL     1       0.291  16.087  21.065  0.00  0.00    +0.000 A 
ATOM     27  C   UNL     1      -0.213  17.363  21.340  0.00  0.00    +0.000 A 
ATOM     28  C   UNL     1      -0.804  18.116  20.329  0.00  0.00    +0.000 A 
ATOM     29  C   UNL     1      -0.848  17.601  19.041  0.00  0.00    +0.000 A 
ATOM     30  C   UNL     1      -0.288  16.360  18.747  0.00  0.00    +0.000 A 
BRANCH  29  31
ATOM     31  O   UNL     1      -1.455  18.275  18.022  0.00  0.00    +0.000 OA
ATOM     32  H   UNL     1      -2.406  18.335  18.210  0.00  0.00    +0.000 HD
ENDBRANCH  29  31
ENDBRANCH   6  25
BRANCH   7  33
ATOM     33  C   UNL     1       3.339  14.414  19.215  0.00  0.00    +0.000 A 
ATOM     34  C   UNL     1       3.999  14.614  18.000  0.00  0.00    +0.000 A 
ATOM     35  C   UNL     1       5.272  15.164  18.018  0.00  0.00    +0.000 A 
ATOM     36  N   UNL     1       5.926  15.511  19.146  0.00  0.00    +0.000 NA
ATOM     37  C   UNL     1       5.258  15.346  20.305  0.00  0.00    +0.000 A 
ATOM     38  C   UNL     1       3.965  14.855  20.383  0.00  0.00    +0.000 A 
ENDBRANCH   7  33
TORSDOF 5
ENDMDL
MODEL 6
REMARK VINA RESULT:      -8.3      1.194      1.581
REMARK  Name = 
REMARK  6 active torsions:
REMARK  status: ('A' for Active; 'I' for Inactive)
REMARK    1  A    between atoms: C_1  and  N_2
REMARK    2  A    between atoms: N_8  and  C_9
REMARK    3  A    between atoms: C_12  and  C_13
REMARK    4  A    between atoms: C_18  and  C_19
REMARK    5  A    between atoms: C_23  and  O_24
REMARK    6  A    between atoms: C_26  and  C_27
REMARK                            x       y       z     vdW  Elec       q    Type
REMARK                         _______ _______ _______ _____ _____    ______ ____
ROOT
ATOM      1  C   UNL     1       0.121  10.769  19.133  0.00  0.00    +0.000 A 
ATOM      2  C   UNL     1      -1.208  10.605  19.269  0.00  0.00    +0.000 A 
ATOM      3  C   UNL     1      -1.989  11.850  19.455  0.00  0.00    +0.000 A 
ATOM      4  N   UNL     1      -1.514  13.051  19.513  0.00  0.00    +0.000 NA
ATOM      5  C   UNL     1      -0.153  13.178  19.372  0.00  0.00    +0.000 A 
ATOM      6  C   UNL     1       0.682  14.283  19.406  0.00  0.00    +0.000 A 
ATOM      7  C   UNL     1       1.999  13.759  19.171  0.00  0.00    +0.000 A 
ATOM      8  N   UNL     1       1.976  12.421  19.059  0.00  0.00    +0.000 NA
ATOM      9  N   UNL     1       0.675  12.064  19.168  0.00  0.00    +0.000 N 
ENDROOT
BRANCH   1  13
ATOM     10  C   UNL     1       2.644   7.296  18.608  0.00  0.00    +0.000 A 
ATOM     11  C   UNL     1       2.304   8.134  17.530  0.00  0.00    +0.000 A 
ATOM     12  C   UNL     1       1.478   9.258  17.683  0.00  0.00    +0.000 A 
ATOM     13  C   UNL     1       0.953   9.576  18.938  0.00  0.00    +0.000 A 
ATOM     14  C   UNL     1       1.276   8.754  20.011  0.00  0.00    +0.000 A 
ATOM     15  F   UNL     1       0.806   9.035  21.236  0.00  0.00    +0.000 F 
ATOM     16  C   UNL     1       2.102   7.639  19.853  0.00  0.00    +0.000 A 
BRANCH  10  24
ATOM     17  C   UNL     1       5.836   3.628  16.032  0.00  0.00    +0.000 C 
ATOM     18  N   UNL     1       4.752   4.465  16.534  0.00  0.00    +0.000 NA
ATOM     19  C   UNL     1       5.171   5.892  16.710  0.00  0.00    +0.000 C 
ATOM     20  C   UNL     1       4.902   6.180  18.212  0.00  0.00    +0.000 C 
ATOM     21  C   UNL     1       5.276   4.826  18.820  0.00  0.00    +0.000 C 
ATOM     22  C   UNL     1       4.314   4.072  17.907  0.00  0.00    +0.000 C 
ATOM     23  C   UNL     1       2.972   4.814  18.233  0.00  0.00    +0.000 C 
ATOM     24  N   UNL     1       3.442   6.200  18.442  0.00  0.00    +0.000 N 
ENDBRANCH  10  24
ENDBRANCH   1  13
BRANCH   6  25
ATOM     25  C   UNL     1       0.211  15.647  19.668  0.00  0.00    +0.000 A 
ATOM     26  C   UNL     1      -0.375  16.422  18.656  0.00  0.00    +0.000 A 
ATOM     27  C   UNL     1      -0.777  17.740  18.901  0.00  0.00    +0.000 A 
ATOM     28  C   UNL     1      -0.559  18.319  20.149  0.00  0.00    +0.000 A 
ATOM     29  C   UNL     1       0.025  17.559  21.152  0.00  0.00    +0.000 A 
ATOM     30  C   UNL     1       0.366  16.227  20.935  0.00  0.00    +0.000 A 
BRANCH  29  31
ATOM     31  O   UNL     1       0.304  18.089  22.378  0.00  0.00    +0.000 OA
ATOM     32  H   UNL     1      -0.507  18.084  22.913  0.00  0.00    +0.000 HD
ENDBRANCH  29  31
ENDBRANCH   6  25
BRANCH   7  33
ATOM     33  C   UNL     1       3.284  14.477  19.093  0.00  0.00    +0.000 A 
ATOM     34  C   UNL     1       3.883  14.713  17.853  0.00  0.00    +0.000 A 
ATOM     35  C   UNL     1       5.158  15.256  17.826  0.00  0.00    +0.000 A 
ATOM     36  N   UNL     1       5.870  15.565  18.930  0.00  0.00    +0.000 NA
ATOM     37  C   UNL     1       5.259  15.367  20.115  0.00  0.00    +0.000 A 
ATOM     38  C   UNL     1       3.968  14.879  20.241  0.00  0.00    +0.000 A 
ENDBRANCH   7  33
TORSDOF 5
ENDMDL
MODEL 7
REMARK VINA RESULT:      -8.2      1.057      1.538
REMARK  Name = 
REMARK  6 active torsions:
REMARK  status: ('A' for Active; 'I' for Inactive)
REMARK    1  A    between atoms: C_1  and  N_2
REMARK    2  A    between atoms: N_8  and  C_9
REMARK    3  A    between atoms: C_12  and  C_13
REMARK    4  A    between atoms: C_18  and  C_19
REMARK    5  A    between atoms: C_23  and  O_24
REMARK    6  A    between atoms: C_26  and  C_27
REMARK                            x       y       z     vdW  Elec       q    Type
REMARK                         _______ _______ _______ _____ _____    ______ ____
ROOT
ATOM      1  C   UNL     1       0.222  10.698  19.220  0.00  0.00    +0.000 A 
ATOM      2  C   UNL     1      -1.122  10.646  19.189  0.00  0.00    +0.000 A 
ATOM      3  C   UNL     1      -1.810  11.954  19.091  0.00  0.00    +0.000 A 
ATOM      4  N   UNL     1      -1.244  13.117  19.050  0.00  0.00    +0.000 NA
ATOM      5  C   UNL     1       0.130  13.130  19.085  0.00  0.00    +0.000 A 
ATOM      6  C   UNL     1       1.046  14.169  19.084  0.00  0.00    +0.000 A 
ATOM      7  C   UNL     1       2.331  13.528  19.110  0.00  0.00    +0.000 A 
ATOM      8  N   UNL     1       2.208  12.193  19.181  0.00  0.00    +0.000 NA
ATOM      9  N   UNL     1       0.877  11.944  19.154  0.00  0.00    +0.000 N 
ENDROOT
BRANCH   1  13
ATOM     10  C   UNL     1       2.355   6.941  19.418  0.00  0.00    +0.000 A 
ATOM     11  C   UNL     1       1.597   7.420  20.502  0.00  0.00    +0.000 A 
ATOM     12  C   UNL     1       0.907   8.642  20.456  0.00  0.00    +0.000 A 
ATOM     13  C   UNL     1       0.966   9.436  19.308  0.00  0.00    +0.000 A 
ATOM     14  C   UNL     1       1.716   8.979  18.233  0.00  0.00    +0.000 A 
ATOM     15  F   UNL     1       1.784   9.705  17.105  0.00  0.00    +0.000 F 
ATOM     16  C   UNL     1       2.396   7.760  18.282  0.00  0.00    +0.000 A 
BRANCH  10  24
ATOM     17  C   UNL     1       3.666   1.730  18.235  0.00  0.00    +0.000 C 
ATOM     18  N   UNL     1       3.049   2.976  18.677  0.00  0.00    +0.000 NA
ATOM     19  C   UNL     1       3.218   4.080  17.680  0.00  0.00    +0.000 C 
ATOM     20  C   UNL     1       3.953   5.193  18.473  0.00  0.00    +0.000 C 
ATOM     21  C   UNL     1       4.866   4.342  19.357  0.00  0.00    +0.000 C 
ATOM     22  C   UNL     1       3.696   3.531  19.905  0.00  0.00    +0.000 C 
ATOM     23  C   UNL     1       2.792   4.680  20.468  0.00  0.00    +0.000 C 
ATOM     24  N   UNL     1       3.027   5.755  19.480  0.00  0.00    +0.000 N 
ENDBRANCH  10  24
ENDBRANCH   1  13
BRANCH   6  25
ATOM     25  C   UNL     1       0.665  15.585  19.088  0.00  0.00    +0.000 A 
ATOM     26  C   UNL     1      -0.368  16.060  19.909  0.00  0.00    +0.000 A 
ATOM     27  C   UNL     1      -0.759  17.403  19.871  0.00  0.00    +0.000 A 
ATOM     28  C   UNL     1      -0.153  18.284  18.978  0.00  0.00    +0.000 A 
ATOM     29  C   UNL     1       0.867  17.819  18.159  0.00  0.00    +0.000 A 
ATOM     30  C   UNL     1       1.306  16.500  18.240  0.00  0.00    +0.000 A 
BRANCH  29  31
ATOM     31  O   UNL     1       1.463  18.626  17.235  0.00  0.00    +0.000 OA
ATOM     32  H   UNL     1       1.803  18.075  16.512  0.00  0.00    +0.000 HD
ENDBRANCH  29  31
ENDBRANCH   6  25
BRANCH   7  33
ATOM     33  C   UNL     1       3.673  14.139  19.115  0.00  0.00    +0.000 A 
ATOM     34  C   UNL     1       4.188  14.695  20.289  0.00  0.00    +0.000 A 
ATOM     35  C   UNL     1       5.385  15.392  20.223  0.00  0.00    +0.000 A 
ATOM     36  N   UNL     1       6.086  15.580  19.085  0.00  0.00    +0.000 NA
ATOM     37  C   UNL     1       5.593  15.003  17.972  0.00  0.00    +0.000 A 
ATOM     38  C   UNL     1       4.434  14.244  17.949  0.00  0.00    +0.000 A 
ENDBRANCH   7  33
TORSDOF 5
ENDMDL
MODEL 8
REMARK VINA RESULT:      -8.0      2.932      7.915
REMARK  Name = 
REMARK  6 active torsions:
REMARK  status: ('A' for Active; 'I' for Inactive)
REMARK    1  A    between atoms: C_1  and  N_2
REMARK    2  A    between atoms: N_8  and  C_9
REMARK    3  A    between atoms: C_12  and  C_13
REMARK    4  A    between atoms: C_18  and  C_19
REMARK    5  A    between atoms: C_23  and  O_24
REMARK    6  A    between atoms: C_26  and  C_27
REMARK                            x       y       z     vdW  Elec       q    Type
REMARK                         _______ _______ _______ _____ _____    ______ ____
ROOT
ATOM      1  C   UNL     1       2.566  15.059  18.852  0.00  0.00    +0.000 A 
ATOM      2  C   UNL     1       1.936  16.244  18.750  0.00  0.00    +0.000 A 
ATOM      3  C   UNL     1       0.457  16.177  18.687  0.00  0.00    +0.000 A 
ATOM      4  N   UNL     1      -0.263  15.103  18.703  0.00  0.00    +0.000 NA
ATOM      5  C   UNL     1       0.416  13.912  18.805  0.00  0.00    +0.000 A 
ATOM      6  C   UNL     1      -0.018  12.597  18.825  0.00  0.00    +0.000 A 
ATOM      7  C   UNL     1       1.177  11.815  18.974  0.00  0.00    +0.000 A 
ATOM      8  N   UNL     1       2.269  12.595  18.985  0.00  0.00    +0.000 NA
ATOM      9  N   UNL     1       1.815  13.867  18.895  0.00  0.00    +0.000 N 
ENDROOT
BRANCH   1  13
ATOM     10  C   UNL     1       6.883  15.138  19.094  0.00  0.00    +0.000 A 
ATOM     11  C   UNL     1       6.213  14.952  17.871  0.00  0.00    +0.000 A 
ATOM     12  C   UNL     1       4.813  14.914  17.778  0.00  0.00    +0.000 A 
ATOM     13  C   UNL     1       4.032  15.054  18.927  0.00  0.00    +0.000 A 
ATOM     14  C   UNL     1       4.680  15.233  20.143  0.00  0.00    +0.000 A 
ATOM     15  F   UNL     1       3.963  15.389  21.267  0.00  0.00    +0.000 F 
ATOM     16  C   UNL     1       6.072  15.275  20.229  0.00  0.00    +0.000 A 
BRANCH  10  24
ATOM     17  C   UNL     1      12.069  13.339  18.710  0.00  0.00    +0.000 C 
ATOM     18  N   UNL     1      10.676  13.599  19.057  0.00  0.00    +0.000 NA
ATOM     19  C   UNL     1       9.816  13.798  17.847  0.00  0.00    +0.000 C 
ATOM     20  C   UNL     1       9.207  15.211  18.047  0.00  0.00    +0.000 C 
ATOM     21  C   UNL     1      10.389  15.927  18.703  0.00  0.00    +0.000 C 
ATOM     22  C   UNL     1      10.502  14.880  19.806  0.00  0.00    +0.000 C 
ATOM     23  C   UNL     1       9.047  14.922  20.388  0.00  0.00    +0.000 C 
ATOM     24  N   UNL     1       8.246  15.164  19.170  0.00  0.00    +0.000 N 
ENDBRANCH  10  24
ENDBRANCH   1  13
BRANCH   6  25
ATOM     25  C   UNL     1      -1.425  12.207  18.684  0.00  0.00    +0.000 A 
ATOM     26  C   UNL     1      -1.902  11.610  17.508  0.00  0.00    +0.000 A 
ATOM     27  C   UNL     1      -3.255  11.285  17.362  0.00  0.00    +0.000 A 
ATOM     28  C   UNL     1      -4.162  11.593  18.373  0.00  0.00    +0.000 A 
ATOM     29  C   UNL     1      -3.699  12.188  19.537  0.00  0.00    +0.000 A 
ATOM     30  C   UNL     1      -2.343  12.452  19.716  0.00  0.00    +0.000 A 
BRANCH  29  31
ATOM     31  O   UNL     1      -4.549  12.552  20.540  0.00  0.00    +0.000 OA
ATOM     32  H   UNL     1      -4.997  11.758  20.874  0.00  0.00    +0.000 HD
ENDBRANCH  29  31
ENDBRANCH   6  25
BRANCH   7  33
ATOM     33  C   UNL     1       1.323  10.351  19.061  0.00  0.00    +0.000 A 
ATOM     34  C   UNL     1       1.037   9.685  20.256  0.00  0.00    +0.000 A 
ATOM     35  C   UNL     1       1.328   8.333  20.348  0.00  0.00    +0.000 A 
ATOM     36  N   UNL     1       1.885   7.612  19.352  0.00  0.00    +0.000 NA
ATOM     37  C   UNL     1       2.116   8.263  18.194  0.00  0.00    +0.000 A 
ATOM     38  C   UNL     1       1.810   9.599  17.990  0.00  0.00    +0.000 A 
ENDBRANCH   7  33
TORSDOF 5
ENDMDL
MODEL 9
REMARK VINA RESULT:      -8.0      3.049      7.883
REMARK  Name = 
REMARK  6 active torsions:
REMARK  status: ('A' for Active; 'I' for Inactive)
REMARK    1  A    between atoms: C_1  and  N_2
REMARK    2  A    between atoms: N_8  and  C_9
REMARK    3  A    between atoms: C_12  and  C_13
REMARK    4  A    between atoms: C_18  and  C_19
REMARK    5  A    between atoms: C_23  and  O_24
REMARK    6  A    between atoms: C_26  and  C_27
REMARK                            x       y       z     vdW  Elec       q    Type
REMARK                         _______ _______ _______ _____ _____    ______ ____
ROOT
ATOM      1  C   UNL     1       2.713  15.123  18.870  0.00  0.00    +0.000 A 
ATOM      2  C   UNL     1       2.118  16.325  18.764  0.00  0.00    +0.000 A 
ATOM      3  C   UNL     1       0.638  16.303  18.704  0.00  0.00    +0.000 A 
ATOM      4  N   UNL     1      -0.114  15.251  18.727  0.00  0.00    +0.000 NA
ATOM      5  C   UNL     1       0.530  14.041  18.834  0.00  0.00    +0.000 A 
ATOM      6  C   UNL     1       0.056  12.740  18.862  0.00  0.00    +0.000 A 
ATOM      7  C   UNL     1       1.228  11.923  19.012  0.00  0.00    +0.000 A 
ATOM      8  N   UNL     1       2.343  12.669  19.017  0.00  0.00    +0.000 NA
ATOM      9  N   UNL     1       1.927  13.954  18.921  0.00  0.00    +0.000 N 
ENDROOT
BRANCH   1  13
ATOM     10  C   UNL     1       7.031  15.073  19.103  0.00  0.00    +0.000 A 
ATOM     11  C   UNL     1       6.354  14.903  17.881  0.00  0.00    +0.000 A 
ATOM     12  C   UNL     1       4.952  14.907  17.792  0.00  0.00    +0.000 A 
ATOM     13  C   UNL     1       4.178  15.075  18.942  0.00  0.00    +0.000 A 
ATOM     14  C   UNL     1       4.834  15.238  20.156  0.00  0.00    +0.000 A 
ATOM     15  F   UNL     1       4.125  15.419  21.281  0.00  0.00    +0.000 F 
ATOM     16  C   UNL     1       6.227  15.238  20.238  0.00  0.00    +0.000 A 
BRANCH  10  24
ATOM     17  C   UNL     1      12.165  13.156  18.617  0.00  0.00    +0.000 C 
ATOM     18  N   UNL     1      10.781  13.436  18.980  0.00  0.00    +0.000 NA
ATOM     19  C   UNL     1       9.925  13.716  17.784  0.00  0.00    +0.000 C 
ATOM     20  C   UNL     1       9.354  15.134  18.054  0.00  0.00    +0.000 C 
ATOM     21  C   UNL     1      10.557  15.786  18.739  0.00  0.00    +0.000 C 
ATOM     22  C   UNL     1      10.643  14.684  19.791  0.00  0.00    +0.000 C 
ATOM     23  C   UNL     1       9.191  14.738  20.378  0.00  0.00    +0.000 C 
ATOM     24  N   UNL     1       8.394  15.059  19.176  0.00  0.00    +0.000 N 
ENDBRANCH  10  24
ENDBRANCH   1  13
BRANCH   6  25
ATOM     25  C   UNL     1      -1.362  12.391  18.725  0.00  0.00    +0.000 A 
ATOM     26  C   UNL     1      -2.274  12.625  19.765  0.00  0.00    +0.000 A 
ATOM     27  C   UNL     1      -3.615  12.245  19.647  0.00  0.00    +0.000 A 
ATOM     28  C   UNL     1      -4.057  11.582  18.503  0.00  0.00    +0.000 A 
ATOM     29  C   UNL     1      -3.159  11.343  17.473  0.00  0.00    +0.000 A 
ATOM     30  C   UNL     1      -1.839  11.779  17.557  0.00  0.00    +0.000 A 
BRANCH  29  31
ATOM     31  O   UNL     1      -3.526  10.659  16.351  0.00  0.00    +0.000 OA
ATOM     32  H   UNL     1      -4.482  10.490  16.386  0.00  0.00    +0.000 HD
ENDBRANCH  29  31
ENDBRANCH   6  25
BRANCH   7  33
ATOM     33  C   UNL     1       1.330  10.455  19.106  0.00  0.00    +0.000 A 
ATOM     34  C   UNL     1       0.988   9.801  20.292  0.00  0.00    +0.000 A 
ATOM     35  C   UNL     1       1.238   8.441  20.395  0.00  0.00    +0.000 A 
ATOM     36  N   UNL     1       1.806   7.702  19.419  0.00  0.00    +0.000 NA
ATOM     37  C   UNL     1       2.091   8.344  18.268  0.00  0.00    +0.000 A 
ATOM     38  C   UNL     1       1.830   9.687  18.052  0.00  0.00    +0.000 A 
ENDBRANCH   7  33
TORSDOF 5
ENDMDL
