MODEL 1
REMARK VINA RESULT:      -7.6      0.000      0.000
REMARK  Name = 
REMARK  7 active torsions:
REMARK  status: ('A' for Active; 'I' for Inactive)
REMARK    1  A    between atoms: C_1  and  C_2
REMARK    2  A    between atoms: C_2  and  C_3
REMARK    3  A    between atoms: C_2  and  C_6
REMARK    4  A    between atoms: C_3  and  O_5
REMARK    5  A    between atoms: C_9  and  N_10
REMARK    6  A    between atoms: N_10  and  C_11
REMARK    7  A    between atoms: C_15  and  O_16
REMARK                            x       y       z     vdW  Elec       q    Type
REMARK                         _______ _______ _______ _____ _____    ______ ____
ROOT
ATOM      1  C   UNL     1       2.027   4.223  19.174  0.00  0.00    +0.000 A 
ATOM      2  C   UNL     1       2.606   3.797  17.974  0.00  0.00    +0.000 A 
ATOM      3  C   UNL     1       3.521   4.617  17.302  0.00  0.00    +0.000 A 
ATOM      4  C   UNL     1       3.906   5.861  17.820  0.00  0.00    +0.000 A 
ATOM      5  C   UNL     1       3.305   6.290  19.004  0.00  0.00    +0.000 A 
ATOM      6  C   UNL     1       2.382   5.481  19.663  0.00  0.00    +0.000 A 
ATOM      7  F   UNL     1       1.863   5.916  20.820  0.00  0.00    +0.000 F 
ENDROOT
BRANCH   1   9
ATOM      8  C   UNL     1       0.487   2.240  19.085  0.00  0.00    +0.000 C 
ATOM      9  C   UNL     1       1.076   3.346  19.965  0.00  0.00    +0.000 C 
BRANCH   9  10
ATOM     10  C   UNL     1       1.731   2.774  21.224  0.00  0.00    +0.000 C 
ATOM     11  O   UNL     1       1.148   2.585  22.282  0.00  0.00    +0.000 OA
BRANCH  10  12
ATOM     12  O   UNL     1       3.055   2.524  21.082  0.00  0.00    +0.000 OA
ATOM     13  H   UNL     1       3.509   3.117  20.455  0.00  0.00    +0.000 HD
ENDBRANCH  10  12
ENDBRANCH   9  10
ENDBRANCH   1   9
BRANCH   4  14
ATOM     14  N   UNL     1       4.901   6.568  17.149  0.00  0.00    +0.000 N 
ATOM     15  H   UNL     1       4.722   7.572  17.141  0.00  0.00    +0.000 HD
BRANCH  14  16
ATOM     16  C   UNL     1       6.311   6.223  17.315  0.00  0.00    +0.000 C 
ATOM     17  C   UNL     1       7.192   7.483  17.341  0.00  0.00    +0.000 C 
ATOM     18  C   UNL     1       8.148   7.331  18.523  0.00  0.00    +0.000 C 
ATOM     19  C   UNL     1       8.013   5.886  18.974  0.00  0.00    +0.000 C 
ATOM     20  C   UNL     1       6.556   5.560  18.684  0.00  0.00    +0.000 C 
BRANCH  20  21
ATOM     21  O   UNL     1       6.327   4.159  18.657  0.00  0.00    +0.000 OA
ATOM     22  H   UNL     1       6.245   3.841  19.572  0.00  0.00    +0.000 HD
ENDBRANCH  20  21
ENDBRANCH  14  16
ENDBRANCH   4  14
TORSDOF 6
ENDMDL
MODEL 2
REMARK VINA RESULT:      -7.5      2.341      5.950
REMARK  Name = 
REMARK  7 active torsions:
REMARK  status: ('A' for Active; 'I' for Inactive)
REMARK    1  A    between atoms: C_1  and  C_2
REMARK    2  A    between atoms: C_2  and  C_3
REMARK    3  A    between atoms: C_2  and  C_6
REMARK    4  A    between atoms: C_3  and  O_5
REMARK    5  A    between atoms: C_9  and  N_10
REMARK    6  A    between atoms: N_10  and  C_11
REMARK    7  A    between atoms: C_15  and  O_16
REMARK                            x       y       z     vdW  Elec       q    Type
REMARK                         _______ _______ _______ _____ _____    ______ ____
ROOT
ATOM      1  C   UNL     1       5.473   5.493  17.352  0.00  0.00    +0.000 A 
ATOM      2  C   UNL     1       4.573   6.367  17.973  0.00  0.00    +0.000 A 
ATOM      3  C   UNL     1       3.228   6.007  18.120  0.00  0.00    +0.000 A 
ATOM      4  C   UNL     1       2.752   4.762  17.685  0.00  0.00    +0.000 A 
ATOM      5  C   UNL     1       3.651   3.907  17.044  0.00  0.00    +0.000 A 
ATOM      6  C   UNL     1       4.984   4.274  16.883  0.00  0.00    +0.000 A 
ATOM      7  F   UNL     1       5.819   3.402  16.300  0.00  0.00    +0.000 F 
ENDROOT
BRANCH   1   9
ATOM      8  C   UNL     1       7.190   7.327  17.301  0.00  0.00    +0.000 C 
ATOM      9  C   UNL     1       6.948   5.817  17.222  0.00  0.00    +0.000 C 
BRANCH   9  10
ATOM     10  C   UNL     1       7.798   5.057  18.243  0.00  0.00    +0.000 C 
ATOM     11  O   UNL     1       7.934   5.387  19.412  0.00  0.00    +0.000 OA
BRANCH  10  12
ATOM     12  O   UNL     1       8.436   3.980  17.724  0.00  0.00    +0.000 OA
ATOM     13  H   UNL     1       9.409   4.025  17.784  0.00  0.00    +0.000 HD
ENDBRANCH  10  12
ENDBRANCH   9  10
ENDBRANCH   1   9
BRANCH   4  14
ATOM     14  N   UNL     1       1.427   4.436  17.965  0.00  0.00    +0.000 N 
ATOM     15  H   UNL     1       0.967   3.980  17.176  0.00  0.00    +0.000 HD
BRANCH  14  16
ATOM     16  C   UNL     1       1.046   3.887  19.265  0.00  0.00    +0.000 C 
ATOM     17  C   UNL     1       1.374   2.389  19.354  0.00  0.00    +0.000 C 
ATOM     18  C   UNL     1       2.073   2.166  20.694  0.00  0.00    +0.000 C 
ATOM     19  C   UNL     1       1.878   3.455  21.475  0.00  0.00    +0.000 C 
ATOM     20  C   UNL     1       1.878   4.525  20.394  0.00  0.00    +0.000 C 
BRANCH  20  21
ATOM     21  O   UNL     1       1.314   5.742  20.862  0.00  0.00    +0.000 OA
ATOM     22  H   UNL     1       1.335   5.740  21.834  0.00  0.00    +0.000 HD
ENDBRANCH  20  21
ENDBRANCH  14  16
ENDBRANCH   4  14
TORSDOF 6
ENDMDL
MODEL 3
REMARK VINA RESULT:      -7.5      2.069      5.965
REMARK  Name = 
REMARK  7 active torsions:
REMARK  status: ('A' for Active; 'I' for Inactive)
REMARK    1  A    between atoms: C_1  and  C_2
REMARK    2  A    between atoms: C_2  and  C_3
REMARK    3  A    between atoms: C_2  and  C_6
REMARK    4  A    between atoms: C_3  and  O_5
REMARK    5  A    between atoms: C_9  and  N_10
REMARK    6  A    between atoms: N_10  and  C_11
REMARK    7  A    between atoms: C_15  and  O_16
REMARK                            x       y       z     vdW  Elec       q    Type
REMARK                         _______ _______ _______ _____ _____    ______ ____
ROOT
ATOM      1  C   UNL     1       5.408   6.013  17.781  0.00  0.00    +0.000 A 
ATOM      2  C   UNL     1       5.412   5.282  18.974  0.00  0.00    +0.000 A 
ATOM      3  C   UNL     1       4.250   5.190  19.749  0.00  0.00    +0.000 A 
ATOM      4  C   UNL     1       3.051   5.792  19.344  0.00  0.00    +0.000 A 
ATOM      5  C   UNL     1       3.062   6.540  18.165  0.00  0.00    +0.000 A 
ATOM      6  C   UNL     1       4.223   6.645  17.405  0.00  0.00    +0.000 A 
ATOM      7  F   UNL     1       4.174   7.339  16.258  0.00  0.00    +0.000 F 
ENDROOT
BRANCH   1   9
ATOM      8  C   UNL     1       7.751   6.891  17.548  0.00  0.00    +0.000 C 
ATOM      9  C   UNL     1       6.626   6.093  16.883  0.00  0.00    +0.000 C 
BRANCH   9  10
ATOM     10  C   UNL     1       7.106   4.709  16.437  0.00  0.00    +0.000 C 
ATOM     11  O   UNL     1       6.636   4.083  15.499  0.00  0.00    +0.000 OA
BRANCH  10  12
ATOM     12  O   UNL     1       8.096   4.202  17.212  0.00  0.00    +0.000 OA
ATOM     13  H   UNL     1       8.292   3.261  17.044  0.00  0.00    +0.000 HD
ENDBRANCH  10  12
ENDBRANCH   9  10
ENDBRANCH   1   9
BRANCH   4  14
ATOM     14  N   UNL     1       1.913   5.564  20.114  0.00  0.00    +0.000 N 
ATOM     15  H   UNL     1       1.261   6.348  20.081  0.00  0.00    +0.000 HD
BRANCH  14  16
ATOM     16  C   UNL     1       1.259   4.256  20.122  0.00  0.00    +0.000 C 
ATOM     17  C   UNL     1       1.053   3.730  18.693  0.00  0.00    +0.000 C 
ATOM     18  C   UNL     1       1.519   2.275  18.685  0.00  0.00    +0.000 C 
ATOM     19  C   UNL     1       1.706   1.898  20.145  0.00  0.00    +0.000 C 
ATOM     20  C   UNL     1       2.159   3.198  20.790  0.00  0.00    +0.000 C 
BRANCH  20  21
ATOM     21  O   UNL     1       2.003   3.166  22.201  0.00  0.00    +0.000 OA
ATOM     22  H   UNL     1       2.775   3.594  22.608  0.00  0.00    +0.000 HD
ENDBRANCH  20  21
ENDBRANCH  14  16
ENDBRANCH   4  14
TORSDOF 6
ENDMDL
MODEL 4
REMARK VINA RESULT:      -7.4      0.887      1.199
REMARK  Name = 
REMARK  7 active torsions:
REMARK  status: ('A' for Active; 'I' for Inactive)
REMARK    1  A    between atoms: C_1  and  C_2
REMARK    2  A    between atoms: C_2  and  C_3
REMARK    3  A    between atoms: C_2  and  C_6
REMARK    4  A    between atoms: C_3  and  O_5
REMARK    5  A    between atoms: C_9  and  N_10
REMARK    6  A    between atoms: N_10  and  C_11
REMARK    7  A    between atoms: C_15  and  O_16
REMARK                            x       y       z     vdW  Elec       q    Type
REMARK                         _______ _______ _______ _____ _____    ______ ____
ROOT
ATOM      1  C   UNL     1       2.155   4.226  19.021  0.00  0.00    +0.000 A 
ATOM      2  C   UNL     1       2.612   3.684  17.815  0.00  0.00    +0.000 A 
ATOM      3  C   UNL     1       3.471   4.420  16.991  0.00  0.00    +0.000 A 
ATOM      4  C   UNL     1       3.921   5.696  17.357  0.00  0.00    +0.000 A 
ATOM      5  C   UNL     1       3.441   6.239  18.550  0.00  0.00    +0.000 A 
ATOM      6  C   UNL     1       2.574   5.513  19.361  0.00  0.00    +0.000 A 
ATOM      7  F   UNL     1       2.174   6.059  20.518  0.00  0.00    +0.000 F 
ENDROOT
BRANCH   1   9
ATOM      8  C   UNL     1       0.463   2.379  19.223  0.00  0.00    +0.000 C 
ATOM      9  C   UNL     1       1.271   3.443  19.972  0.00  0.00    +0.000 C 
BRANCH   9  10
ATOM     10  C   UNL     1       2.066   2.833  21.129  0.00  0.00    +0.000 C 
ATOM     11  O   UNL     1       3.255   2.554  21.081  0.00  0.00    +0.000 OA
BRANCH  10  12
ATOM     12  O   UNL     1       1.317   2.586  22.231  0.00  0.00    +0.000 OA
ATOM     13  H   UNL     1       1.599   1.802  22.738  0.00  0.00    +0.000 HD
ENDBRANCH  10  12
ENDBRANCH   9  10
ENDBRANCH   1   9
BRANCH   4  14
ATOM     14  N   UNL     1       4.858   6.318  16.536  0.00  0.00    +0.000 N 
ATOM     15  H   UNL     1       4.645   7.305  16.386  0.00  0.00    +0.000 HD
BRANCH  14  16
ATOM     16  C   UNL     1       6.286   6.040  16.677  0.00  0.00    +0.000 C 
ATOM     17  C   UNL     1       6.920   6.927  17.761  0.00  0.00    +0.000 C 
ATOM     18  C   UNL     1       7.774   6.014  18.638  0.00  0.00    +0.000 C 
ATOM     19  C   UNL     1       7.859   4.693  17.892  0.00  0.00    +0.000 C 
ATOM     20  C   UNL     1       6.517   4.602  17.182  0.00  0.00    +0.000 C 
BRANCH  20  21
ATOM     21  O   UNL     1       6.546   3.655  16.123  0.00  0.00    +0.000 OA
ATOM     22  H   UNL     1       6.693   4.130  15.288  0.00  0.00    +0.000 HD
ENDBRANCH  20  21
ENDBRANCH  14  16
ENDBRANCH   4  14
TORSDOF 6
ENDMDL
MODEL 5
REMARK VINA RESULT:      -7.4      2.477      6.153
REMARK  Name = 
REMARK  7 active torsions:
REMARK  status: ('A' for Active; 'I' for Inactive)
REMARK    1  A    between atoms: C_1  and  C_2
REMARK    2  A    between atoms: C_2  and  C_3
REMARK    3  A    between atoms: C_2  and  C_6
REMARK    4  A    between atoms: C_3  and  O_5
REMARK    5  A    between atoms: C_9  and  N_10
REMARK    6  A    between atoms: N_10  and  C_11
REMARK    7  A    between atoms: C_15  and  O_16
REMARK                            x       y       z     vdW  Elec       q    Type
REMARK                         _______ _______ _______ _____ _____    ______ ____
ROOT
ATOM      1  C   UNL     1       5.883   5.605  17.495  0.00  0.00    +0.000 A 
ATOM      2  C   UNL     1       4.765   6.071  18.195  0.00  0.00    +0.000 A 
ATOM      3  C   UNL     1       3.586   5.317  18.225  0.00  0.00    +0.000 A 
ATOM      4  C   UNL     1       3.499   4.070  17.590  0.00  0.00    +0.000 A 
ATOM      5  C   UNL     1       4.610   3.624  16.873  0.00  0.00    +0.000 A 
ATOM      6  C   UNL     1       5.776   4.383  16.830  0.00  0.00    +0.000 A 
ATOM      7  F   UNL     1       6.832   3.894  16.165  0.00  0.00    +0.000 F 
ENDROOT
BRANCH   1   9
ATOM      8  C   UNL     1       6.980   7.838  17.146  0.00  0.00    +0.000 C 
ATOM      9  C   UNL     1       7.197   6.360  17.483  0.00  0.00    +0.000 C 
BRANCH   9  10
ATOM     10  C   UNL     1       7.973   6.190  18.792  0.00  0.00    +0.000 C 
ATOM     11  O   UNL     1       7.971   5.173  19.469  0.00  0.00    +0.000 OA
BRANCH  10  12
ATOM     12  O   UNL     1       8.649   7.301  19.170  0.00  0.00    +0.000 OA
ATOM     13  H   UNL     1       8.117   7.937  19.684  0.00  0.00    +0.000 HD
ENDBRANCH  10  12
ENDBRANCH   9  10
ENDBRANCH   1   9
BRANCH   4  14
ATOM     14  N   UNL     1       2.329   3.333  17.757  0.00  0.00    +0.000 N 
ATOM     15  H   UNL     1       2.036   2.874  16.894  0.00  0.00    +0.000 HD
BRANCH  14  16
ATOM     16  C   UNL     1       2.114   2.524  18.955  0.00  0.00    +0.000 C 
ATOM     17  C   UNL     1       3.383   2.462  19.819  0.00  0.00    +0.000 C 
ATOM     18  C   UNL     1       2.954   2.735  21.260  0.00  0.00    +0.000 C 
ATOM     19  C   UNL     1       1.436   2.658  21.255  0.00  0.00    +0.000 C 
ATOM     20  C   UNL     1       1.061   3.175  19.874  0.00  0.00    +0.000 C 
BRANCH  20  21
ATOM     21  O   UNL     1      -0.266   2.812  19.520  0.00  0.00    +0.000 OA
ATOM     22  H   UNL     1      -0.740   3.612  19.237  0.00  0.00    +0.000 HD
ENDBRANCH  20  21
ENDBRANCH  14  16
ENDBRANCH   4  14
TORSDOF 6
ENDMDL
MODEL 6
REMARK VINA RESULT:      -7.4      1.211      1.543
REMARK  Name = 
REMARK  7 active torsions:
REMARK  status: ('A' for Active; 'I' for Inactive)
REMARK    1  A    between atoms: C_1  and  C_2
REMARK    2  A    between atoms: C_2  and  C_3
REMARK    3  A    between atoms: C_2  and  C_6
REMARK    4  A    between atoms: C_3  and  O_5
REMARK    5  A    between atoms: C_9  and  N_10
REMARK    6  A    between atoms: N_10  and  C_11
REMARK    7  A    between atoms: C_15  and  O_16
REMARK                            x       y       z     vdW  Elec       q    Type
REMARK                         _______ _______ _______ _____ _____    ______ ____
ROOT
ATOM      1  C   UNL     1       2.027   4.333  19.205  0.00  0.00    +0.000 A 
ATOM      2  C   UNL     1       2.635   3.986  17.994  0.00  0.00    +0.000 A 
ATOM      3  C   UNL     1       3.467   4.898  17.334  0.00  0.00    +0.000 A 
ATOM      4  C   UNL     1       3.740   6.163  17.875  0.00  0.00    +0.000 A 
ATOM      5  C   UNL     1       3.108   6.511  19.070  0.00  0.00    +0.000 A 
ATOM      6  C   UNL     1       2.268   5.609  19.716  0.00  0.00    +0.000 A 
ATOM      7  F   UNL     1       1.719   5.972  20.884  0.00  0.00    +0.000 F 
ENDROOT
BRANCH   1   9
ATOM      8  C   UNL     1       0.615   2.259  19.067  0.00  0.00    +0.000 C 
ATOM      9  C   UNL     1       1.166   3.357  19.981  0.00  0.00    +0.000 C 
BRANCH   9  10
ATOM     10  C   UNL     1       1.904   2.768  21.186  0.00  0.00    +0.000 C 
ATOM     11  O   UNL     1       1.394   2.562  22.277  0.00  0.00    +0.000 OA
BRANCH  10  12
ATOM     12  O   UNL     1       3.216   2.522  20.951  0.00  0.00    +0.000 OA
ATOM     13  H   UNL     1       3.809   2.793  21.677  0.00  0.00    +0.000 HD
ENDBRANCH  10  12
ENDBRANCH   9  10
ENDBRANCH   1   9
BRANCH   4  14
ATOM     14  N   UNL     1       4.661   6.971  17.213  0.00  0.00    +0.000 N 
ATOM     15  H   UNL     1       4.565   7.954  17.468  0.00  0.00    +0.000 HD
BRANCH  14  16
ATOM     16  C   UNL     1       6.047   6.542  17.035  0.00  0.00    +0.000 C 
ATOM     17  C   UNL     1       6.641   6.024  18.354  0.00  0.00    +0.000 C 
ATOM     18  C   UNL     1       7.345   4.706  18.036  0.00  0.00    +0.000 C 
ATOM     19  C   UNL     1       7.404   4.630  16.520  0.00  0.00    +0.000 C 
ATOM     20  C   UNL     1       6.129   5.334  16.082  0.00  0.00    +0.000 C 
BRANCH  20  21
ATOM     21  O   UNL     1       6.187   5.724  14.717  0.00  0.00    +0.000 OA
ATOM     22  H   UNL     1       6.754   5.095  14.240  0.00  0.00    +0.000 HD
ENDBRANCH  20  21
ENDBRANCH  14  16
ENDBRANCH   4  14
TORSDOF 6
ENDMDL
MODEL 7
REMARK VINA RESULT:      -7.4      0.967      1.122
REMARK  Name = 
REMARK  7 active torsions:
REMARK  status: ('A' for Active; 'I' for Inactive)
REMARK    1  A    between atoms: C_1  and  C_2
REMARK    2  A    between atoms: C_2  and  C_3
REMARK    3  A    between atoms: C_2  and  C_6
REMARK    4  A    between atoms: C_3  and  O_5
REMARK    5  A    between atoms: C_9  and  N_10
REMARK    6  A    between atoms: N_10  and  C_11
REMARK    7  A    between atoms: C_15  and  O_16
REMARK                            x       y       z     vdW  Elec       q    Type
REMARK                         _______ _______ _______ _____ _____    ______ ____
ROOT
ATOM      1  C   UNL     1       2.320   4.414  18.506  0.00  0.00    +0.000 A 
ATOM      2  C   UNL     1       3.069   3.560  17.688  0.00  0.00    +0.000 A 
ATOM      3  C   UNL     1       4.116   4.067  16.910  0.00  0.00    +0.000 A 
ATOM      4  C   UNL     1       4.465   5.425  16.948  0.00  0.00    +0.000 A 
ATOM      5  C   UNL     1       3.697   6.273  17.747  0.00  0.00    +0.000 A 
ATOM      6  C   UNL     1       2.645   5.771  18.507  0.00  0.00    +0.000 A 
ATOM      7  F   UNL     1       1.963   6.617  19.292  0.00  0.00    +0.000 F 
ENDROOT
BRANCH   1   9
ATOM      8  C   UNL     1       0.606   2.609  18.852  0.00  0.00    +0.000 C 
ATOM      9  C   UNL     1       1.216   3.899  19.408  0.00  0.00    +0.000 C 
BRANCH   9  10
ATOM     10  C   UNL     1       1.687   3.722  20.853  0.00  0.00    +0.000 C 
ATOM     11  O   UNL     1       2.409   4.509  21.447  0.00  0.00    +0.000 OA
BRANCH  10  12
ATOM     12  O   UNL     1       1.259   2.571  21.426  0.00  0.00    +0.000 OA
ATOM     13  H   UNL     1       1.951   1.891  21.523  0.00  0.00    +0.000 HD
ENDBRANCH  10  12
ENDBRANCH   9  10
ENDBRANCH   1   9
BRANCH   4  14
ATOM     14  N   UNL     1       5.586   5.831  16.229  0.00  0.00    +0.000 N 
ATOM     15  H   UNL     1       5.391   6.637  15.634  0.00  0.00    +0.000 HD
BRANCH  14  16
ATOM     16  C   UNL     1       6.908   5.864  16.850  0.00  0.00    +0.000 C 
ATOM     17  C   UNL     1       7.434   7.304  16.962  0.00  0.00    +0.000 C 
ATOM     18  C   UNL     1       7.970   7.472  18.383  0.00  0.00    +0.000 C 
ATOM     19  C   UNL     1       8.019   6.071  18.969  0.00  0.00    +0.000 C 
ATOM     20  C   UNL     1       6.840   5.371  18.309  0.00  0.00    +0.000 C 
BRANCH  20  21
ATOM     21  O   UNL     1       6.946   3.958  18.409  0.00  0.00    +0.000 OA
ATOM     22  H   UNL     1       6.050   3.583  18.449  0.00  0.00    +0.000 HD
ENDBRANCH  20  21
ENDBRANCH  14  16
ENDBRANCH   4  14
TORSDOF 6
ENDMDL
MODEL 8
REMARK VINA RESULT:      -7.4      3.273      4.175
REMARK  Name = 
REMARK  7 active torsions:
REMARK  status: ('A' for Active; 'I' for Inactive)
REMARK    1  A    between atoms: C_1  and  C_2
REMARK    2  A    between atoms: C_2  and  C_3
REMARK    3  A    between atoms: C_2  and  C_6
REMARK    4  A    between atoms: C_3  and  O_5
REMARK    5  A    between atoms: C_9  and  N_10
REMARK    6  A    between atoms: N_10  and  C_11
REMARK    7  A    between atoms: C_15  and  O_16
REMARK                            x       y       z     vdW  Elec       q    Type
REMARK                         _______ _______ _______ _____ _____    ______ ____
ROOT
ATOM      1  C   UNL     1       3.572   5.019  18.497  0.00  0.00    +0.000 A 
ATOM      2  C   UNL     1       3.542   6.228  17.793  0.00  0.00    +0.000 A 
ATOM      3  C   UNL     1       4.485   6.484  16.790  0.00  0.00    +0.000 A 
ATOM      4  C   UNL     1       5.458   5.536  16.441  0.00  0.00    +0.000 A 
ATOM      5  C   UNL     1       5.496   4.344  17.165  0.00  0.00    +0.000 A 
ATOM      6  C   UNL     1       4.569   4.097  18.173  0.00  0.00    +0.000 A 
ATOM      7  F   UNL     1       4.618   2.920  18.812  0.00  0.00    +0.000 F 
ENDROOT
BRANCH   1   9
ATOM      8  C   UNL     1       2.024   5.937  20.251  0.00  0.00    +0.000 C 
ATOM      9  C   UNL     1       2.537   4.676  19.550  0.00  0.00    +0.000 C 
BRANCH   9  10
ATOM     10  C   UNL     1       1.387   3.843  18.978  0.00  0.00    +0.000 C 
ATOM     11  O   UNL     1       1.169   3.691  17.785  0.00  0.00    +0.000 OA
BRANCH  10  12
ATOM     12  O   UNL     1       0.584   3.303  19.927  0.00  0.00    +0.000 OA
ATOM     13  H   UNL     1      -0.046   2.640  19.587  0.00  0.00    +0.000 HD
ENDBRANCH  10  12
ENDBRANCH   9  10
ENDBRANCH   1   9
BRANCH   4  14
ATOM     14  N   UNL     1       6.290   5.823  15.362  0.00  0.00    +0.000 N 
ATOM     15  H   UNL     1       6.963   6.558  15.578  0.00  0.00    +0.000 HD
BRANCH  14  16
ATOM     16  C   UNL     1       6.835   4.753  14.528  0.00  0.00    +0.000 C 
ATOM     17  C   UNL     1       5.732   3.781  14.081  0.00  0.00    +0.000 C 
ATOM     18  C   UNL     1       5.922   3.553  12.582  0.00  0.00    +0.000 C 
ATOM     19  C   UNL     1       7.279   4.147  12.247  0.00  0.00    +0.000 C 
ATOM     20  C   UNL     1       7.398   5.320  13.209  0.00  0.00    +0.000 C 
BRANCH  20  21
ATOM     21  O   UNL     1       8.742   5.759  13.338  0.00  0.00    +0.000 OA
ATOM     22  H   UNL     1       9.244   5.452  12.564  0.00  0.00    +0.000 HD
ENDBRANCH  20  21
ENDBRANCH  14  16
ENDBRANCH   4  14
TORSDOF 6
ENDMDL
MODEL 9
REMARK VINA RESULT:      -7.3      2.629      5.910
REMARK  Name = 
REMARK  7 active torsions:
REMARK  status: ('A' for Active; 'I' for Inactive)
REMARK    1  A    between atoms: C_1  and  C_2
REMARK    2  A    between atoms: C_2  and  C_3
REMARK    3  A    between atoms: C_2  and  C_6
REMARK    4  A    between atoms: C_3  and  O_5
REMARK    5  A    between atoms: C_9  and  N_10
REMARK    6  A    between atoms: N_10  and  C_11
REMARK    7  A    between atoms: C_15  and  O_16
REMARK                            x       y       z     vdW  Elec       q    Type
REMARK                         _______ _______ _______ _____ _____    ______ ____
ROOT
ATOM      1  C   UNL     1       4.911   4.065  16.535  0.00  0.00    +0.000 A 
ATOM      2  C   UNL     1       4.203   2.925  16.930  0.00  0.00    +0.000 A 
ATOM      3  C   UNL     1       3.001   3.050  17.638  0.00  0.00    +0.000 A 
ATOM      4  C   UNL     1       2.459   4.307  17.942  0.00  0.00    +0.000 A 
ATOM      5  C   UNL     1       3.185   5.439  17.567  0.00  0.00    +0.000 A 
ATOM      6  C   UNL     1       4.387   5.312  16.878  0.00  0.00    +0.000 A 
ATOM      7  F   UNL     1       5.027   6.428  16.500  0.00  0.00    +0.000 F 
ENDROOT
BRANCH   1   9
ATOM      8  C   UNL     1       5.946   4.429  14.274  0.00  0.00    +0.000 C 
ATOM      9  C   UNL     1       6.184   3.977  15.718  0.00  0.00    +0.000 C 
BRANCH   9  10
ATOM     10  C   UNL     1       7.339   4.747  16.364  0.00  0.00    +0.000 C 
ATOM     11  O   UNL     1       7.888   4.424  17.407  0.00  0.00    +0.000 OA
BRANCH  10  12
ATOM     12  O   UNL     1       7.687   5.870  15.690  0.00  0.00    +0.000 OA
ATOM     13  H   UNL     1       6.933   6.360  15.313  0.00  0.00    +0.000 HD
ENDBRANCH  10  12
ENDBRANCH   9  10
ENDBRANCH   1   9
BRANCH   4  14
ATOM     14  N   UNL     1       1.208   4.347  18.553  0.00  0.00    +0.000 N 
ATOM     15  H   UNL     1       0.492   3.881  17.996  0.00  0.00    +0.000 HD
BRANCH  14  16
ATOM     16  C   UNL     1       1.067   4.134  19.992  0.00  0.00    +0.000 C 
ATOM     17  C   UNL     1       0.956   2.638  20.324  0.00  0.00    +0.000 C 
ATOM     18  C   UNL     1       1.908   2.369  21.488  0.00  0.00    +0.000 C 
ATOM     19  C   UNL     1       2.325   3.739  21.998  0.00  0.00    +0.000 C 
ATOM     20  C   UNL     1       2.331   4.596  20.742  0.00  0.00    +0.000 C 
BRANCH  20  21
ATOM     21  O   UNL     1       2.301   5.982  21.053  0.00  0.00    +0.000 OA
ATOM     22  H   UNL     1       3.206   6.333  20.988  0.00  0.00    +0.000 HD
ENDBRANCH  20  21
ENDBRANCH  14  16
ENDBRANCH   4  14
TORSDOF 6
ENDMDL
