MODEL 1
REMARK VINA RESULT:      -7.4      0.000      0.000
REMARK  Name = 
REMARK  7 active torsions:
REMARK  status: ('A' for Active; 'I' for Inactive)
REMARK    1  A    between atoms: C_1  and  O_2
REMARK    2  A    between atoms: O_2  and  C_3
REMARK    3  A    between atoms: C_9  and  S_10
REMARK    4  A    between atoms: S_10  and  C_11
REMARK    5  A    between atoms: C_14  and  C_15
REMARK    6  A    between atoms: C_20  and  O_21
REMARK    7  A    between atoms: O_21  and  C_22
REMARK                            x       y       z     vdW  Elec       q    Type
REMARK                         _______ _______ _______ _____ _____    ______ ____
ROOT
ATOM      1  C   UNL     1       1.689   7.405  20.445  0.00  0.00    +0.000 A 
ATOM      2  C   UNL     1       1.463   6.152  21.044  0.00  0.00    +0.000 A 
ATOM      3  C   UNL     1       1.900   4.959  20.487  0.00  0.00    +0.000 A 
ATOM      4  N   UNL     1       1.697   3.832  21.177  0.00  0.00    +0.000 NA
ATOM      5  C   UNL     1       2.168   2.695  20.652  0.00  0.00    +0.000 A 
ATOM      6  N   UNL     1       2.822   2.591  19.493  0.00  0.00    +0.000 NA
ATOM      7  C   UNL     1       3.015   3.742  18.805  0.00  0.00    +0.000 A 
ATOM      8  C   UNL     1       2.547   4.994  19.249  0.00  0.00    +0.000 A 
ATOM      9  C   UNL     1       2.667   6.238  18.583  0.00  0.00    +0.000 A 
ATOM     10  C   UNL     1       2.256   7.443  19.169  0.00  0.00    +0.000 A 
ENDROOT
BRANCH   1  12
ATOM     11  C   UNL     1      -0.029   8.671  21.484  0.00  0.00    +0.000 C 
ATOM     12  O   UNL     1       1.342   8.565  21.083  0.00  0.00    +0.000 OA
ENDBRANCH   1  12
BRANCH  10  13
ATOM     13  O   UNL     1       2.528   8.509  18.360  0.00  0.00    +0.000 OA
ATOM     14  C   UNL     1       1.485   9.263  17.766  0.00  0.00    +0.000 C 
ENDBRANCH  10  13
BRANCH   7  15
ATOM     15  S   UNL     1       3.962   3.528  17.299  0.00  0.00    +0.000 S 
BRANCH  15  16
ATOM     16  C   UNL     1       5.229   4.785  17.432  0.00  0.00    +0.000 A 
ATOM     17  C   UNL     1       6.177   4.818  18.461  0.00  0.00    +0.000 A 
ATOM     18  C   UNL     1       7.102   5.866  18.548  0.00  0.00    +0.000 A 
ATOM     19  C   UNL     1       7.103   6.894  17.599  0.00  0.00    +0.000 A 
ATOM     20  C   UNL     1       8.027   8.067  17.729  0.00  0.00    +0.000 C 
ATOM     21  C   UNL     1       6.208   6.823  16.527  0.00  0.00    +0.000 A 
ATOM     22  C   UNL     1       5.281   5.778  16.446  0.00  0.00    +0.000 A 
ENDBRANCH  15  16
ENDBRANCH   7  15
TORSDOF 4
ENDMDL
MODEL 2
REMARK VINA RESULT:      -7.2      2.521      5.765
REMARK  Name = 
REMARK  7 active torsions:
REMARK  status: ('A' for Active; 'I' for Inactive)
REMARK    1  A    between atoms: C_1  and  O_2
REMARK    2  A    between atoms: O_2  and  C_3
REMARK    3  A    between atoms: C_9  and  S_10
REMARK    4  A    between atoms: S_10  and  C_11
REMARK    5  A    between atoms: C_14  and  C_15
REMARK    6  A    between atoms: C_20  and  O_21
REMARK    7  A    between atoms: O_21  and  C_22
REMARK                            x       y       z     vdW  Elec       q    Type
REMARK                         _______ _______ _______ _____ _____    ______ ____
ROOT
ATOM      1  C   UNL     1       6.233   4.506  17.038  0.00  0.00    +0.000 A 
ATOM      2  C   UNL     1       5.043   3.832  16.706  0.00  0.00    +0.000 A 
ATOM      3  C   UNL     1       3.880   3.942  17.455  0.00  0.00    +0.000 A 
ATOM      4  N   UNL     1       2.786   3.317  17.009  0.00  0.00    +0.000 NA
ATOM      5  C   UNL     1       1.658   3.472  17.714  0.00  0.00    +0.000 A 
ATOM      6  N   UNL     1       1.536   4.196  18.828  0.00  0.00    +0.000 NA
ATOM      7  C   UNL     1       2.656   4.818  19.268  0.00  0.00    +0.000 A 
ATOM      8  C   UNL     1       3.903   4.711  18.621  0.00  0.00    +0.000 A 
ATOM      9  C   UNL     1       5.130   5.291  19.026  0.00  0.00    +0.000 A 
ATOM     10  C   UNL     1       6.291   5.207  18.245  0.00  0.00    +0.000 A 
ENDROOT
BRANCH   1  12
ATOM     11  C   UNL     1       7.100   4.892  14.862  0.00  0.00    +0.000 C 
ATOM     12  O   UNL     1       7.322   4.462  16.210  0.00  0.00    +0.000 OA
ENDBRANCH   1  12
BRANCH  10  13
ATOM     13  O   UNL     1       7.326   5.891  18.814  0.00  0.00    +0.000 OA
ATOM     14  C   UNL     1       7.834   7.075  18.226  0.00  0.00    +0.000 C 
ENDBRANCH  10  13
BRANCH   7  15
ATOM     15  S   UNL     1       2.392   5.826  20.725  0.00  0.00    +0.000 S 
BRANCH  15  16
ATOM     16  C   UNL     1       1.893   7.404  20.044  0.00  0.00    +0.000 A 
ATOM     17  C   UNL     1       2.170   7.799  18.731  0.00  0.00    +0.000 A 
ATOM     18  C   UNL     1       1.811   9.074  18.276  0.00  0.00    +0.000 A 
ATOM     19  C   UNL     1       1.157   9.973  19.124  0.00  0.00    +0.000 A 
ATOM     20  C   UNL     1       0.846  11.371  18.680  0.00  0.00    +0.000 C 
ATOM     21  C   UNL     1       0.809   9.553  20.411  0.00  0.00    +0.000 A 
ATOM     22  C   UNL     1       1.174   8.281  20.865  0.00  0.00    +0.000 A 
ENDBRANCH  15  16
ENDBRANCH   7  15
TORSDOF 4
ENDMDL
MODEL 3
REMARK VINA RESULT:      -7.2      2.510      5.695
REMARK  Name = 
REMARK  7 active torsions:
REMARK  status: ('A' for Active; 'I' for Inactive)
REMARK    1  A    between atoms: C_1  and  O_2
REMARK    2  A    between atoms: O_2  and  C_3
REMARK    3  A    between atoms: C_9  and  S_10
REMARK    4  A    between atoms: S_10  and  C_11
REMARK    5  A    between atoms: C_14  and  C_15
REMARK    6  A    between atoms: C_20  and  O_21
REMARK    7  A    between atoms: O_21  and  C_22
REMARK                            x       y       z     vdW  Elec       q    Type
REMARK                         _______ _______ _______ _____ _____    ______ ____
ROOT
ATOM      1  C   UNL     1       6.082   4.393  17.153  0.00  0.00    +0.000 A 
ATOM      2  C   UNL     1       4.879   3.777  16.764  0.00  0.00    +0.000 A 
ATOM      3  C   UNL     1       3.710   3.868  17.507  0.00  0.00    +0.000 A 
ATOM      4  N   UNL     1       2.604   3.307  17.008  0.00  0.00    +0.000 NA
ATOM      5  C   UNL     1       1.472   3.445  17.710  0.00  0.00    +0.000 A 
ATOM      6  N   UNL     1       1.357   4.096  18.869  0.00  0.00    +0.000 NA
ATOM      7  C   UNL     1       2.489   4.654  19.363  0.00  0.00    +0.000 A 
ATOM      8  C   UNL     1       3.740   4.556  18.722  0.00  0.00    +0.000 A 
ATOM      9  C   UNL     1       4.977   5.072  19.178  0.00  0.00    +0.000 A 
ATOM     10  C   UNL     1       6.145   5.008  18.405  0.00  0.00    +0.000 A 
ENDROOT
BRANCH   1  12
ATOM     11  C   UNL     1       6.955   4.779  14.979  0.00  0.00    +0.000 C 
ATOM     12  O   UNL     1       7.180   4.374  16.335  0.00  0.00    +0.000 OA
ENDBRANCH   1  12
BRANCH  10  13
ATOM     13  O   UNL     1       7.192   5.622  19.030  0.00  0.00    +0.000 OA
ATOM     14  C   UNL     1       7.845   6.735  18.444  0.00  0.00    +0.000 C 
ENDBRANCH  10  13
BRANCH   7  15
ATOM     15  S   UNL     1       2.235   5.568  20.882  0.00  0.00    +0.000 S 
BRANCH  15  16
ATOM     16  C   UNL     1       1.816   7.210  20.305  0.00  0.00    +0.000 A 
ATOM     17  C   UNL     1       1.118   8.143  21.079  0.00  0.00    +0.000 A 
ATOM     18  C   UNL     1       0.762   9.389  20.547  0.00  0.00    +0.000 A 
ATOM     19  C   UNL     1       1.109   9.728  19.235  0.00  0.00    +0.000 A 
ATOM     20  C   UNL     1       0.658  11.020  18.623  0.00  0.00    +0.000 C 
ATOM     21  C   UNL     1       1.874   8.828  18.487  0.00  0.00    +0.000 A 
ATOM     22  C   UNL     1       2.223   7.582  19.018  0.00  0.00    +0.000 A 
ENDBRANCH  15  16
ENDBRANCH   7  15
TORSDOF 4
ENDMDL
MODEL 4
REMARK VINA RESULT:      -7.0      0.122      1.032
REMARK  Name = 
REMARK  7 active torsions:
REMARK  status: ('A' for Active; 'I' for Inactive)
REMARK    1  A    between atoms: C_1  and  O_2
REMARK    2  A    between atoms: O_2  and  C_3
REMARK    3  A    between atoms: C_9  and  S_10
REMARK    4  A    between atoms: S_10  and  C_11
REMARK    5  A    between atoms: C_14  and  C_15
REMARK    6  A    between atoms: C_20  and  O_21
REMARK    7  A    between atoms: O_21  and  C_22
REMARK                            x       y       z     vdW  Elec       q    Type
REMARK                         _______ _______ _______ _____ _____    ______ ____
ROOT
ATOM      1  C   UNL     1       1.615   7.357  20.439  0.00  0.00    +0.000 A 
ATOM      2  C   UNL     1       1.356   6.102  21.019  0.00  0.00    +0.000 A 
ATOM      3  C   UNL     1       1.809   4.911  20.471  0.00  0.00    +0.000 A 
ATOM      4  N   UNL     1       1.571   3.780  21.144  0.00  0.00    +0.000 NA
ATOM      5  C   UNL     1       2.056   2.643  20.631  0.00  0.00    +0.000 A 
ATOM      6  N   UNL     1       2.756   2.544  19.499  0.00  0.00    +0.000 NA
ATOM      7  C   UNL     1       2.984   3.698  18.827  0.00  0.00    +0.000 A 
ATOM      8  C   UNL     1       2.506   4.950  19.261  0.00  0.00    +0.000 A 
ATOM      9  C   UNL     1       2.661   6.198  18.610  0.00  0.00    +0.000 A 
ATOM     10  C   UNL     1       2.234   7.402  19.187  0.00  0.00    +0.000 A 
ENDROOT
BRANCH   1  12
ATOM     11  C   UNL     1      -0.110   8.579  21.520  0.00  0.00    +0.000 C 
ATOM     12  O   UNL     1       1.249   8.515  21.071  0.00  0.00    +0.000 OA
ENDBRANCH   1  12
BRANCH  10  13
ATOM     13  O   UNL     1       2.544   8.472  18.398  0.00  0.00    +0.000 OA
ATOM     14  C   UNL     1       1.533   9.321  17.884  0.00  0.00    +0.000 C 
ENDBRANCH  10  13
BRANCH   7  15
ATOM     15  S   UNL     1       3.991   3.488  17.360  0.00  0.00    +0.000 S 
BRANCH  15  16
ATOM     16  C   UNL     1       5.130   4.866  17.448  0.00  0.00    +0.000 A 
ATOM     17  C   UNL     1       5.108   5.942  16.553  0.00  0.00    +0.000 A 
ATOM     18  C   UNL     1       6.069   6.958  16.633  0.00  0.00    +0.000 A 
ATOM     19  C   UNL     1       7.061   6.922  17.618  0.00  0.00    +0.000 A 
ATOM     20  C   UNL     1       8.149   7.954  17.661  0.00  0.00    +0.000 C 
ATOM     21  C   UNL     1       7.038   5.890  18.561  0.00  0.00    +0.000 A 
ATOM     22  C   UNL     1       6.081   4.873  18.475  0.00  0.00    +0.000 A 
ENDBRANCH  15  16
ENDBRANCH   7  15
TORSDOF 4
ENDMDL
MODEL 5
REMARK VINA RESULT:      -6.8      2.660      6.026
REMARK  Name = 
REMARK  7 active torsions:
REMARK  status: ('A' for Active; 'I' for Inactive)
REMARK    1  A    between atoms: C_1  and  O_2
REMARK    2  A    between atoms: O_2  and  C_3
REMARK    3  A    between atoms: C_9  and  S_10
REMARK    4  A    between atoms: S_10  and  C_11
REMARK    5  A    between atoms: C_14  and  C_15
REMARK    6  A    between atoms: C_20  and  O_21
REMARK    7  A    between atoms: O_21  and  C_22
REMARK                            x       y       z     vdW  Elec       q    Type
REMARK                         _______ _______ _______ _____ _____    ______ ____
ROOT
ATOM      1  C   UNL     1       6.337   5.076  15.381  0.00  0.00    +0.000 A 
ATOM      2  C   UNL     1       5.251   4.182  15.396  0.00  0.00    +0.000 A 
ATOM      3  C   UNL     1       4.340   4.120  16.440  0.00  0.00    +0.000 A 
ATOM      4  N   UNL     1       3.302   3.286  16.318  0.00  0.00    +0.000 NA
ATOM      5  C   UNL     1       2.403   3.272  17.310  0.00  0.00    +0.000 A 
ATOM      6  N   UNL     1       2.457   4.021  18.413  0.00  0.00    +0.000 NA
ATOM      7  C   UNL     1       3.517   4.857  18.522  0.00  0.00    +0.000 A 
ATOM      8  C   UNL     1       4.535   4.943  17.552  0.00  0.00    +0.000 A 
ATOM      9  C   UNL     1       5.695   5.755  17.597  0.00  0.00    +0.000 A 
ATOM     10  C   UNL     1       6.591   5.840  16.523  0.00  0.00    +0.000 A 
ENDROOT
BRANCH   1  12
ATOM     11  C   UNL     1       6.898   4.246  13.229  0.00  0.00    +0.000 C 
ATOM     12  O   UNL     1       7.146   5.185  14.282  0.00  0.00    +0.000 OA
ENDBRANCH   1  12
BRANCH  10  13
ATOM     13  O   UNL     1       7.595   6.729  16.780  0.00  0.00    +0.000 OA
ATOM     14  C   UNL     1       7.366   7.887  17.563  0.00  0.00    +0.000 C 
ENDBRANCH  10  13
BRANCH   7  15
ATOM     15  S   UNL     1       3.479   5.878  19.994  0.00  0.00    +0.000 S 
BRANCH  15  16
ATOM     16  C   UNL     1       2.467   7.269  19.499  0.00  0.00    +0.000 A 
ATOM     17  C   UNL     1       2.413   7.754  18.187  0.00  0.00    +0.000 A 
ATOM     18  C   UNL     1       1.653   8.888  17.875  0.00  0.00    +0.000 A 
ATOM     19  C   UNL     1       0.924   9.550  18.868  0.00  0.00    +0.000 A 
ATOM     20  C   UNL     1       0.178  10.816  18.567  0.00  0.00    +0.000 C 
ATOM     21  C   UNL     1       0.913   9.022  20.162  0.00  0.00    +0.000 A 
ATOM     22  C   UNL     1       1.679   7.893  20.473  0.00  0.00    +0.000 A 
ENDBRANCH  15  16
ENDBRANCH   7  15
TORSDOF 4
ENDMDL
MODEL 6
REMARK VINA RESULT:      -6.8      3.444      5.032
REMARK  Name = 
REMARK  7 active torsions:
REMARK  status: ('A' for Active; 'I' for Inactive)
REMARK    1  A    between atoms: C_1  and  O_2
REMARK    2  A    between atoms: O_2  and  C_3
REMARK    3  A    between atoms: C_9  and  S_10
REMARK    4  A    between atoms: S_10  and  C_11
REMARK    5  A    between atoms: C_14  and  C_15
REMARK    6  A    between atoms: C_20  and  O_21
REMARK    7  A    between atoms: O_21  and  C_22
REMARK                            x       y       z     vdW  Elec       q    Type
REMARK                         _______ _______ _______ _____ _____    ______ ____
ROOT
ATOM      1  C   UNL     1       2.891   3.227  19.889  0.00  0.00    +0.000 A 
ATOM      2  C   UNL     1       2.387   4.491  19.532  0.00  0.00    +0.000 A 
ATOM      3  C   UNL     1       3.135   5.432  18.839  0.00  0.00    +0.000 A 
ATOM      4  N   UNL     1       2.536   6.573  18.485  0.00  0.00    +0.000 NA
ATOM      5  C   UNL     1       3.253   7.452  17.773  0.00  0.00    +0.000 A 
ATOM      6  N   UNL     1       4.520   7.284  17.390  0.00  0.00    +0.000 NA
ATOM      7  C   UNL     1       5.114   6.125  17.762  0.00  0.00    +0.000 A 
ATOM      8  C   UNL     1       4.465   5.136  18.528  0.00  0.00    +0.000 A 
ATOM      9  C   UNL     1       5.014   3.917  18.993  0.00  0.00    +0.000 A 
ATOM     10  C   UNL     1       4.242   2.955  19.659  0.00  0.00    +0.000 A 
ENDROOT
BRANCH   1  12
ATOM     11  C   UNL     1       1.327   2.726  21.603  0.00  0.00    +0.000 C 
ATOM     12  O   UNL     1       2.085   2.285  20.470  0.00  0.00    +0.000 OA
ENDBRANCH   1  12
BRANCH  10  13
ATOM     13  O   UNL     1       4.977   1.843  19.956  0.00  0.00    +0.000 OA
ATOM     14  C   UNL     1       5.047   1.342  21.280  0.00  0.00    +0.000 C 
ENDBRANCH  10  13
BRANCH   7  15
ATOM     15  S   UNL     1       6.787   5.946  17.148  0.00  0.00    +0.000 S 
BRANCH  15  16
ATOM     16  C   UNL     1       6.562   5.083  15.596  0.00  0.00    +0.000 A 
ATOM     17  C   UNL     1       7.408   5.247  14.494  0.00  0.00    +0.000 A 
ATOM     18  C   UNL     1       7.141   4.593  13.284  0.00  0.00    +0.000 A 
ATOM     19  C   UNL     1       6.029   3.754  13.160  0.00  0.00    +0.000 A 
ATOM     20  C   UNL     1       5.680   3.118  11.847  0.00  0.00    +0.000 C 
ATOM     21  C   UNL     1       5.227   3.527  14.283  0.00  0.00    +0.000 A 
ATOM     22  C   UNL     1       5.493   4.186  15.488  0.00  0.00    +0.000 A 
ENDBRANCH  15  16
ENDBRANCH   7  15
TORSDOF 4
ENDMDL
MODEL 7
REMARK VINA RESULT:      -6.7      1.023      1.539
REMARK  Name = 
REMARK  7 active torsions:
REMARK  status: ('A' for Active; 'I' for Inactive)
REMARK    1  A    between atoms: C_1  and  O_2
REMARK    2  A    between atoms: O_2  and  C_3
REMARK    3  A    between atoms: C_9  and  S_10
REMARK    4  A    between atoms: S_10  and  C_11
REMARK    5  A    between atoms: C_14  and  C_15
REMARK    6  A    between atoms: C_20  and  O_21
REMARK    7  A    between atoms: O_21  and  C_22
REMARK                            x       y       z     vdW  Elec       q    Type
REMARK                         _______ _______ _______ _____ _____    ______ ____
ROOT
ATOM      1  C   UNL     1       1.752   7.061  20.113  0.00  0.00    +0.000 A 
ATOM      2  C   UNL     1       1.821   5.756  20.634  0.00  0.00    +0.000 A 
ATOM      3  C   UNL     1       2.632   4.769  20.092  0.00  0.00    +0.000 A 
ATOM      4  N   UNL     1       2.678   3.585  20.711  0.00  0.00    +0.000 NA
ATOM      5  C   UNL     1       3.503   2.658  20.207  0.00  0.00    +0.000 A 
ATOM      6  N   UNL     1       4.281   2.817  19.135  0.00  0.00    +0.000 NA
ATOM      7  C   UNL     1       4.218   4.021  18.517  0.00  0.00    +0.000 A 
ATOM      8  C   UNL     1       3.373   5.064  18.945  0.00  0.00    +0.000 A 
ATOM      9  C   UNL     1       3.212   6.337  18.344  0.00  0.00    +0.000 A 
ATOM     10  C   UNL     1       2.420   7.341  18.918  0.00  0.00    +0.000 A 
ENDROOT
BRANCH   1  12
ATOM     11  C   UNL     1       1.667   8.659  21.866  0.00  0.00    +0.000 C 
ATOM     12  O   UNL     1       1.028   8.035  20.745  0.00  0.00    +0.000 OA
ENDBRANCH   1  12
BRANCH  10  13
ATOM     13  O   UNL     1       2.469   8.493  18.188  0.00  0.00    +0.000 OA
ATOM     14  C   UNL     1       1.285   9.193  17.843  0.00  0.00    +0.000 C 
ENDBRANCH  10  13
BRANCH   7  15
ATOM     15  S   UNL     1       5.344   4.178  17.132  0.00  0.00    +0.000 S 
BRANCH  15  16
ATOM     16  C   UNL     1       6.300   5.633  17.548  0.00  0.00    +0.000 A 
ATOM     17  C   UNL     1       6.161   6.860  16.890  0.00  0.00    +0.000 A 
ATOM     18  C   UNL     1       6.985   7.944  17.217  0.00  0.00    +0.000 A 
ATOM     19  C   UNL     1       7.955   7.823  18.217  0.00  0.00    +0.000 A 
ATOM     20  C   UNL     1       8.904   8.946  18.516  0.00  0.00    +0.000 C 
ATOM     21  C   UNL     1       8.044   6.624  18.929  0.00  0.00    +0.000 A 
ATOM     22  C   UNL     1       7.223   5.540  18.596  0.00  0.00    +0.000 A 
ENDBRANCH  15  16
ENDBRANCH   7  15
TORSDOF 4
ENDMDL
MODEL 8
REMARK VINA RESULT:      -6.7      3.386      4.906
REMARK  Name = 
REMARK  7 active torsions:
REMARK  status: ('A' for Active; 'I' for Inactive)
REMARK    1  A    between atoms: C_1  and  O_2
REMARK    2  A    between atoms: O_2  and  C_3
REMARK    3  A    between atoms: C_9  and  S_10
REMARK    4  A    between atoms: S_10  and  C_11
REMARK    5  A    between atoms: C_14  and  C_15
REMARK    6  A    between atoms: C_20  and  O_21
REMARK    7  A    between atoms: O_21  and  C_22
REMARK                            x       y       z     vdW  Elec       q    Type
REMARK                         _______ _______ _______ _____ _____    ______ ____
ROOT
ATOM      1  C   UNL     1       2.335   3.684  19.663  0.00  0.00    +0.000 A 
ATOM      2  C   UNL     1       1.999   5.003  19.309  0.00  0.00    +0.000 A 
ATOM      3  C   UNL     1       2.883   5.860  18.668  0.00  0.00    +0.000 A 
ATOM      4  N   UNL     1       2.436   7.068  18.310  0.00  0.00    +0.000 NA
ATOM      5  C   UNL     1       3.282   7.866  17.647  0.00  0.00    +0.000 A 
ATOM      6  N   UNL     1       4.537   7.556  17.316  0.00  0.00    +0.000 NA
ATOM      7  C   UNL     1       4.975   6.330  17.691  0.00  0.00    +0.000 A 
ATOM      8  C   UNL     1       4.181   5.414  18.408  0.00  0.00    +0.000 A 
ATOM      9  C   UNL     1       4.562   4.132  18.873  0.00  0.00    +0.000 A 
ATOM     10  C   UNL     1       3.654   3.258  19.487  0.00  0.00    +0.000 A 
ENDROOT
BRANCH   1  12
ATOM     11  C   UNL     1       1.461   2.641  21.609  0.00  0.00    +0.000 C 
ATOM     12  O   UNL     1       1.400   2.835  20.191  0.00  0.00    +0.000 OA
ENDBRANCH   1  12
BRANCH  10  13
ATOM     13  O   UNL     1       4.240   2.064  19.794  0.00  0.00    +0.000 OA
ATOM     14  C   UNL     1       4.135   0.951  18.923  0.00  0.00    +0.000 C 
ENDBRANCH  10  13
BRANCH   7  15
ATOM     15  S   UNL     1       6.642   5.965  17.146  0.00  0.00    +0.000 S 
BRANCH  15  16
ATOM     16  C   UNL     1       6.387   5.143  15.577  0.00  0.00    +0.000 A 
ATOM     17  C   UNL     1       5.234   4.414  15.267  0.00  0.00    +0.000 A 
ATOM     18  C   UNL     1       5.121   3.737  14.046  0.00  0.00    +0.000 A 
ATOM     19  C   UNL     1       6.157   3.788  13.108  0.00  0.00    +0.000 A 
ATOM     20  C   UNL     1       6.090   2.996  11.836  0.00  0.00    +0.000 C 
ATOM     21  C   UNL     1       7.277   4.578  13.382  0.00  0.00    +0.000 A 
ATOM     22  C   UNL     1       7.390   5.248  14.605  0.00  0.00    +0.000 A 
ENDBRANCH  15  16
ENDBRANCH   7  15
TORSDOF 4
ENDMDL
MODEL 9
REMARK VINA RESULT:      -6.5      2.009      2.699
REMARK  Name = 
REMARK  7 active torsions:
REMARK  status: ('A' for Active; 'I' for Inactive)
REMARK    1  A    between atoms: C_1  and  O_2
REMARK    2  A    between atoms: O_2  and  C_3
REMARK    3  A    between atoms: C_9  and  S_10
REMARK    4  A    between atoms: S_10  and  C_11
REMARK    5  A    between atoms: C_14  and  C_15
REMARK    6  A    between atoms: C_20  and  O_21
REMARK    7  A    between atoms: O_21  and  C_22
REMARK                            x       y       z     vdW  Elec       q    Type
REMARK                         _______ _______ _______ _____ _____    ______ ____
ROOT
ATOM      1  C   UNL     1       1.452   6.350  20.368  0.00  0.00    +0.000 A 
ATOM      2  C   UNL     1       1.710   4.986  20.595  0.00  0.00    +0.000 A 
ATOM      3  C   UNL     1       2.888   4.366  20.203  0.00  0.00    +0.000 A 
ATOM      4  N   UNL     1       3.062   3.083  20.535  0.00  0.00    +0.000 NA
ATOM      5  C   UNL     1       4.223   2.510  20.195  0.00  0.00    +0.000 A 
ATOM      6  N   UNL     1       5.222   3.115  19.549  0.00  0.00    +0.000 NA
ATOM      7  C   UNL     1       5.028   4.413  19.216  0.00  0.00    +0.000 A 
ATOM      8  C   UNL     1       3.839   5.113  19.504  0.00  0.00    +0.000 A 
ATOM      9  C   UNL     1       3.531   6.453  19.164  0.00  0.00    +0.000 A 
ATOM     10  C   UNL     1       2.356   7.083  19.596  0.00  0.00    +0.000 A 
ENDROOT
BRANCH   1  12
ATOM     11  C   UNL     1       0.543   8.158  21.609  0.00  0.00    +0.000 C 
ATOM     12  O   UNL     1       0.329   6.949  20.872  0.00  0.00    +0.000 OA
ENDBRANCH   1  12
BRANCH  10  13
ATOM     13  O   UNL     1       2.312   8.387  19.192  0.00  0.00    +0.000 OA
ATOM     14  C   UNL     1       2.075   8.728  17.837  0.00  0.00    +0.000 C 
ENDBRANCH  10  13
BRANCH   7  15
ATOM     15  S   UNL     1       6.441   5.170  18.417  0.00  0.00    +0.000 S 
BRANCH  15  16
ATOM     16  C   UNL     1       6.216   4.738  16.695  0.00  0.00    +0.000 A 
ATOM     17  C   UNL     1       5.101   4.041  16.215  0.00  0.00    +0.000 A 
ATOM     18  C   UNL     1       5.014   3.674  14.866  0.00  0.00    +0.000 A 
ATOM     19  C   UNL     1       6.035   4.009  13.971  0.00  0.00    +0.000 A 
ATOM     20  C   UNL     1       5.998   3.546  12.545  0.00  0.00    +0.000 C 
ATOM     21  C   UNL     1       7.111   4.773  14.431  0.00  0.00    +0.000 A 
ATOM     22  C   UNL     1       7.199   5.133  15.780  0.00  0.00    +0.000 A 
ENDBRANCH  15  16
ENDBRANCH   7  15
TORSDOF 4
ENDMDL
