MODEL 1
REMARK VINA RESULT:      -7.9      0.000      0.000
REMARK  Name = 
REMARK  2 active torsions:
REMARK  status: ('A' for Active; 'I' for Inactive)
REMARK    1  A    between atoms: N_3  and  C_4
REMARK    2  A    between atoms: C_16  and  N_17
REMARK                            x       y       z     vdW  Elec       q    Type
REMARK                         _______ _______ _______ _____ _____    ______ ____
ROOT
ATOM      1  O   UNL     1       6.422   5.823  19.734  0.00  0.00    +0.000 OA
ATOM      2  C   UNL     1       6.142   5.234  18.691  0.00  0.00    +0.000 C 
ATOM      3  N   UNL     1       5.134   4.321  18.526  0.00  0.00    +0.000 N 
ATOM      4  N   UNL     1       6.949   5.474  17.613  0.00  0.00    +0.000 N 
ATOM      5  C   UNL     1       6.760   5.003  16.345  0.00  0.00    +0.000 A 
ATOM      6  N   UNL     1       5.768   4.265  15.902  0.00  0.00    +0.000 NA
ATOM      7  C   UNL     1       5.981   4.134  14.553  0.00  0.00    +0.000 A 
ATOM      8  C   UNL     1       5.188   3.501  13.589  0.00  0.00    +0.000 A 
ATOM      9  C   UNL     1       5.644   3.505  12.263  0.00  0.00    +0.000 A 
ATOM     10  C   UNL     1       6.862   4.110  11.903  0.00  0.00    +0.000 A 
ATOM     11  C   UNL     1       7.655   4.751  12.864  0.00  0.00    +0.000 A 
ATOM     12  C   UNL     1       7.171   4.747  14.173  0.00  0.00    +0.000 A 
ATOM     13  N   UNL     1       7.649   5.292  15.340  0.00  0.00    +0.000 N 
ATOM     14  H   UNL     1       5.129   3.847  17.624  0.00  0.00    +0.000 HD
ATOM     15  H   UNL     1       7.712   6.100  17.821  0.00  0.00    +0.000 HD
ATOM     16  H   UNL     1       8.495   5.830  15.438  0.00  0.00    +0.000 HD
ENDROOT
BRANCH   3  17
ATOM     17  C   UNL     1       4.227   3.871  19.505  0.00  0.00    +0.000 A 
ATOM     18  C   UNL     1       4.308   2.607  20.095  0.00  0.00    +0.000 A 
ATOM     19  C   UNL     1       3.340   2.183  21.011  0.00  0.00    +0.000 A 
ATOM     20  C   UNL     1       2.286   3.026  21.341  0.00  0.00    +0.000 A 
ATOM     21 CL   UNL     1       1.069   2.486  22.430  0.00  0.00    +0.000 Cl
ATOM     22  C   UNL     1       2.210   4.303  20.790  0.00  0.00    +0.000 A 
ATOM     23  C   UNL     1       3.188   4.730  19.883  0.00  0.00    +0.000 A 
ENDBRANCH   3  17
BRANCH   9  24
ATOM     24  N   UNL     1       4.824   2.867  11.227  0.00  0.00    +0.000 N 
ATOM     25  O   UNL     1       3.873   3.515  10.763  0.00  0.00    +0.000 OA
ATOM     26  O   UNL     1       5.128   1.720  10.875  0.00  0.00    +0.000 OA
ENDBRANCH   9  24
TORSDOF 2
ENDMDL
MODEL 2
REMARK VINA RESULT:      -7.7      5.873      8.879
REMARK  Name = 
REMARK  2 active torsions:
REMARK  status: ('A' for Active; 'I' for Inactive)
REMARK    1  A    between atoms: N_3  and  C_4
REMARK    2  A    between atoms: C_16  and  N_17
REMARK                            x       y       z     vdW  Elec       q    Type
REMARK                         _______ _______ _______ _____ _____    ______ ____
ROOT
ATOM      1  O   UNL     1       3.737   4.529  19.893  0.00  0.00    +0.000 OA
ATOM      2  C   UNL     1       3.303   5.627  19.546  0.00  0.00    +0.000 C 
ATOM      3  N   UNL     1       3.502   6.225  18.330  0.00  0.00    +0.000 N 
ATOM      4  N   UNL     1       2.605   6.338  20.484  0.00  0.00    +0.000 N 
ATOM      5  C   UNL     1       1.960   7.525  20.280  0.00  0.00    +0.000 A 
ATOM      6  N   UNL     1       1.853   8.197  19.157  0.00  0.00    +0.000 NA
ATOM      7  C   UNL     1       1.041   9.265  19.444  0.00  0.00    +0.000 A 
ATOM      8  C   UNL     1       0.552  10.259  18.589  0.00  0.00    +0.000 A 
ATOM      9  C   UNL     1      -0.266  11.255  19.146  0.00  0.00    +0.000 A 
ATOM     10  C   UNL     1      -0.579  11.270  20.517  0.00  0.00    +0.000 A 
ATOM     11  C   UNL     1      -0.096  10.272  21.375  0.00  0.00    +0.000 A 
ATOM     12  C   UNL     1       0.701   9.285  20.793  0.00  0.00    +0.000 A 
ATOM     13  N   UNL     1       1.305   8.162  21.303  0.00  0.00    +0.000 N 
ATOM     14  H   UNL     1       3.170   7.186  18.266  0.00  0.00    +0.000 HD
ATOM     15  H   UNL     1       2.556   5.872  21.377  0.00  0.00    +0.000 HD
ATOM     16  H   UNL     1       1.258   7.847  22.259  0.00  0.00    +0.000 HD
ENDROOT
BRANCH   3  17
ATOM     17  C   UNL     1       4.239   5.716  17.243  0.00  0.00    +0.000 A 
ATOM     18  C   UNL     1       4.946   6.529  16.353  0.00  0.00    +0.000 A 
ATOM     19  C   UNL     1       5.604   5.976  15.250  0.00  0.00    +0.000 A 
ATOM     20  C   UNL     1       5.557   4.604  15.034  0.00  0.00    +0.000 A 
ATOM     21 CL   UNL     1       6.324   3.930  13.649  0.00  0.00    +0.000 Cl
ATOM     22  C   UNL     1       4.887   3.775  15.930  0.00  0.00    +0.000 A 
ATOM     23  C   UNL     1       4.241   4.330  17.043  0.00  0.00    +0.000 A 
ENDBRANCH   3  17
BRANCH   9  24
ATOM     24  N   UNL     1      -0.810  12.298  18.272  0.00  0.00    +0.000 N 
ATOM     25  O   UNL     1      -0.260  13.411  18.288  0.00  0.00    +0.000 OA
ATOM     26  O   UNL     1      -1.786  12.011  17.567  0.00  0.00    +0.000 OA
ENDBRANCH   9  24
TORSDOF 2
ENDMDL
MODEL 3
REMARK VINA RESULT:      -7.7      5.938      8.901
REMARK  Name = 
REMARK  2 active torsions:
REMARK  status: ('A' for Active; 'I' for Inactive)
REMARK    1  A    between atoms: N_3  and  C_4
REMARK    2  A    between atoms: C_16  and  N_17
REMARK                            x       y       z     vdW  Elec       q    Type
REMARK                         _______ _______ _______ _____ _____    ______ ____
ROOT
ATOM      1  O   UNL     1       3.573   4.548  19.998  0.00  0.00    +0.000 OA
ATOM      2  C   UNL     1       3.160   5.650  19.640  0.00  0.00    +0.000 C 
ATOM      3  N   UNL     1       3.347   6.220  18.408  0.00  0.00    +0.000 N 
ATOM      4  N   UNL     1       2.500   6.396  20.579  0.00  0.00    +0.000 N 
ATOM      5  C   UNL     1       1.881   7.595  20.365  0.00  0.00    +0.000 A 
ATOM      6  N   UNL     1       1.766   8.249  19.232  0.00  0.00    +0.000 NA
ATOM      7  C   UNL     1       0.988   9.342  19.516  0.00  0.00    +0.000 A 
ATOM      8  C   UNL     1       0.505  10.332  18.653  0.00  0.00    +0.000 A 
ATOM      9  C   UNL     1      -0.275  11.358  19.207  0.00  0.00    +0.000 A 
ATOM     10  C   UNL     1      -0.557  11.407  20.584  0.00  0.00    +0.000 A 
ATOM     11  C   UNL     1      -0.081  10.414  21.450  0.00  0.00    +0.000 A 
ATOM     12  C   UNL     1       0.678   9.396  20.871  0.00  0.00    +0.000 A 
ATOM     13  N   UNL     1       1.264   8.268  21.390  0.00  0.00    +0.000 N 
ATOM     14  H   UNL     1       3.038   7.188  18.333  0.00  0.00    +0.000 HD
ATOM     15  H   UNL     1       2.459   5.948  21.482  0.00  0.00    +0.000 HD
ATOM     16  H   UNL     1       1.230   7.972  22.353  0.00  0.00    +0.000 HD
ENDROOT
BRANCH   3  17
ATOM     17  C   UNL     1       4.048   5.672  17.317  0.00  0.00    +0.000 A 
ATOM     18  C   UNL     1       4.076   4.302  17.039  0.00  0.00    +0.000 A 
ATOM     19  C   UNL     1       4.846   3.804  15.984  0.00  0.00    +0.000 A 
ATOM     20  C   UNL     1       5.590   4.677  15.199  0.00  0.00    +0.000 A 
ATOM     21 CL   UNL     1       6.575   4.058  13.932  0.00  0.00    +0.000 Cl
ATOM     22  C   UNL     1       5.545   6.048  15.439  0.00  0.00    +0.000 A 
ATOM     23  C   UNL     1       4.762   6.546  16.489  0.00  0.00    +0.000 A 
ENDBRANCH   3  17
BRANCH   9  24
ATOM     24  N   UNL     1      -0.812  12.399  18.325  0.00  0.00    +0.000 N 
ATOM     25  O   UNL     1      -1.788  12.107  17.615  0.00  0.00    +0.000 OA
ATOM     26  O   UNL     1      -0.263  13.508  18.338  0.00  0.00    +0.000 OA
ENDBRANCH   9  24
TORSDOF 2
ENDMDL
MODEL 4
REMARK VINA RESULT:      -7.5      4.983      8.414
REMARK  Name = 
REMARK  2 active torsions:
REMARK  status: ('A' for Active; 'I' for Inactive)
REMARK    1  A    between atoms: N_3  and  C_4
REMARK    2  A    between atoms: C_16  and  N_17
REMARK                            x       y       z     vdW  Elec       q    Type
REMARK                         _______ _______ _______ _____ _____    ______ ____
ROOT
ATOM      1  O   UNL     1       4.622   3.273  18.750  0.00  0.00    +0.000 OA
ATOM      2  C   UNL     1       4.208   4.427  18.645  0.00  0.00    +0.000 C 
ATOM      3  N   UNL     1       4.470   5.286  17.610  0.00  0.00    +0.000 N 
ATOM      4  N   UNL     1       3.462   4.912  19.684  0.00  0.00    +0.000 N 
ATOM      5  C   UNL     1       2.830   6.121  19.726  0.00  0.00    +0.000 A 
ATOM      6  N   UNL     1       2.781   7.035  18.784  0.00  0.00    +0.000 NA
ATOM      7  C   UNL     1       1.956   8.019  19.267  0.00  0.00    +0.000 A 
ATOM      8  C   UNL     1       1.512   9.189  18.641  0.00  0.00    +0.000 A 
ATOM      9  C   UNL     1       0.668  10.040  19.369  0.00  0.00    +0.000 A 
ATOM     10  C   UNL     1       0.283   9.744  20.689  0.00  0.00    +0.000 A 
ATOM     11  C   UNL     1       0.720   8.569  21.318  0.00  0.00    +0.000 A 
ATOM     12  C   UNL     1       1.546   7.732  20.565  0.00  0.00    +0.000 A 
ATOM     13  N   UNL     1       2.122   6.515  20.834  0.00  0.00    +0.000 N 
ATOM     14  H   UNL     1       4.142   6.240  17.752  0.00  0.00    +0.000 HD
ATOM     15  H   UNL     1       3.366   4.254  20.442  0.00  0.00    +0.000 HD
ATOM     16  H   UNL     1       2.025   5.989  21.688  0.00  0.00    +0.000 HD
ENDROOT
BRANCH   3  17
ATOM     17  C   UNL     1       5.263   5.030  16.474  0.00  0.00    +0.000 A 
ATOM     18  C   UNL     1       6.609   5.397  16.385  0.00  0.00    +0.000 A 
ATOM     19  C   UNL     1       7.331   5.183  15.207  0.00  0.00    +0.000 A 
ATOM     20  C   UNL     1       6.707   4.598  14.111  0.00  0.00    +0.000 A 
ATOM     21 CL   UNL     1       7.582   4.380  12.647  0.00  0.00    +0.000 Cl
ATOM     22  C   UNL     1       5.377   4.194  14.195  0.00  0.00    +0.000 A 
ATOM     23  C   UNL     1       4.660   4.397  15.381  0.00  0.00    +0.000 A 
ENDBRANCH   3  17
BRANCH   9  24
ATOM     24  N   UNL     1       0.170  11.263  18.732  0.00  0.00    +0.000 N 
ATOM     25  O   UNL     1       0.949  12.225  18.641  0.00  0.00    +0.000 OA
ATOM     26  O   UNL     1      -0.997  11.266  18.320  0.00  0.00    +0.000 OA
ENDBRANCH   9  24
TORSDOF 2
ENDMDL
MODEL 5
REMARK VINA RESULT:      -7.5      5.908      7.532
REMARK  Name = 
REMARK  2 active torsions:
REMARK  status: ('A' for Active; 'I' for Inactive)
REMARK    1  A    between atoms: N_3  and  C_4
REMARK    2  A    between atoms: C_16  and  N_17
REMARK                            x       y       z     vdW  Elec       q    Type
REMARK                         _______ _______ _______ _____ _____    ______ ____
ROOT
ATOM      1  O   UNL     1       0.411   9.171  22.167  0.00  0.00    +0.000 OA
ATOM      2  C   UNL     1       0.971   8.741  21.159  0.00  0.00    +0.000 C 
ATOM      3  N   UNL     1       1.134   9.416  19.978  0.00  0.00    +0.000 N 
ATOM      4  N   UNL     1       1.422   7.451  21.208  0.00  0.00    +0.000 N 
ATOM      5  C   UNL     1       2.151   6.815  20.243  0.00  0.00    +0.000 A 
ATOM      6  N   UNL     1       2.586   7.312  19.108  0.00  0.00    +0.000 NA
ATOM      7  C   UNL     1       3.338   6.318  18.535  0.00  0.00    +0.000 A 
ATOM      8  C   UNL     1       4.083   6.342  17.352  0.00  0.00    +0.000 A 
ATOM      9  C   UNL     1       4.764   5.172  16.984  0.00  0.00    +0.000 A 
ATOM     10  C   UNL     1       4.698   4.004  17.765  0.00  0.00    +0.000 A 
ATOM     11  C   UNL     1       3.958   3.978  18.955  0.00  0.00    +0.000 A 
ATOM     12  C   UNL     1       3.303   5.160  19.306  0.00  0.00    +0.000 A 
ATOM     13  N   UNL     1       2.535   5.506  20.391  0.00  0.00    +0.000 N 
ATOM     14  H   UNL     1       1.513   8.858  19.215  0.00  0.00    +0.000 HD
ATOM     15  H   UNL     1       1.208   6.990  22.080  0.00  0.00    +0.000 HD
ATOM     16  H   UNL     1       2.309   4.910  21.171  0.00  0.00    +0.000 HD
ENDROOT
BRANCH   3  17
ATOM     17  C   UNL     1       0.694  10.719  19.677  0.00  0.00    +0.000 A 
ATOM     18  C   UNL     1      -0.444  10.982  18.909  0.00  0.00    +0.000 A 
ATOM     19  C   UNL     1      -0.797  12.294  18.580  0.00  0.00    +0.000 A 
ATOM     20  C   UNL     1      -0.010  13.352  19.021  0.00  0.00    +0.000 A 
ATOM     21 CL   UNL     1      -0.417  14.962  18.575  0.00  0.00    +0.000 Cl
ATOM     22  C   UNL     1       1.107  13.110  19.817  0.00  0.00    +0.000 A 
ATOM     23  C   UNL     1       1.450  11.795  20.157  0.00  0.00    +0.000 A 
ENDBRANCH   3  17
BRANCH   9  24
ATOM     24  N   UNL     1       5.570   5.174  15.759  0.00  0.00    +0.000 N 
ATOM     25  O   UNL     1       5.724   6.256  15.170  0.00  0.00    +0.000 OA
ATOM     26  O   UNL     1       6.051   4.098  15.383  0.00  0.00    +0.000 OA
ENDBRANCH   9  24
TORSDOF 2
ENDMDL
MODEL 6
REMARK VINA RESULT:      -7.5      0.308      1.046
REMARK  Name = 
REMARK  2 active torsions:
REMARK  status: ('A' for Active; 'I' for Inactive)
REMARK    1  A    between atoms: N_3  and  C_4
REMARK    2  A    between atoms: C_16  and  N_17
REMARK                            x       y       z     vdW  Elec       q    Type
REMARK                         _______ _______ _______ _____ _____    ______ ____
ROOT
ATOM      1  O   UNL     1       5.913   5.925  19.761  0.00  0.00    +0.000 OA
ATOM      2  C   UNL     1       5.727   5.305  18.714  0.00  0.00    +0.000 C 
ATOM      3  N   UNL     1       4.765   4.354  18.502  0.00  0.00    +0.000 N 
ATOM      4  N   UNL     1       6.599   5.551  17.689  0.00  0.00    +0.000 N 
ATOM      5  C   UNL     1       6.514   5.048  16.422  0.00  0.00    +0.000 A 
ATOM      6  N   UNL     1       5.582   4.266  15.929  0.00  0.00    +0.000 NA
ATOM      7  C   UNL     1       5.892   4.114  14.602  0.00  0.00    +0.000 A 
ATOM      8  C   UNL     1       5.190   3.433  13.601  0.00  0.00    +0.000 A 
ATOM      9  C   UNL     1       5.737   3.426  12.309  0.00  0.00    +0.000 A 
ATOM     10  C   UNL     1       6.955   4.067  12.021  0.00  0.00    +0.000 A 
ATOM     11  C   UNL     1       7.657   4.756  13.019  0.00  0.00    +0.000 A 
ATOM     12  C   UNL     1       7.083   4.762  14.291  0.00  0.00    +0.000 A 
ATOM     13  N   UNL     1       7.461   5.348  15.475  0.00  0.00    +0.000 N 
ATOM     14  H   UNL     1       4.839   3.861  17.613  0.00  0.00    +0.000 HD
ATOM     15  H   UNL     1       7.323   6.208  17.935  0.00  0.00    +0.000 HD
ATOM     16  H   UNL     1       8.279   5.917  15.619  0.00  0.00    +0.000 HD
ENDROOT
BRANCH   3  17
ATOM     17  C   UNL     1       3.808   3.891  19.426  0.00  0.00    +0.000 A 
ATOM     18  C   UNL     1       2.642   4.597  19.734  0.00  0.00    +0.000 A 
ATOM     19  C   UNL     1       1.760   4.127  20.713  0.00  0.00    +0.000 A 
ATOM     20  C   UNL     1       2.043   2.945  21.387  0.00  0.00    +0.000 A 
ATOM     21 CL   UNL     1       0.983   2.393  22.624  0.00  0.00    +0.000 Cl
ATOM     22  C   UNL     1       3.182   2.211  21.067  0.00  0.00    +0.000 A 
ATOM     23  C   UNL     1       4.057   2.676  20.077  0.00  0.00    +0.000 A 
ENDBRANCH   3  17
BRANCH   9  24
ATOM     24  N   UNL     1       5.013   2.738  11.235  0.00  0.00    +0.000 N 
ATOM     25  O   UNL     1       4.027   3.311  10.743  0.00  0.00    +0.000 OA
ATOM     26  O   UNL     1       5.426   1.627  10.879  0.00  0.00    +0.000 OA
ENDBRANCH   9  24
TORSDOF 2
ENDMDL
MODEL 7
REMARK VINA RESULT:      -7.4      5.579      7.690
REMARK  Name = 
REMARK  2 active torsions:
REMARK  status: ('A' for Active; 'I' for Inactive)
REMARK    1  A    between atoms: N_3  and  C_4
REMARK    2  A    between atoms: C_16  and  N_17
REMARK                            x       y       z     vdW  Elec       q    Type
REMARK                         _______ _______ _______ _____ _____    ______ ____
ROOT
ATOM      1  O   UNL     1       0.786  11.008  18.173  0.00  0.00    +0.000 OA
ATOM      2  C   UNL     1       1.213   9.973  18.684  0.00  0.00    +0.000 C 
ATOM      3  N   UNL     1       0.938   9.527  19.950  0.00  0.00    +0.000 N 
ATOM      4  N   UNL     1       2.086   9.231  17.937  0.00  0.00    +0.000 N 
ATOM      5  C   UNL     1       2.599   8.011  18.274  0.00  0.00    +0.000 A 
ATOM      6  N   UNL     1       2.339   7.299  19.346  0.00  0.00    +0.000 NA
ATOM      7  C   UNL     1       3.022   6.121  19.181  0.00  0.00    +0.000 A 
ATOM      8  C   UNL     1       3.038   4.985  19.998  0.00  0.00    +0.000 A 
ATOM      9  C   UNL     1       3.838   3.904  19.598  0.00  0.00    +0.000 A 
ATOM     10  C   UNL     1       4.610   3.953  18.423  0.00  0.00    +0.000 A 
ATOM     11  C   UNL     1       4.591   5.086  17.599  0.00  0.00    +0.000 A 
ATOM     12  C   UNL     1       3.775   6.141  18.011  0.00  0.00    +0.000 A 
ATOM     13  N   UNL     1       3.487   7.363  17.453  0.00  0.00    +0.000 N 
ATOM     14  H   UNL     1       1.476   8.714  20.244  0.00  0.00    +0.000 HD
ATOM     15  H   UNL     1       2.300   9.652  17.046  0.00  0.00    +0.000 HD
ATOM     16  H   UNL     1       3.848   7.715  16.581  0.00  0.00    +0.000 HD
ENDROOT
BRANCH   3  17
ATOM     17  C   UNL     1       0.127  10.156  20.915  0.00  0.00    +0.000 A 
ATOM     18  C   UNL     1       0.008   9.695  22.229  0.00  0.00    +0.000 A 
ATOM     19  C   UNL     1      -0.867  10.315  23.126  0.00  0.00    +0.000 A 
ATOM     20  C   UNL     1      -1.626  11.403  22.711  0.00  0.00    +0.000 A 
ATOM     21 CL   UNL     1      -2.738  12.134  23.801  0.00  0.00    +0.000 Cl
ATOM     22  C   UNL     1      -1.494  11.897  21.416  0.00  0.00    +0.000 A 
ATOM     23  C   UNL     1      -0.607  11.282  20.522  0.00  0.00    +0.000 A 
ENDBRANCH   3  17
BRANCH   9  24
ATOM     24  N   UNL     1       3.859   2.692  20.423  0.00  0.00    +0.000 N 
ATOM     25  O   UNL     1       2.876   2.469  21.148  0.00  0.00    +0.000 OA
ATOM     26  O   UNL     1       4.854   1.960  20.349  0.00  0.00    +0.000 OA
ENDBRANCH   9  24
TORSDOF 2
ENDMDL
MODEL 8
REMARK VINA RESULT:      -7.3      5.620      7.068
REMARK  Name = 
REMARK  2 active torsions:
REMARK  status: ('A' for Active; 'I' for Inactive)
REMARK    1  A    between atoms: N_3  and  C_4
REMARK    2  A    between atoms: C_16  and  N_17
REMARK                            x       y       z     vdW  Elec       q    Type
REMARK                         _______ _______ _______ _____ _____    ______ ____
ROOT
ATOM      1  O   UNL     1       0.728   8.829  21.543  0.00  0.00    +0.000 OA
ATOM      2  C   UNL     1       1.327   8.437  20.542  0.00  0.00    +0.000 C 
ATOM      3  N   UNL     1       1.525   9.152  19.390  0.00  0.00    +0.000 N 
ATOM      4  N   UNL     1       1.787   7.149  20.564  0.00  0.00    +0.000 N 
ATOM      5  C   UNL     1       2.554   6.551  19.605  0.00  0.00    +0.000 A 
ATOM      6  N   UNL     1       3.025   7.089  18.503  0.00  0.00    +0.000 NA
ATOM      7  C   UNL     1       3.806   6.120  17.925  0.00  0.00    +0.000 A 
ATOM      8  C   UNL     1       4.592   6.189  16.770  0.00  0.00    +0.000 A 
ATOM      9  C   UNL     1       5.296   5.037  16.389  0.00  0.00    +0.000 A 
ATOM     10  C   UNL     1       5.212   3.844  17.128  0.00  0.00    +0.000 A 
ATOM     11  C   UNL     1       4.431   3.772  18.290  0.00  0.00    +0.000 A 
ATOM     12  C   UNL     1       3.754   4.937  18.656  0.00  0.00    +0.000 A 
ATOM     13  N   UNL     1       2.945   5.241  19.723  0.00  0.00    +0.000 N 
ATOM     14  H   UNL     1       1.936   8.622  18.623  0.00  0.00    +0.000 HD
ATOM     15  H   UNL     1       1.546   6.658  21.412  0.00  0.00    +0.000 HD
ATOM     16  H   UNL     1       2.696   4.617  20.474  0.00  0.00    +0.000 HD
ENDROOT
BRANCH   3  17
ATOM     17  C   UNL     1       1.084  10.461  19.116  0.00  0.00    +0.000 A 
ATOM     18  C   UNL     1       1.950  11.497  18.753  0.00  0.00    +0.000 A 
ATOM     19  C   UNL     1       1.468  12.795  18.561  0.00  0.00    +0.000 A 
ATOM     20  C   UNL     1       0.115  13.062  18.731  0.00  0.00    +0.000 A 
ATOM     21 CL   UNL     1      -0.469  14.669  18.544  0.00  0.00    +0.000 Cl
ATOM     22  C   UNL     1      -0.767  12.035  19.058  0.00  0.00    +0.000 A 
ATOM     23  C   UNL     1      -0.284  10.732  19.236  0.00  0.00    +0.000 A 
ENDBRANCH   3  17
BRANCH   9  24
ATOM     24  N   UNL     1       6.145   5.086  15.194  0.00  0.00    +0.000 N 
ATOM     25  O   UNL     1       5.709   4.565  14.154  0.00  0.00    +0.000 OA
ATOM     26  O   UNL     1       7.246   5.642  15.290  0.00  0.00    +0.000 OA
ENDBRANCH   9  24
TORSDOF 2
ENDMDL
MODEL 9
REMARK VINA RESULT:      -7.3      5.483      7.657
REMARK  Name = 
REMARK  2 active torsions:
REMARK  status: ('A' for Active; 'I' for Inactive)
REMARK    1  A    between atoms: N_3  and  C_4
REMARK    2  A    between atoms: C_16  and  N_17
REMARK                            x       y       z     vdW  Elec       q    Type
REMARK                         _______ _______ _______ _____ _____    ______ ____
ROOT
ATOM      1  O   UNL     1       0.871  10.842  17.911  0.00  0.00    +0.000 OA
ATOM      2  C   UNL     1       1.288   9.827  18.467  0.00  0.00    +0.000 C 
ATOM      3  N   UNL     1       0.966   9.410  19.732  0.00  0.00    +0.000 N 
ATOM      4  N   UNL     1       2.200   9.076  17.776  0.00  0.00    +0.000 N 
ATOM      5  C   UNL     1       2.711   7.871  18.165  0.00  0.00    +0.000 A 
ATOM      6  N   UNL     1       2.416   7.184  19.244  0.00  0.00    +0.000 NA
ATOM      7  C   UNL     1       3.118   6.011  19.138  0.00  0.00    +0.000 A 
ATOM      8  C   UNL     1       3.113   4.896  19.985  0.00  0.00    +0.000 A 
ATOM      9  C   UNL     1       3.940   3.815  19.646  0.00  0.00    +0.000 A 
ATOM     10  C   UNL     1       4.760   3.844  18.503  0.00  0.00    +0.000 A 
ATOM     11  C   UNL     1       4.762   4.955  17.649  0.00  0.00    +0.000 A 
ATOM     12  C   UNL     1       3.918   6.010  18.000  0.00  0.00    +0.000 A 
ATOM     13  N   UNL     1       3.640   7.213  17.399  0.00  0.00    +0.000 N 
ATOM     14  H   UNL     1       1.501   8.611  20.068  0.00  0.00    +0.000 HD
ATOM     15  H   UNL     1       2.446   9.476  16.883  0.00  0.00    +0.000 HD
ATOM     16  H   UNL     1       4.033   7.547  16.533  0.00  0.00    +0.000 HD
ENDROOT
BRANCH   3  17
ATOM     17  C   UNL     1       0.109  10.053  20.645  0.00  0.00    +0.000 A 
ATOM     18  C   UNL     1      -0.667  11.166  20.309  0.00  0.00    +0.000 A 
ATOM     19  C   UNL     1      -1.448  11.810  21.274  0.00  0.00    +0.000 A 
ATOM     20  C   UNL     1      -1.456  11.340  22.583  0.00  0.00    +0.000 A 
ATOM     21 CL   UNL     1      -2.377  12.161  23.780  0.00  0.00    +0.000 Cl
ATOM     22  C   UNL     1      -0.716  10.211  22.926  0.00  0.00    +0.000 A 
ATOM     23  C   UNL     1       0.054   9.559  21.954  0.00  0.00    +0.000 A 
ENDBRANCH   3  17
BRANCH   9  24
ATOM     24  N   UNL     1       3.941   2.625  20.502  0.00  0.00    +0.000 N 
ATOM     25  O   UNL     1       2.988   2.475  21.284  0.00  0.00    +0.000 OA
ATOM     26  O   UNL     1       4.890   1.838  20.398  0.00  0.00    +0.000 OA
ENDBRANCH   9  24
TORSDOF 2
ENDMDL
