MODEL 1
REMARK VINA RESULT:      -6.7      0.000      0.000
REMARK  Name = 
REMARK  17 active torsions:
REMARK  status: ('A' for Active; 'I' for Inactive)
REMARK    1  A    between atoms: C_1  and  C_2
REMARK    2  A    between atoms: C_2  and  C_3
REMARK    3  A    between atoms: C_3  and  C_4
REMARK    4  A    between atoms: C_3  and  C_5
REMARK    5  A    between atoms: C_5  and  O_7
REMARK    6  A    between atoms: O_7  and  C_8
REMARK    7  A    between atoms: C_15  and  C_16
REMARK    8  A    between atoms: C_17  and  C_18
REMARK    9  A    between atoms: C_18  and  C_19
REMARK   10  A    between atoms: C_19  and  C_20
REMARK   11  A    between atoms: C_20  and  O_21
REMARK   12  A    between atoms: C_20  and  C_22
REMARK   13  A    between atoms: C_22  and  C_23
REMARK   14  A    between atoms: C_23  and  O_24
REMARK   15  A    between atoms: C_23  and  C_25
REMARK   16  A    between atoms: C_25  and  C_26
REMARK   17  A    between atoms: C_26  and  O_28
REMARK                            x       y       z     vdW  Elec       q    Type
REMARK                         _______ _______ _______ _____ _____    ______ ____
ROOT
ATOM      1  C   UNL     1       3.401   4.347  17.534  0.00  0.00    +0.000 C 
ATOM      2  C   UNL     1       2.933   3.057  16.847  0.00  0.00    +0.000 C 
ATOM      3  C   UNL     1       2.620   1.930  17.828  0.00  0.00    +0.000 C 
ATOM      4  C   UNL     1       1.730   2.370  18.998  0.00  0.00    +0.000 C 
ATOM      5  C   UNL     1       2.236   3.681  19.619  0.00  0.00    +0.000 C 
ATOM      6  C   UNL     1       1.502   4.073  20.885  0.00  0.00    +0.000 C 
ATOM      7  C   UNL     1       2.157   5.332  21.442  0.00  0.00    +0.000 C 
ATOM      8  C   UNL     1       1.944   6.554  20.510  0.00  0.00    +0.000 C 
ATOM      9  C   UNL     1       0.513   7.048  20.713  0.00  0.00    +0.000 C 
ATOM     10  C   UNL     1       2.478   6.258  19.064  0.00  0.00    +0.000 C 
ATOM     11  C   UNL     1       2.265   4.799  18.531  0.00  0.00    +0.000 C 
ENDROOT
BRANCH   1  12
ATOM     12  O   UNL     1       4.633   4.177  18.316  0.00  0.00    +0.000 OA
BRANCH  12  13
ATOM     13  C   UNL     1       5.839   4.629  17.862  0.00  0.00    +0.000 C 
ATOM     14  O   UNL     1       6.917   4.230  18.286  0.00  0.00    +0.000 OA
BRANCH  13  15
ATOM     15  C   UNL     1       5.697   5.585  16.665  0.00  0.00    +0.000 C 
ATOM     16  C   UNL     1       5.898   7.065  16.988  0.00  0.00    +0.000 C 
BRANCH  15  18
ATOM     17  C   UNL     1       5.761   4.141  14.461  0.00  0.00    +0.000 C 
ATOM     18  C   UNL     1       6.430   5.160  15.373  0.00  0.00    +0.000 C 
ENDBRANCH  15  18
ENDBRANCH  13  15
ENDBRANCH  12  13
ENDBRANCH   1  12
BRANCH  10  19
ATOM     19  C   UNL     1       2.432   7.361  17.926  0.00  0.00    +0.000 C 
BRANCH  19  20
ATOM     20  C   UNL     1       2.853   8.859  17.888  0.00  0.00    +0.000 C 
BRANCH  20  21
ATOM     21  C   UNL     1       1.861   9.965  18.283  0.00  0.00    +0.000 C 
BRANCH  21  22
ATOM     22  O   UNL     1       2.165  11.115  17.484  0.00  0.00    +0.000 OA
ATOM     23  H   UNL     1       2.789  10.821  16.797  0.00  0.00    +0.000 HD
ENDBRANCH  21  22
BRANCH  21  24
ATOM     24  C   UNL     1       0.357   9.620  18.021  0.00  0.00    +0.000 C 
BRANCH  24  25
ATOM     25  C   UNL     1      -0.698  10.210  18.984  0.00  0.00    +0.000 C 
BRANCH  25  26
ATOM     26  O   UNL     1      -0.257  11.496  19.435  0.00  0.00    +0.000 OA
ATOM     27  H   UNL     1      -0.540  12.165  18.787  0.00  0.00    +0.000 HD
ENDBRANCH  25  26
BRANCH  25  28
ATOM     28  C   UNL     1      -2.093  10.406  18.347  0.00  0.00    +0.000 C 
BRANCH  28  29
ATOM     29  C   UNL     1      -2.054  11.085  17.007  0.00  0.00    +0.000 C 
ATOM     30  O   UNL     1      -2.371  10.544  15.950  0.00  0.00    +0.000 OA
BRANCH  29  31
ATOM     31  O   UNL     1      -1.624  12.365  17.069  0.00  0.00    +0.000 OA
ATOM     32  H   UNL     1      -1.188  12.607  17.908  0.00  0.00    +0.000 HD
ENDBRANCH  29  31
ENDBRANCH  28  29
ENDBRANCH  25  28
ENDBRANCH  24  25
ENDBRANCH  21  24
ENDBRANCH  20  21
ENDBRANCH  19  20
ENDBRANCH  10  19
TORSDOF 14
ENDMDL
MODEL 2
REMARK VINA RESULT:      -6.7      1.148      1.742
REMARK  Name = 
REMARK  17 active torsions:
REMARK  status: ('A' for Active; 'I' for Inactive)
REMARK    1  A    between atoms: C_1  and  C_2
REMARK    2  A    between atoms: C_2  and  C_3
REMARK    3  A    between atoms: C_3  and  C_4
REMARK    4  A    between atoms: C_3  and  C_5
REMARK    5  A    between atoms: C_5  and  O_7
REMARK    6  A    between atoms: O_7  and  C_8
REMARK    7  A    between atoms: C_15  and  C_16
REMARK    8  A    between atoms: C_17  and  C_18
REMARK    9  A    between atoms: C_18  and  C_19
REMARK   10  A    between atoms: C_19  and  C_20
REMARK   11  A    between atoms: C_20  and  O_21
REMARK   12  A    between atoms: C_20  and  C_22
REMARK   13  A    between atoms: C_22  and  C_23
REMARK   14  A    between atoms: C_23  and  O_24
REMARK   15  A    between atoms: C_23  and  C_25
REMARK   16  A    between atoms: C_25  and  C_26
REMARK   17  A    between atoms: C_26  and  O_28
REMARK                            x       y       z     vdW  Elec       q    Type
REMARK                         _______ _______ _______ _____ _____    ______ ____
ROOT
ATOM      1  C   UNL     1       3.751   4.420  17.498  0.00  0.00    +0.000 C 
ATOM      2  C   UNL     1       3.203   3.316  16.583  0.00  0.00    +0.000 C 
ATOM      3  C   UNL     1       2.652   2.116  17.350  0.00  0.00    +0.000 C 
ATOM      4  C   UNL     1       1.703   2.505  18.492  0.00  0.00    +0.000 C 
ATOM      5  C   UNL     1       2.298   3.635  19.347  0.00  0.00    +0.000 C 
ATOM      6  C   UNL     1       1.488   3.942  20.590  0.00  0.00    +0.000 C 
ATOM      7  C   UNL     1       2.229   5.009  21.387  0.00  0.00    +0.000 C 
ATOM      8  C   UNL     1       2.268   6.367  20.638  0.00  0.00    +0.000 C 
ATOM      9  C   UNL     1       0.895   7.019  20.790  0.00  0.00    +0.000 C 
ATOM     10  C   UNL     1       2.912   6.207  19.216  0.00  0.00    +0.000 C 
ATOM     11  C   UNL     1       2.579   4.880  18.450  0.00  0.00    +0.000 C 
ENDROOT
BRANCH   1  12
ATOM     12  O   UNL     1       4.863   3.975  18.349  0.00  0.00    +0.000 OA
BRANCH  12  13
ATOM     13  C   UNL     1       5.873   4.820  18.708  0.00  0.00    +0.000 C 
ATOM     14  O   UNL     1       6.134   5.111  19.869  0.00  0.00    +0.000 OA
BRANCH  13  15
ATOM     15  C   UNL     1       6.736   5.250  17.509  0.00  0.00    +0.000 C 
ATOM     16  C   UNL     1       6.735   4.281  16.327  0.00  0.00    +0.000 C 
BRANCH  15  18
ATOM     17  C   UNL     1       7.633   7.728  17.519  0.00  0.00    +0.000 C 
ATOM     18  C   UNL     1       6.585   6.722  17.063  0.00  0.00    +0.000 C 
ENDBRANCH  15  18
ENDBRANCH  13  15
ENDBRANCH  12  13
ENDBRANCH   1  12
BRANCH  10  19
ATOM     19  C   UNL     1       3.123   7.454  18.260  0.00  0.00    +0.000 C 
BRANCH  19  20
ATOM     20  C   UNL     1       2.135   8.471  17.616  0.00  0.00    +0.000 C 
BRANCH  20  21
ATOM     21  C   UNL     1       1.782   9.785  18.332  0.00  0.00    +0.000 C 
BRANCH  21  22
ATOM     22  O   UNL     1       2.109  10.857  17.439  0.00  0.00    +0.000 OA
ATOM     23  H   UNL     1       1.797  10.591  16.557  0.00  0.00    +0.000 HD
ENDBRANCH  21  22
BRANCH  21  24
ATOM     24  C   UNL     1       0.268   9.947  18.695  0.00  0.00    +0.000 C 
BRANCH  24  25
ATOM     25  C   UNL     1      -0.104  10.947  19.813  0.00  0.00    +0.000 C 
BRANCH  25  26
ATOM     26  O   UNL     1       1.054  11.711  20.166  0.00  0.00    +0.000 OA
ATOM     27  H   UNL     1       1.122  12.469  19.560  0.00  0.00    +0.000 HD
ENDBRANCH  25  26
BRANCH  25  28
ATOM     28  C   UNL     1      -1.208  11.954  19.415  0.00  0.00    +0.000 C 
BRANCH  28  29
ATOM     29  C   UNL     1      -0.800  12.894  18.316  0.00  0.00    +0.000 C 
ATOM     30  O   UNL     1      -0.075  13.872  18.477  0.00  0.00    +0.000 OA
BRANCH  29  31
ATOM     31  O   UNL     1      -1.320  12.565  17.112  0.00  0.00    +0.000 OA
ATOM     32  H   UNL     1      -1.664  13.319  16.597  0.00  0.00    +0.000 HD
ENDBRANCH  29  31
ENDBRANCH  28  29
ENDBRANCH  25  28
ENDBRANCH  24  25
ENDBRANCH  21  24
ENDBRANCH  20  21
ENDBRANCH  19  20
ENDBRANCH  10  19
TORSDOF 14
ENDMDL
MODEL 3
REMARK VINA RESULT:      -6.4      1.099      1.411
REMARK  Name = 
REMARK  17 active torsions:
REMARK  status: ('A' for Active; 'I' for Inactive)
REMARK    1  A    between atoms: C_1  and  C_2
REMARK    2  A    between atoms: C_2  and  C_3
REMARK    3  A    between atoms: C_3  and  C_4
REMARK    4  A    between atoms: C_3  and  C_5
REMARK    5  A    between atoms: C_5  and  O_7
REMARK    6  A    between atoms: O_7  and  C_8
REMARK    7  A    between atoms: C_15  and  C_16
REMARK    8  A    between atoms: C_17  and  C_18
REMARK    9  A    between atoms: C_18  and  C_19
REMARK   10  A    between atoms: C_19  and  C_20
REMARK   11  A    between atoms: C_20  and  O_21
REMARK   12  A    between atoms: C_20  and  C_22
REMARK   13  A    between atoms: C_22  and  C_23
REMARK   14  A    between atoms: C_23  and  O_24
REMARK   15  A    between atoms: C_23  and  C_25
REMARK   16  A    between atoms: C_25  and  C_26
REMARK   17  A    between atoms: C_26  and  O_28
REMARK                            x       y       z     vdW  Elec       q    Type
REMARK                         _______ _______ _______ _____ _____    ______ ____
ROOT
ATOM      1  C   UNL     1       3.513   4.492  17.487  0.00  0.00    +0.000 C 
ATOM      2  C   UNL     1       2.972   3.304  16.681  0.00  0.00    +0.000 C 
ATOM      3  C   UNL     1       2.531   2.132  17.555  0.00  0.00    +0.000 C 
ATOM      4  C   UNL     1       1.632   2.549  18.727  0.00  0.00    +0.000 C 
ATOM      5  C   UNL     1       2.216   3.761  19.470  0.00  0.00    +0.000 C 
ATOM      6  C   UNL     1       1.466   4.110  20.740  0.00  0.00    +0.000 C 
ATOM      7  C   UNL     1       2.196   5.263  21.419  0.00  0.00    +0.000 C 
ATOM      8  C   UNL     1       2.118   6.568  20.585  0.00  0.00    +0.000 C 
ATOM      9  C   UNL     1       0.724   7.161  20.780  0.00  0.00    +0.000 C 
ATOM     10  C   UNL     1       2.684   6.345  19.138  0.00  0.00    +0.000 C 
ATOM     11  C   UNL     1       2.377   4.956  18.480  0.00  0.00    +0.000 C 
ENDROOT
BRANCH   1  12
ATOM     12  O   UNL     1       4.695   4.160  18.294  0.00  0.00    +0.000 OA
BRANCH  12  13
ATOM     13  C   UNL     1       5.906   4.747  18.066  0.00  0.00    +0.000 C 
ATOM     14  O   UNL     1       6.961   4.331  18.532  0.00  0.00    +0.000 OA
BRANCH  13  15
ATOM     15  C   UNL     1       5.821   5.898  17.049  0.00  0.00    +0.000 C 
ATOM     16  C   UNL     1       6.797   7.050  17.288  0.00  0.00    +0.000 C 
BRANCH  15  18
ATOM     17  C   UNL     1       6.646   4.337  15.092  0.00  0.00    +0.000 C 
ATOM     18  C   UNL     1       5.758   5.480  15.562  0.00  0.00    +0.000 C 
ENDBRANCH  15  18
ENDBRANCH  13  15
ENDBRANCH  12  13
ENDBRANCH   1  12
BRANCH  10  19
ATOM     19  C   UNL     1       2.771   7.536  18.094  0.00  0.00    +0.000 C 
BRANCH  19  20
ATOM     20  C   UNL     1       1.799   8.695  17.729  0.00  0.00    +0.000 C 
BRANCH  20  21
ATOM     21  C   UNL     1       1.894  10.054  18.440  0.00  0.00    +0.000 C 
BRANCH  21  22
ATOM     22  O   UNL     1       2.194  11.037  17.442  0.00  0.00    +0.000 OA
ATOM     23  H   UNL     1       1.544  10.917  16.727  0.00  0.00    +0.000 HD
ENDBRANCH  21  22
BRANCH  21  24
ATOM     24  C   UNL     1       0.576  10.518  19.147  0.00  0.00    +0.000 C 
BRANCH  24  25
ATOM     25  C   UNL     1      -0.639  10.861  18.256  0.00  0.00    +0.000 C 
BRANCH  25  26
ATOM     26  O   UNL     1      -1.691   9.922  18.512  0.00  0.00    +0.000 OA
ATOM     27  H   UNL     1      -2.121   9.701  17.668  0.00  0.00    +0.000 HD
ENDBRANCH  25  26
BRANCH  25  28
ATOM     28  C   UNL     1      -1.222  12.272  18.501  0.00  0.00    +0.000 C 
BRANCH  28  29
ATOM     29  C   UNL     1      -2.365  12.292  19.477  0.00  0.00    +0.000 C 
ATOM     30  O   UNL     1      -2.236  12.180  20.694  0.00  0.00    +0.000 OA
BRANCH  29  31
ATOM     31  O   UNL     1      -3.571  12.438  18.884  0.00  0.00    +0.000 OA
ATOM     32  H   UNL     1      -4.314  12.577  19.502  0.00  0.00    +0.000 HD
ENDBRANCH  29  31
ENDBRANCH  28  29
ENDBRANCH  25  28
ENDBRANCH  24  25
ENDBRANCH  21  24
ENDBRANCH  20  21
ENDBRANCH  19  20
ENDBRANCH  10  19
TORSDOF 14
ENDMDL
MODEL 4
REMARK VINA RESULT:      -6.4      1.168      1.985
REMARK  Name = 
REMARK  17 active torsions:
REMARK  status: ('A' for Active; 'I' for Inactive)
REMARK    1  A    between atoms: C_1  and  C_2
REMARK    2  A    between atoms: C_2  and  C_3
REMARK    3  A    between atoms: C_3  and  C_4
REMARK    4  A    between atoms: C_3  and  C_5
REMARK    5  A    between atoms: C_5  and  O_7
REMARK    6  A    between atoms: O_7  and  C_8
REMARK    7  A    between atoms: C_15  and  C_16
REMARK    8  A    between atoms: C_17  and  C_18
REMARK    9  A    between atoms: C_18  and  C_19
REMARK   10  A    between atoms: C_19  and  C_20
REMARK   11  A    between atoms: C_20  and  O_21
REMARK   12  A    between atoms: C_20  and  C_22
REMARK   13  A    between atoms: C_22  and  C_23
REMARK   14  A    between atoms: C_23  and  O_24
REMARK   15  A    between atoms: C_23  and  C_25
REMARK   16  A    between atoms: C_25  and  C_26
REMARK   17  A    between atoms: C_26  and  O_28
REMARK                            x       y       z     vdW  Elec       q    Type
REMARK                         _______ _______ _______ _____ _____    ______ ____
ROOT
ATOM      1  C   UNL     1       3.535   4.535  17.584  0.00  0.00    +0.000 C 
ATOM      2  C   UNL     1       2.989   3.391  16.719  0.00  0.00    +0.000 C 
ATOM      3  C   UNL     1       2.427   2.231  17.538  0.00  0.00    +0.000 C 
ATOM      4  C   UNL     1       1.473   2.678  18.653  0.00  0.00    +0.000 C 
ATOM      5  C   UNL     1       2.067   3.845  19.458  0.00  0.00    +0.000 C 
ATOM      6  C   UNL     1       1.249   4.214  20.679  0.00  0.00    +0.000 C 
ATOM      7  C   UNL     1       1.990   5.315  21.430  0.00  0.00    +0.000 C 
ATOM      8  C   UNL     1       2.039   6.635  20.618  0.00  0.00    +0.000 C 
ATOM      9  C   UNL     1       0.668   7.299  20.728  0.00  0.00    +0.000 C 
ATOM     10  C   UNL     1       2.692   6.405  19.209  0.00  0.00    +0.000 C 
ATOM     11  C   UNL     1       2.359   5.044  18.505  0.00  0.00    +0.000 C 
ENDROOT
BRANCH   1  12
ATOM     12  O   UNL     1       4.639   4.127  18.463  0.00  0.00    +0.000 OA
BRANCH  12  13
ATOM     13  C   UNL     1       5.814   4.820  18.507  0.00  0.00    +0.000 C 
ATOM     14  O   UNL     1       6.533   4.875  19.498  0.00  0.00    +0.000 OA
BRANCH  13  15
ATOM     15  C   UNL     1       6.207   5.403  17.138  0.00  0.00    +0.000 C 
ATOM     16  C   UNL     1       6.975   6.723  17.190  0.00  0.00    +0.000 C 
BRANCH  15  18
ATOM     17  C   UNL     1       6.959   4.832  14.678  0.00  0.00    +0.000 C 
ATOM     18  C   UNL     1       6.822   4.404  16.132  0.00  0.00    +0.000 C 
ENDBRANCH  15  18
ENDBRANCH  13  15
ENDBRANCH  12  13
ENDBRANCH   1  12
BRANCH  10  19
ATOM     19  C   UNL     1       2.914   7.605  18.197  0.00  0.00    +0.000 C 
BRANCH  19  20
ATOM     20  C   UNL     1       1.947   8.648  17.565  0.00  0.00    +0.000 C 
BRANCH  20  21
ATOM     21  C   UNL     1       1.614   9.957  18.300  0.00  0.00    +0.000 C 
BRANCH  21  22
ATOM     22  O   UNL     1       2.271  11.018  17.597  0.00  0.00    +0.000 OA
ATOM     23  H   UNL     1       3.205  10.761  17.511  0.00  0.00    +0.000 HD
ENDBRANCH  21  22
BRANCH  21  24
ATOM     24  C   UNL     1       0.091  10.317  18.339  0.00  0.00    +0.000 C 
BRANCH  24  25
ATOM     25  C   UNL     1      -0.297  11.812  18.378  0.00  0.00    +0.000 C 
BRANCH  25  26
ATOM     26  O   UNL     1      -1.417  12.031  17.512  0.00  0.00    +0.000 OA
ATOM     27  H   UNL     1      -2.143  11.447  17.791  0.00  0.00    +0.000 HD
ENDBRANCH  25  26
BRANCH  25  28
ATOM     28  C   UNL     1      -0.703  12.321  19.781  0.00  0.00    +0.000 C 
BRANCH  28  29
ATOM     29  C   UNL     1       0.416  12.286  20.783  0.00  0.00    +0.000 C 
ATOM     30  O   UNL     1       0.306  11.849  21.926  0.00  0.00    +0.000 OA
BRANCH  29  31
ATOM     31  O   UNL     1       1.574  12.796  20.308  0.00  0.00    +0.000 OA
ATOM     32  H   UNL     1       2.366  12.260  20.504  0.00  0.00    +0.000 HD
ENDBRANCH  29  31
ENDBRANCH  28  29
ENDBRANCH  25  28
ENDBRANCH  24  25
ENDBRANCH  21  24
ENDBRANCH  20  21
ENDBRANCH  19  20
ENDBRANCH  10  19
TORSDOF 14
ENDMDL
MODEL 5
REMARK VINA RESULT:      -6.3      1.485      2.087
REMARK  Name = 
REMARK  17 active torsions:
REMARK  status: ('A' for Active; 'I' for Inactive)
REMARK    1  A    between atoms: C_1  and  C_2
REMARK    2  A    between atoms: C_2  and  C_3
REMARK    3  A    between atoms: C_3  and  C_4
REMARK    4  A    between atoms: C_3  and  C_5
REMARK    5  A    between atoms: C_5  and  O_7
REMARK    6  A    between atoms: O_7  and  C_8
REMARK    7  A    between atoms: C_15  and  C_16
REMARK    8  A    between atoms: C_17  and  C_18
REMARK    9  A    between atoms: C_18  and  C_19
REMARK   10  A    between atoms: C_19  and  C_20
REMARK   11  A    between atoms: C_20  and  O_21
REMARK   12  A    between atoms: C_20  and  C_22
REMARK   13  A    between atoms: C_22  and  C_23
REMARK   14  A    between atoms: C_23  and  O_24
REMARK   15  A    between atoms: C_23  and  C_25
REMARK   16  A    between atoms: C_25  and  C_26
REMARK   17  A    between atoms: C_26  and  O_28
REMARK                            x       y       z     vdW  Elec       q    Type
REMARK                         _______ _______ _______ _____ _____    ______ ____
ROOT
ATOM      1  C   UNL     1       3.489   4.441  17.502  0.00  0.00    +0.000 C 
ATOM      2  C   UNL     1       2.935   3.276  16.670  0.00  0.00    +0.000 C 
ATOM      3  C   UNL     1       2.459   2.101  17.520  0.00  0.00    +0.000 C 
ATOM      4  C   UNL     1       1.553   2.519  18.686  0.00  0.00    +0.000 C 
ATOM      5  C   UNL     1       2.151   3.707  19.456  0.00  0.00    +0.000 C 
ATOM      6  C   UNL     1       1.389   4.053  20.720  0.00  0.00    +0.000 C 
ATOM      7  C   UNL     1       2.133   5.180  21.427  0.00  0.00    +0.000 C 
ATOM      8  C   UNL     1       2.092   6.499  20.611  0.00  0.00    +0.000 C 
ATOM      9  C   UNL     1       0.708   7.116  20.796  0.00  0.00    +0.000 C 
ATOM     10  C   UNL     1       2.674   6.286  19.169  0.00  0.00    +0.000 C 
ATOM     11  C   UNL     1       2.349   4.913  18.486  0.00  0.00    +0.000 C 
ENDROOT
BRANCH   1  12
ATOM     12  O   UNL     1       4.653   4.073  18.319  0.00  0.00    +0.000 OA
BRANCH  12  13
ATOM     13  C   UNL     1       5.879   4.640  18.117  0.00  0.00    +0.000 C 
ATOM     14  O   UNL     1       6.852   4.425  18.831  0.00  0.00    +0.000 OA
BRANCH  13  15
ATOM     15  C   UNL     1       5.942   5.460  16.817  0.00  0.00    +0.000 C 
ATOM     16  C   UNL     1       6.181   6.957  17.004  0.00  0.00    +0.000 C 
BRANCH  15  18
ATOM     17  C   UNL     1       6.149   3.930  14.681  0.00  0.00    +0.000 C 
ATOM     18  C   UNL     1       6.809   4.863  15.685  0.00  0.00    +0.000 C 
ENDBRANCH  15  18
ENDBRANCH  13  15
ENDBRANCH  12  13
ENDBRANCH   1  12
BRANCH  10  19
ATOM     19  C   UNL     1       2.799   7.490  18.144  0.00  0.00    +0.000 C 
BRANCH  19  20
ATOM     20  C   UNL     1       1.841   8.654  17.760  0.00  0.00    +0.000 C 
BRANCH  20  21
ATOM     21  C   UNL     1       1.793   9.942  18.599  0.00  0.00    +0.000 C 
BRANCH  21  22
ATOM     22  O   UNL     1       1.883  11.046  17.690  0.00  0.00    +0.000 OA
ATOM     23  H   UNL     1       1.406  10.784  16.883  0.00  0.00    +0.000 HD
ENDBRANCH  21  22
BRANCH  21  24
ATOM     24  C   UNL     1       0.474  10.140  19.418  0.00  0.00    +0.000 C 
BRANCH  24  25
ATOM     25  C   UNL     1       0.505  11.122  20.611  0.00  0.00    +0.000 C 
BRANCH  25  26
ATOM     26  O   UNL     1       0.238  12.447  20.138  0.00  0.00    +0.000 OA
ATOM     27  H   UNL     1       0.408  13.075  20.862  0.00  0.00    +0.000 HD
ENDBRANCH  25  26
BRANCH  25  28
ATOM     28  C   UNL     1      -0.540  10.814  21.708  0.00  0.00    +0.000 C 
BRANCH  28  29
ATOM     29  C   UNL     1      -1.353  12.009  22.120  0.00  0.00    +0.000 C 
ATOM     30  O   UNL     1      -2.390  12.363  21.564  0.00  0.00    +0.000 OA
BRANCH  29  31
ATOM     31  O   UNL     1      -0.827  12.676  23.171  0.00  0.00    +0.000 OA
ATOM     32  H   UNL     1      -1.453  12.842  23.902  0.00  0.00    +0.000 HD
ENDBRANCH  29  31
ENDBRANCH  28  29
ENDBRANCH  25  28
ENDBRANCH  24  25
ENDBRANCH  21  24
ENDBRANCH  20  21
ENDBRANCH  19  20
ENDBRANCH  10  19
TORSDOF 14
ENDMDL
MODEL 6
REMARK VINA RESULT:      -6.3      1.094      1.301
REMARK  Name = 
REMARK  17 active torsions:
REMARK  status: ('A' for Active; 'I' for Inactive)
REMARK    1  A    between atoms: C_1  and  C_2
REMARK    2  A    between atoms: C_2  and  C_3
REMARK    3  A    between atoms: C_3  and  C_4
REMARK    4  A    between atoms: C_3  and  C_5
REMARK    5  A    between atoms: C_5  and  O_7
REMARK    6  A    between atoms: O_7  and  C_8
REMARK    7  A    between atoms: C_15  and  C_16
REMARK    8  A    between atoms: C_17  and  C_18
REMARK    9  A    between atoms: C_18  and  C_19
REMARK   10  A    between atoms: C_19  and  C_20
REMARK   11  A    between atoms: C_20  and  O_21
REMARK   12  A    between atoms: C_20  and  C_22
REMARK   13  A    between atoms: C_22  and  C_23
REMARK   14  A    between atoms: C_23  and  O_24
REMARK   15  A    between atoms: C_23  and  C_25
REMARK   16  A    between atoms: C_25  and  C_26
REMARK   17  A    between atoms: C_26  and  O_28
REMARK                            x       y       z     vdW  Elec       q    Type
REMARK                         _______ _______ _______ _____ _____    ______ ____
ROOT
ATOM      1  C   UNL     1       3.754   5.359  17.660  0.00  0.00    +0.000 C 
ATOM      2  C   UNL     1       3.456   4.181  16.724  0.00  0.00    +0.000 C 
ATOM      3  C   UNL     1       3.039   2.912  17.463  0.00  0.00    +0.000 C 
ATOM      4  C   UNL     1       1.956   3.153  18.524  0.00  0.00    +0.000 C 
ATOM      5  C   UNL     1       2.302   4.364  19.406  0.00  0.00    +0.000 C 
ATOM      6  C   UNL     1       1.360   4.545  20.579  0.00  0.00    +0.000 C 
ATOM      7  C   UNL     1       1.864   5.716  21.414  0.00  0.00    +0.000 C 
ATOM      8  C   UNL     1       1.751   7.062  20.650  0.00  0.00    +0.000 C 
ATOM      9  C   UNL     1       0.286   7.493  20.687  0.00  0.00    +0.000 C 
ATOM     10  C   UNL     1       2.520   6.999  19.283  0.00  0.00    +0.000 C 
ATOM     11  C   UNL     1       2.456   5.635  18.514  0.00  0.00    +0.000 C 
ENDROOT
BRANCH   1  12
ATOM     12  O   UNL     1       4.852   5.094  18.600  0.00  0.00    +0.000 OA
BRANCH  12  13
ATOM     13  C   UNL     1       6.138   4.931  18.172  0.00  0.00    +0.000 C 
ATOM     14  O   UNL     1       6.927   4.141  18.678  0.00  0.00    +0.000 OA
BRANCH  13  15
ATOM     15  C   UNL     1       6.443   5.738  16.897  0.00  0.00    +0.000 C 
ATOM     16  C   UNL     1       7.142   7.077  17.128  0.00  0.00    +0.000 C 
BRANCH  15  18
ATOM     17  C   UNL     1       6.332   4.917  14.396  0.00  0.00    +0.000 C 
ATOM     18  C   UNL     1       7.066   4.942  15.728  0.00  0.00    +0.000 C 
ENDBRANCH  15  18
ENDBRANCH  13  15
ENDBRANCH  12  13
ENDBRANCH   1  12
BRANCH  10  19
ATOM     19  C   UNL     1       2.608   8.261  18.328  0.00  0.00    +0.000 C 
BRANCH  19  20
ATOM     20  C   UNL     1       1.531   9.096  17.577  0.00  0.00    +0.000 C 
BRANCH  20  21
ATOM     21  C   UNL     1       0.577  10.024  18.347  0.00  0.00    +0.000 C 
BRANCH  21  22
ATOM     22  O   UNL     1       1.070  11.361  18.196  0.00  0.00    +0.000 OA
ATOM     23  H   UNL     1       1.016  11.574  17.248  0.00  0.00    +0.000 HD
ENDBRANCH  21  22
BRANCH  21  24
ATOM     24  C   UNL     1      -0.898  10.027  17.824  0.00  0.00    +0.000 C 
BRANCH  24  25
ATOM     25  C   UNL     1      -1.761  11.279  18.101  0.00  0.00    +0.000 C 
BRANCH  25  26
ATOM     26  O   UNL     1      -1.498  12.264  17.094  0.00  0.00    +0.000 OA
ATOM     27  H   UNL     1      -0.622  12.087  16.709  0.00  0.00    +0.000 HD
ENDBRANCH  25  26
BRANCH  25  28
ATOM     28  C   UNL     1      -3.284  11.011  18.086  0.00  0.00    +0.000 C 
BRANCH  28  29
ATOM     29  C   UNL     1      -3.933  11.287  16.759  0.00  0.00    +0.000 C 
ATOM     30  O   UNL     1      -3.732  10.627  15.743  0.00  0.00    +0.000 OA
BRANCH  29  31
ATOM     31  O   UNL     1      -4.765  12.351  16.783  0.00  0.00    +0.000 OA
ATOM     32  H   UNL     1      -5.679  12.147  17.059  0.00  0.00    +0.000 HD
ENDBRANCH  29  31
ENDBRANCH  28  29
ENDBRANCH  25  28
ENDBRANCH  24  25
ENDBRANCH  21  24
ENDBRANCH  20  21
ENDBRANCH  19  20
ENDBRANCH  10  19
TORSDOF 14
ENDMDL
MODEL 7
REMARK VINA RESULT:      -6.3      1.302      1.849
REMARK  Name = 
REMARK  17 active torsions:
REMARK  status: ('A' for Active; 'I' for Inactive)
REMARK    1  A    between atoms: C_1  and  C_2
REMARK    2  A    between atoms: C_2  and  C_3
REMARK    3  A    between atoms: C_3  and  C_4
REMARK    4  A    between atoms: C_3  and  C_5
REMARK    5  A    between atoms: C_5  and  O_7
REMARK    6  A    between atoms: O_7  and  C_8
REMARK    7  A    between atoms: C_15  and  C_16
REMARK    8  A    between atoms: C_17  and  C_18
REMARK    9  A    between atoms: C_18  and  C_19
REMARK   10  A    between atoms: C_19  and  C_20
REMARK   11  A    between atoms: C_20  and  O_21
REMARK   12  A    between atoms: C_20  and  C_22
REMARK   13  A    between atoms: C_22  and  C_23
REMARK   14  A    between atoms: C_23  and  O_24
REMARK   15  A    between atoms: C_23  and  C_25
REMARK   16  A    between atoms: C_25  and  C_26
REMARK   17  A    between atoms: C_26  and  O_28
REMARK                            x       y       z     vdW  Elec       q    Type
REMARK                         _______ _______ _______ _____ _____    ______ ____
ROOT
ATOM      1  C   UNL     1       3.582   4.433  17.447  0.00  0.00    +0.000 C 
ATOM      2  C   UNL     1       3.023   3.284  16.596  0.00  0.00    +0.000 C 
ATOM      3  C   UNL     1       2.536   2.100  17.428  0.00  0.00    +0.000 C 
ATOM      4  C   UNL     1       1.629   2.507  18.596  0.00  0.00    +0.000 C 
ATOM      5  C   UNL     1       2.232   3.680  19.385  0.00  0.00    +0.000 C 
ATOM      6  C   UNL     1       1.469   4.012  20.652  0.00  0.00    +0.000 C 
ATOM      7  C   UNL     1       2.219   5.124  21.378  0.00  0.00    +0.000 C 
ATOM      8  C   UNL     1       2.190   6.455  20.581  0.00  0.00    +0.000 C 
ATOM      9  C   UNL     1       0.809   7.079  20.771  0.00  0.00    +0.000 C 
ATOM     10  C   UNL     1       2.775   6.259  19.138  0.00  0.00    +0.000 C 
ATOM     11  C   UNL     1       2.443   4.898  18.434  0.00  0.00    +0.000 C 
ENDROOT
BRANCH   1  12
ATOM     12  O   UNL     1       4.741   4.044  18.262  0.00  0.00    +0.000 OA
BRANCH  12  13
ATOM     13  C   UNL     1       5.751   4.921  18.536  0.00  0.00    +0.000 C 
ATOM     14  O   UNL     1       5.947   5.406  19.644  0.00  0.00    +0.000 OA
BRANCH  13  15
ATOM     15  C   UNL     1       6.699   5.121  17.341  0.00  0.00    +0.000 C 
ATOM     16  C   UNL     1       6.521   4.124  16.197  0.00  0.00    +0.000 C 
BRANCH  15  18
ATOM     17  C   UNL     1       7.625   7.562  17.699  0.00  0.00    +0.000 C 
ATOM     18  C   UNL     1       6.852   6.574  16.837  0.00  0.00    +0.000 C 
ENDBRANCH  15  18
ENDBRANCH  13  15
ENDBRANCH  12  13
ENDBRANCH   1  12
BRANCH  10  19
ATOM     19  C   UNL     1       2.912   7.476  18.132  0.00  0.00    +0.000 C 
BRANCH  19  20
ATOM     20  C   UNL     1       1.879   8.477  17.536  0.00  0.00    +0.000 C 
BRANCH  20  21
ATOM     21  C   UNL     1       1.552   9.793  18.261  0.00  0.00    +0.000 C 
BRANCH  21  22
ATOM     22  O   UNL     1       2.120  10.857  17.488  0.00  0.00    +0.000 OA
ATOM     23  H   UNL     1       2.934  10.508  17.086  0.00  0.00    +0.000 HD
ENDBRANCH  21  22
BRANCH  21  24
ATOM     24  C   UNL     1       0.024  10.102  18.399  0.00  0.00    +0.000 C 
BRANCH  24  25
ATOM     25  C   UNL     1      -0.397  11.567  18.650  0.00  0.00    +0.000 C 
BRANCH  25  26
ATOM     26  O   UNL     1      -1.209  12.018  17.559  0.00  0.00    +0.000 OA
ATOM     27  H   UNL     1      -1.780  12.740  17.876  0.00  0.00    +0.000 HD
ENDBRANCH  25  26
BRANCH  25  28
ATOM     28  C   UNL     1      -1.221  11.774  19.943  0.00  0.00    +0.000 C 
BRANCH  28  29
ATOM     29  C   UNL     1      -2.421  12.659  19.759  0.00  0.00    +0.000 C 
ATOM     30  O   UNL     1      -3.563  12.245  19.580  0.00  0.00    +0.000 OA
BRANCH  29  31
ATOM     31  O   UNL     1      -2.124  13.977  19.801  0.00  0.00    +0.000 OA
ATOM     32  H   UNL     1      -1.849  14.305  20.679  0.00  0.00    +0.000 HD
ENDBRANCH  29  31
ENDBRANCH  28  29
ENDBRANCH  25  28
ENDBRANCH  24  25
ENDBRANCH  21  24
ENDBRANCH  20  21
ENDBRANCH  19  20
ENDBRANCH  10  19
TORSDOF 14
ENDMDL
MODEL 8
REMARK VINA RESULT:      -6.2      1.067      1.686
REMARK  Name = 
REMARK  17 active torsions:
REMARK  status: ('A' for Active; 'I' for Inactive)
REMARK    1  A    between atoms: C_1  and  C_2
REMARK    2  A    between atoms: C_2  and  C_3
REMARK    3  A    between atoms: C_3  and  C_4
REMARK    4  A    between atoms: C_3  and  C_5
REMARK    5  A    between atoms: C_5  and  O_7
REMARK    6  A    between atoms: O_7  and  C_8
REMARK    7  A    between atoms: C_15  and  C_16
REMARK    8  A    between atoms: C_17  and  C_18
REMARK    9  A    between atoms: C_18  and  C_19
REMARK   10  A    between atoms: C_19  and  C_20
REMARK   11  A    between atoms: C_20  and  O_21
REMARK   12  A    between atoms: C_20  and  C_22
REMARK   13  A    between atoms: C_22  and  C_23
REMARK   14  A    between atoms: C_23  and  O_24
REMARK   15  A    between atoms: C_23  and  C_25
REMARK   16  A    between atoms: C_25  and  C_26
REMARK   17  A    between atoms: C_26  and  O_28
REMARK                            x       y       z     vdW  Elec       q    Type
REMARK                         _______ _______ _______ _____ _____    ______ ____
ROOT
ATOM      1  C   UNL     1       3.054   4.168  17.310  0.00  0.00    +0.000 C 
ATOM      2  C   UNL     1       2.461   2.854  16.785  0.00  0.00    +0.000 C 
ATOM      3  C   UNL     1       2.333   1.778  17.861  0.00  0.00    +0.000 C 
ATOM      4  C   UNL     1       1.678   2.283  19.154  0.00  0.00    +0.000 C 
ATOM      5  C   UNL     1       2.297   3.616  19.605  0.00  0.00    +0.000 C 
ATOM      6  C   UNL     1       1.813   4.076  20.965  0.00  0.00    +0.000 C 
ATOM      7  C   UNL     1       2.565   5.352  21.328  0.00  0.00    +0.000 C 
ATOM      8  C   UNL     1       2.185   6.531  20.394  0.00  0.00    +0.000 C 
ATOM      9  C   UNL     1       0.819   7.052  20.836  0.00  0.00    +0.000 C 
ATOM     10  C   UNL     1       2.439   6.161  18.890  0.00  0.00    +0.000 C 
ATOM     11  C   UNL     1       2.126   4.682  18.478  0.00  0.00    +0.000 C 
ENDROOT
BRANCH   1  12
ATOM     12  O   UNL     1       4.410   4.020  17.856  0.00  0.00    +0.000 OA
BRANCH  12  13
ATOM     13  C   UNL     1       5.518   4.292  17.107  0.00  0.00    +0.000 C 
ATOM     14  O   UNL     1       5.797   3.703  16.069  0.00  0.00    +0.000 OA
BRANCH  13  15
ATOM     15  C   UNL     1       6.298   5.511  17.629  0.00  0.00    +0.000 C 
ATOM     16  C   UNL     1       5.827   6.862  17.092  0.00  0.00    +0.000 C 
BRANCH  15  18
ATOM     17  C   UNL     1       7.994   5.701  19.636  0.00  0.00    +0.000 C 
ATOM     18  C   UNL     1       6.561   5.542  19.151  0.00  0.00    +0.000 C 
ENDBRANCH  15  18
ENDBRANCH  13  15
ENDBRANCH  12  13
ENDBRANCH   1  12
BRANCH  10  19
ATOM     19  C   UNL     1       2.185   7.210  17.729  0.00  0.00    +0.000 C 
BRANCH  19  20
ATOM     20  C   UNL     1       2.600   8.698  17.539  0.00  0.00    +0.000 C 
BRANCH  20  21
ATOM     21  C   UNL     1       1.857   9.822  18.280  0.00  0.00    +0.000 C 
BRANCH  21  22
ATOM     22  O   UNL     1       2.116  11.041  17.572  0.00  0.00    +0.000 OA
ATOM     23  H   UNL     1       2.890  10.877  17.006  0.00  0.00    +0.000 HD
ENDBRANCH  21  22
BRANCH  21  24
ATOM     24  C   UNL     1       0.302   9.654  18.335  0.00  0.00    +0.000 C 
BRANCH  24  25
ATOM     25  C   UNL     1      -0.456  10.324  19.502  0.00  0.00    +0.000 C 
BRANCH  25  26
ATOM     26  O   UNL     1       0.467  11.089  20.286  0.00  0.00    +0.000 OA
ATOM     27  H   UNL     1       0.595  10.639  21.140  0.00  0.00    +0.000 HD
ENDBRANCH  25  26
BRANCH  25  28
ATOM     28  C   UNL     1      -1.578  11.289  19.054  0.00  0.00    +0.000 C 
BRANCH  28  29
ATOM     29  C   UNL     1      -1.131  12.306  18.042  0.00  0.00    +0.000 C 
ATOM     30  O   UNL     1      -0.243  13.131  18.238  0.00  0.00    +0.000 OA
BRANCH  29  31
ATOM     31  O   UNL     1      -1.814  12.235  16.877  0.00  0.00    +0.000 OA
ATOM     32  H   UNL     1      -1.664  11.417  16.366  0.00  0.00    +0.000 HD
ENDBRANCH  29  31
ENDBRANCH  28  29
ENDBRANCH  25  28
ENDBRANCH  24  25
ENDBRANCH  21  24
ENDBRANCH  20  21
ENDBRANCH  19  20
ENDBRANCH  10  19
TORSDOF 14
ENDMDL
MODEL 9
REMARK VINA RESULT:      -6.2      1.091      1.345
REMARK  Name = 
REMARK  17 active torsions:
REMARK  status: ('A' for Active; 'I' for Inactive)
REMARK    1  A    between atoms: C_1  and  C_2
REMARK    2  A    between atoms: C_2  and  C_3
REMARK    3  A    between atoms: C_3  and  C_4
REMARK    4  A    between atoms: C_3  and  C_5
REMARK    5  A    between atoms: C_5  and  O_7
REMARK    6  A    between atoms: O_7  and  C_8
REMARK    7  A    between atoms: C_15  and  C_16
REMARK    8  A    between atoms: C_17  and  C_18
REMARK    9  A    between atoms: C_18  and  C_19
REMARK   10  A    between atoms: C_19  and  C_20
REMARK   11  A    between atoms: C_20  and  O_21
REMARK   12  A    between atoms: C_20  and  C_22
REMARK   13  A    between atoms: C_22  and  C_23
REMARK   14  A    between atoms: C_23  and  O_24
REMARK   15  A    between atoms: C_23  and  C_25
REMARK   16  A    between atoms: C_25  and  C_26
REMARK   17  A    between atoms: C_26  and  O_28
REMARK                            x       y       z     vdW  Elec       q    Type
REMARK                         _______ _______ _______ _____ _____    ______ ____
ROOT
ATOM      1  C   UNL     1       3.357   4.541  17.515  0.00  0.00    +0.000 C 
ATOM      2  C   UNL     1       2.835   3.251  16.868  0.00  0.00    +0.000 C 
ATOM      3  C   UNL     1       2.505   2.158  17.882  0.00  0.00    +0.000 C 
ATOM      4  C   UNL     1       1.652   2.654  19.057  0.00  0.00    +0.000 C 
ATOM      5  C   UNL     1       2.212   3.963  19.636  0.00  0.00    +0.000 C 
ATOM      6  C   UNL     1       1.515   4.408  20.906  0.00  0.00    +0.000 C 
ATOM      7  C   UNL     1       2.220   5.658  21.419  0.00  0.00    +0.000 C 
ATOM      8  C   UNL     1       2.028   6.864  20.462  0.00  0.00    +0.000 C 
ATOM      9  C   UNL     1       0.618   7.408  20.680  0.00  0.00    +0.000 C 
ATOM     10  C   UNL     1       2.525   6.517  19.014  0.00  0.00    +0.000 C 
ATOM     11  C   UNL     1       2.255   5.054  18.521  0.00  0.00    +0.000 C 
ENDROOT
BRANCH   1  12
ATOM     12  O   UNL     1       4.598   4.350  18.278  0.00  0.00    +0.000 OA
BRANCH  12  13
ATOM     13  C   UNL     1       5.823   4.596  17.728  0.00  0.00    +0.000 C 
ATOM     14  O   UNL     1       6.342   3.881  16.878  0.00  0.00    +0.000 OA
BRANCH  13  15
ATOM     15  C   UNL     1       6.415   5.941  18.184  0.00  0.00    +0.000 C 
ATOM     16  C   UNL     1       7.722   5.843  18.970  0.00  0.00    +0.000 C 
BRANCH  15  18
ATOM     17  C   UNL     1       5.355   7.090  16.063  0.00  0.00    +0.000 C 
ATOM     18  C   UNL     1       6.453   7.057  17.116  0.00  0.00    +0.000 C 
ENDBRANCH  15  18
ENDBRANCH  13  15
ENDBRANCH  12  13
ENDBRANCH   1  12
BRANCH  10  19
ATOM     19  C   UNL     1       2.492   7.594  17.851  0.00  0.00    +0.000 C 
BRANCH  19  20
ATOM     20  C   UNL     1       2.449   9.149  17.852  0.00  0.00    +0.000 C 
BRANCH  20  21
ATOM     21  C   UNL     1       1.236   9.903  18.421  0.00  0.00    +0.000 C 
BRANCH  21  22
ATOM     22  O   UNL     1       1.545  11.301  18.379  0.00  0.00    +0.000 OA
ATOM     23  H   UNL     1       1.135  11.654  17.570  0.00  0.00    +0.000 HD
ENDBRANCH  21  22
BRANCH  21  24
ATOM     24  C   UNL     1      -0.092   9.710  17.615  0.00  0.00    +0.000 C 
BRANCH  24  25
ATOM     25  C   UNL     1      -1.298  10.602  17.985  0.00  0.00    +0.000 C 
BRANCH  25  26
ATOM     26  O   UNL     1      -1.060  11.935  17.517  0.00  0.00    +0.000 OA
ATOM     27  H   UNL     1      -1.530  12.055  16.674  0.00  0.00    +0.000 HD
ENDBRANCH  25  26
BRANCH  25  28
ATOM     28  C   UNL     1      -2.638  10.138  17.369  0.00  0.00    +0.000 C 
BRANCH  28  29
ATOM     29  C   UNL     1      -3.234  11.127  16.406  0.00  0.00    +0.000 C 
ATOM     30  O   UNL     1      -2.931  11.202  15.218  0.00  0.00    +0.000 OA
BRANCH  29  31
ATOM     31  O   UNL     1      -4.144  11.946  16.978  0.00  0.00    +0.000 OA
ATOM     32  H   UNL     1      -4.349  11.740  17.909  0.00  0.00    +0.000 HD
ENDBRANCH  29  31
ENDBRANCH  28  29
ENDBRANCH  25  28
ENDBRANCH  24  25
ENDBRANCH  21  24
ENDBRANCH  20  21
ENDBRANCH  19  20
ENDBRANCH  10  19
TORSDOF 14
ENDMDL
