MODEL 1
REMARK VINA RESULT:      -7.5      0.000      0.000
REMARK  Name = 
REMARK  7 active torsions:
REMARK  status: ('A' for Active; 'I' for Inactive)
REMARK    1  A    between atoms: C_1  and  C_2
REMARK    2  A    between atoms: C_2  and  N_3
REMARK    3  A    between atoms: N_3  and  C_4
REMARK    4  A    between atoms: N_3  and  C_6
REMARK    5  A    between atoms: C_4  and  C_5
REMARK    6  A    between atoms: C_11  and  C_12
REMARK    7  A    between atoms: N_14  and  C_15
REMARK                            x       y       z     vdW  Elec       q    Type
REMARK                         _______ _______ _______ _____ _____    ______ ____
ROOT
ATOM      1  C   UNL     1      -1.064  11.495  22.425  0.00  0.00    +0.000 A 
ATOM      2  C   UNL     1      -0.790  10.286  23.102  0.00  0.00    +0.000 A 
ATOM      3  C   UNL     1      -0.028   9.259  22.534  0.00  0.00    +0.000 A 
ATOM      4  C   UNL     1       0.499   9.413  21.261  0.00  0.00    +0.000 A 
ATOM      5  C   UNL     1       1.284   8.382  20.617  0.00  0.00    +0.000 A 
ATOM      6  C   UNL     1       1.756   8.540  19.368  0.00  0.00    +0.000 A 
ATOM      7  C   UNL     1       1.500   9.792  18.625  0.00  0.00    +0.000 A 
ATOM      8  N   UNL     1       1.858  10.066  17.416  0.00  0.00    +0.000 NA
ATOM      9  O   UNL     1       0.776  10.779  19.284  0.00  0.00    +0.000 OA
ATOM     10  C   UNL     1       0.241  10.579  20.572  0.00  0.00    +0.000 A 
ATOM     11  C   UNL     1      -0.544  11.595  21.122  0.00  0.00    +0.000 A 
ATOM     12  H   UNL     1       2.304   9.277  16.949  0.00  0.00    +0.000 HD
ENDROOT
BRANCH   6  13
ATOM     13  C   UNL     1       2.434   7.324  18.834  0.00  0.00    +0.000 C 
ATOM     14  O   UNL     1       3.326   7.479  17.993  0.00  0.00    +0.000 OA
ATOM     15  N   UNL     1       1.975   6.096  19.277  0.00  0.00    +0.000 N 
ATOM     16  H   UNL     1       1.103   6.063  19.795  0.00  0.00    +0.000 HD
BRANCH  15  17
ATOM     17  C   UNL     1       2.522   4.846  18.881  0.00  0.00    +0.000 A 
ATOM     18  C   UNL     1       1.954   4.035  17.893  0.00  0.00    +0.000 A 
ATOM     19  C   UNL     1       2.492   2.784  17.579  0.00  0.00    +0.000 A 
ATOM     20  C   UNL     1       3.631   2.335  18.236  0.00  0.00    +0.000 A 
ATOM     21  C   UNL     1       4.233   3.145  19.195  0.00  0.00    +0.000 A 
ATOM     22  C   UNL     1       3.686   4.399  19.513  0.00  0.00    +0.000 A 
ENDBRANCH  15  17
ENDBRANCH   6  13
BRANCH   1  23
ATOM     23  N   UNL     1      -1.786  12.536  23.033  0.00  0.00    +0.000 N 
BRANCH  23  25
ATOM     24  C   UNL     1      -4.177  12.668  22.402  0.00  0.00    +0.000 C 
ATOM     25  C   UNL     1      -3.165  12.311  23.485  0.00  0.00    +0.000 C 
ENDBRANCH  23  25
BRANCH  23  26
ATOM     26  C   UNL     1      -1.065  13.781  23.358  0.00  0.00    +0.000 C 
ATOM     27  C   UNL     1      -1.363  15.001  22.505  0.00  0.00    +0.000 C 
ENDBRANCH  23  26
ENDBRANCH   1  23
TORSDOF 5
ENDMDL
MODEL 2
REMARK VINA RESULT:      -7.5      3.700      5.409
REMARK  Name = 
REMARK  7 active torsions:
REMARK  status: ('A' for Active; 'I' for Inactive)
REMARK    1  A    between atoms: C_1  and  C_2
REMARK    2  A    between atoms: C_2  and  N_3
REMARK    3  A    between atoms: N_3  and  C_4
REMARK    4  A    between atoms: N_3  and  C_6
REMARK    5  A    between atoms: C_4  and  C_5
REMARK    6  A    between atoms: C_11  and  C_12
REMARK    7  A    between atoms: N_14  and  C_15
REMARK                            x       y       z     vdW  Elec       q    Type
REMARK                         _______ _______ _______ _____ _____    ______ ____
ROOT
ATOM      1  C   UNL     1       1.250   8.946  19.951  0.00  0.00    +0.000 A 
ATOM      2  C   UNL     1       1.532   9.402  18.645  0.00  0.00    +0.000 A 
ATOM      3  C   UNL     1       2.326   8.679  17.748  0.00  0.00    +0.000 A 
ATOM      4  C   UNL     1       2.863   7.459  18.129  0.00  0.00    +0.000 A 
ATOM      5  C   UNL     1       3.702   6.673  17.251  0.00  0.00    +0.000 A 
ATOM      6  C   UNL     1       4.240   5.508  17.655  0.00  0.00    +0.000 A 
ATOM      7  C   UNL     1       3.965   4.989  19.012  0.00  0.00    +0.000 A 
ATOM      8  N   UNL     1       4.439   3.913  19.543  0.00  0.00    +0.000 NA
ATOM      9  O   UNL     1       3.125   5.747  19.819  0.00  0.00    +0.000 OA
ATOM     10  C   UNL     1       2.613   6.993  19.402  0.00  0.00    +0.000 A 
ATOM     11  C   UNL     1       1.845   7.723  20.311  0.00  0.00    +0.000 A 
ATOM     12  H   UNL     1       5.119   3.444  18.945  0.00  0.00    +0.000 HD
ENDROOT
BRANCH   6  13
ATOM     13  C   UNL     1       5.169   4.909  16.656  0.00  0.00    +0.000 C 
ATOM     14  O   UNL     1       6.059   4.155  17.069  0.00  0.00    +0.000 OA
ATOM     15  N   UNL     1       5.009   5.285  15.334  0.00  0.00    +0.000 N 
ATOM     16  H   UNL     1       4.399   6.068  15.124  0.00  0.00    +0.000 HD
BRANCH  15  17
ATOM     17  C   UNL     1       5.798   4.793  14.259  0.00  0.00    +0.000 A 
ATOM     18  C   UNL     1       7.091   5.249  13.982  0.00  0.00    +0.000 A 
ATOM     19  C   UNL     1       7.808   4.782  12.877  0.00  0.00    +0.000 A 
ATOM     20  C   UNL     1       7.246   3.823  12.042  0.00  0.00    +0.000 A 
ATOM     21  C   UNL     1       5.975   3.328  12.325  0.00  0.00    +0.000 A 
ATOM     22  C   UNL     1       5.255   3.805  13.432  0.00  0.00    +0.000 A 
ENDBRANCH  15  17
ENDBRANCH   6  13
BRANCH   1  23
ATOM     23  N   UNL     1       0.406   9.660  20.817  0.00  0.00    +0.000 N 
BRANCH  23  25
ATOM     24  C   UNL     1      -1.261  11.187  19.803  0.00  0.00    +0.000 C 
ATOM     25  C   UNL     1       0.073  11.062  20.533  0.00  0.00    +0.000 C 
ENDBRANCH  23  25
BRANCH  23  26
ATOM     26  C   UNL     1      -0.265   8.917  21.900  0.00  0.00    +0.000 C 
ATOM     27  C   UNL     1      -0.256   9.542  23.284  0.00  0.00    +0.000 C 
ENDBRANCH  23  26
ENDBRANCH   1  23
TORSDOF 5
ENDMDL
MODEL 3
REMARK VINA RESULT:      -7.5      0.132      1.248
REMARK  Name = 
REMARK  7 active torsions:
REMARK  status: ('A' for Active; 'I' for Inactive)
REMARK    1  A    between atoms: C_1  and  C_2
REMARK    2  A    between atoms: C_2  and  N_3
REMARK    3  A    between atoms: N_3  and  C_4
REMARK    4  A    between atoms: N_3  and  C_6
REMARK    5  A    between atoms: C_4  and  C_5
REMARK    6  A    between atoms: C_11  and  C_12
REMARK    7  A    between atoms: N_14  and  C_15
REMARK                            x       y       z     vdW  Elec       q    Type
REMARK                         _______ _______ _______ _____ _____    ______ ____
ROOT
ATOM      1  C   UNL     1      -1.049  11.489  22.486  0.00  0.00    +0.000 A 
ATOM      2  C   UNL     1      -0.785  10.263  23.134  0.00  0.00    +0.000 A 
ATOM      3  C   UNL     1      -0.025   9.245  22.547  0.00  0.00    +0.000 A 
ATOM      4  C   UNL     1       0.510   9.427  21.281  0.00  0.00    +0.000 A 
ATOM      5  C   UNL     1       1.294   8.407  20.617  0.00  0.00    +0.000 A 
ATOM      6  C   UNL     1       1.775   8.593  19.375  0.00  0.00    +0.000 A 
ATOM      7  C   UNL     1       1.528   9.863  18.661  0.00  0.00    +0.000 A 
ATOM      8  N   UNL     1       1.895  10.163  17.460  0.00  0.00    +0.000 NA
ATOM      9  O   UNL     1       0.806  10.838  19.339  0.00  0.00    +0.000 OA
ATOM     10  C   UNL     1       0.262  10.610  20.618  0.00  0.00    +0.000 A 
ATOM     11  C   UNL     1      -0.520  11.617  21.188  0.00  0.00    +0.000 A 
ATOM     12  H   UNL     1       2.339   9.384  16.977  0.00  0.00    +0.000 HD
ENDROOT
BRANCH   6  13
ATOM     13  C   UNL     1       2.449   7.386  18.816  0.00  0.00    +0.000 C 
ATOM     14  O   UNL     1       3.304   7.553  17.939  0.00  0.00    +0.000 OA
ATOM     15  N   UNL     1       2.027   6.152  19.279  0.00  0.00    +0.000 N 
ATOM     16  H   UNL     1       1.177   6.107  19.832  0.00  0.00    +0.000 HD
BRANCH  15  17
ATOM     17  C   UNL     1       2.577   4.910  18.863  0.00  0.00    +0.000 A 
ATOM     18  C   UNL     1       2.053   4.148  17.814  0.00  0.00    +0.000 A 
ATOM     19  C   UNL     1       2.589   2.901  17.479  0.00  0.00    +0.000 A 
ATOM     20  C   UNL     1       3.684   2.408  18.179  0.00  0.00    +0.000 A 
ATOM     21  C   UNL     1       4.245   3.170  19.200  0.00  0.00    +0.000 A 
ATOM     22  C   UNL     1       3.699   4.419  19.538  0.00  0.00    +0.000 A 
ENDBRANCH  15  17
ENDBRANCH   6  13
BRANCH   1  23
ATOM     23  N   UNL     1      -1.768  12.518  23.114  0.00  0.00    +0.000 N 
BRANCH  23  25
ATOM     24  C   UNL     1      -1.413  14.884  22.473  0.00  0.00    +0.000 C 
ATOM     25  C   UNL     1      -1.098  13.775  23.472  0.00  0.00    +0.000 C 
ENDBRANCH  23  25
BRANCH  23  26
ATOM     26  C   UNL     1      -3.231  12.367  23.235  0.00  0.00    +0.000 C 
ATOM     27  C   UNL     1      -4.064  12.639  21.996  0.00  0.00    +0.000 C 
ENDBRANCH  23  26
ENDBRANCH   1  23
TORSDOF 5
ENDMDL
MODEL 4
REMARK VINA RESULT:      -7.3      3.670      5.332
REMARK  Name = 
REMARK  7 active torsions:
REMARK  status: ('A' for Active; 'I' for Inactive)
REMARK    1  A    between atoms: C_1  and  C_2
REMARK    2  A    between atoms: C_2  and  N_3
REMARK    3  A    between atoms: N_3  and  C_4
REMARK    4  A    between atoms: N_3  and  C_6
REMARK    5  A    between atoms: C_4  and  C_5
REMARK    6  A    between atoms: C_11  and  C_12
REMARK    7  A    between atoms: N_14  and  C_15
REMARK                            x       y       z     vdW  Elec       q    Type
REMARK                         _______ _______ _______ _____ _____    ______ ____
ROOT
ATOM      1  C   UNL     1       1.260   8.899  20.059  0.00  0.00    +0.000 A 
ATOM      2  C   UNL     1       1.472   9.310  18.725  0.00  0.00    +0.000 A 
ATOM      3  C   UNL     1       2.196   8.544  17.805  0.00  0.00    +0.000 A 
ATOM      4  C   UNL     1       2.731   7.325  18.191  0.00  0.00    +0.000 A 
ATOM      5  C   UNL     1       3.499   6.495  17.288  0.00  0.00    +0.000 A 
ATOM      6  C   UNL     1       4.036   5.330  17.695  0.00  0.00    +0.000 A 
ATOM      7  C   UNL     1       3.834   4.858  19.081  0.00  0.00    +0.000 A 
ATOM      8  N   UNL     1       4.317   3.788  19.615  0.00  0.00    +0.000 NA
ATOM      9  O   UNL     1       3.059   5.658  19.913  0.00  0.00    +0.000 OA
ATOM     10  C   UNL     1       2.548   6.901  19.490  0.00  0.00    +0.000 A 
ATOM     11  C   UNL     1       1.851   7.675  20.420  0.00  0.00    +0.000 A 
ATOM     12  H   UNL     1       4.950   3.287  18.992  0.00  0.00    +0.000 HD
ENDROOT
BRANCH   6  13
ATOM     13  C   UNL     1       4.892   4.682  16.661  0.00  0.00    +0.000 C 
ATOM     14  O   UNL     1       5.437   3.610  16.947  0.00  0.00    +0.000 OA
ATOM     15  N   UNL     1       5.065   5.358  15.466  0.00  0.00    +0.000 N 
ATOM     16  H   UNL     1       4.759   6.324  15.407  0.00  0.00    +0.000 HD
BRANCH  15  17
ATOM     17  C   UNL     1       5.833   4.871  14.374  0.00  0.00    +0.000 A 
ATOM     18  C   UNL     1       7.120   5.328  14.072  0.00  0.00    +0.000 A 
ATOM     19  C   UNL     1       7.814   4.865  12.951  0.00  0.00    +0.000 A 
ATOM     20  C   UNL     1       7.236   3.909  12.124  0.00  0.00    +0.000 A 
ATOM     21  C   UNL     1       5.972   3.412  12.431  0.00  0.00    +0.000 A 
ATOM     22  C   UNL     1       5.274   3.885  13.554  0.00  0.00    +0.000 A 
ENDBRANCH  15  17
ENDBRANCH   6  13
BRANCH   1  23
ATOM     23  N   UNL     1       0.485   9.657  20.952  0.00  0.00    +0.000 N 
BRANCH  23  25
ATOM     24  C   UNL     1      -0.531   9.505  23.206  0.00  0.00    +0.000 C 
ATOM     25  C   UNL     1       0.756   9.603  22.395  0.00  0.00    +0.000 C 
ENDBRANCH  23  25
BRANCH  23  26
ATOM     26  C   UNL     1      -0.474  10.626  20.388  0.00  0.00    +0.000 C 
ATOM     27  C   UNL     1      -0.143  12.100  20.538  0.00  0.00    +0.000 C 
ENDBRANCH  23  26
ENDBRANCH   1  23
TORSDOF 5
ENDMDL
MODEL 5
REMARK VINA RESULT:      -7.3      1.865      9.197
REMARK  Name = 
REMARK  7 active torsions:
REMARK  status: ('A' for Active; 'I' for Inactive)
REMARK    1  A    between atoms: C_1  and  C_2
REMARK    2  A    between atoms: C_2  and  N_3
REMARK    3  A    between atoms: N_3  and  C_4
REMARK    4  A    between atoms: N_3  and  C_6
REMARK    5  A    between atoms: C_4  and  C_5
REMARK    6  A    between atoms: C_11  and  C_12
REMARK    7  A    between atoms: N_14  and  C_15
REMARK                            x       y       z     vdW  Elec       q    Type
REMARK                         _______ _______ _______ _____ _____    ______ ____
ROOT
ATOM      1  C   UNL     1       2.580   7.175  18.655  0.00  0.00    +0.000 A 
ATOM      2  C   UNL     1       2.146   8.204  17.791  0.00  0.00    +0.000 A 
ATOM      3  C   UNL     1       1.378   9.287  18.232  0.00  0.00    +0.000 A 
ATOM      4  C   UNL     1       1.024   9.384  19.568  0.00  0.00    +0.000 A 
ATOM      5  C   UNL     1       0.222  10.474  20.081  0.00  0.00    +0.000 A 
ATOM      6  C   UNL     1      -0.138  10.528  21.376  0.00  0.00    +0.000 A 
ATOM      7  C   UNL     1       0.299   9.476  22.318  0.00  0.00    +0.000 A 
ATOM      8  N   UNL     1       0.001   9.382  23.570  0.00  0.00    +0.000 NA
ATOM      9  O   UNL     1       1.101   8.464  21.805  0.00  0.00    +0.000 OA
ATOM     10  C   UNL     1       1.425   8.390  20.435  0.00  0.00    +0.000 A 
ATOM     11  C   UNL     1       2.166   7.291  19.995  0.00  0.00    +0.000 A 
ATOM     12  H   UNL     1      -0.661  10.096  23.873  0.00  0.00    +0.000 HD
ENDROOT
BRANCH   6  13
ATOM     13  C   UNL     1      -1.062  11.656  21.685  0.00  0.00    +0.000 C 
ATOM     14  O   UNL     1      -1.517  12.310  20.739  0.00  0.00    +0.000 OA
ATOM     15  N   UNL     1      -1.303  11.933  23.019  0.00  0.00    +0.000 N 
ATOM     16  H   UNL     1      -0.719  11.487  23.719  0.00  0.00    +0.000 HD
BRANCH  15  17
ATOM     17  C   UNL     1      -2.169  12.960  23.481  0.00  0.00    +0.000 A 
ATOM     18  C   UNL     1      -3.549  12.791  23.638  0.00  0.00    +0.000 A 
ATOM     19  C   UNL     1      -4.372  13.847  24.037  0.00  0.00    +0.000 A 
ATOM     20  C   UNL     1      -3.818  15.092  24.313  0.00  0.00    +0.000 A 
ATOM     21  C   UNL     1      -2.441  15.269  24.201  0.00  0.00    +0.000 A 
ATOM     22  C   UNL     1      -1.618  14.207  23.793  0.00  0.00    +0.000 A 
ENDBRANCH  15  17
ENDBRANCH   6  13
BRANCH   1  23
ATOM     23  N   UNL     1       3.394   6.124  18.204  0.00  0.00    +0.000 N 
BRANCH  23  25
ATOM     24  C   UNL     1       4.965   5.844  16.309  0.00  0.00    +0.000 C 
ATOM     25  C   UNL     1       4.751   6.401  17.713  0.00  0.00    +0.000 C 
ENDBRANCH  23  25
BRANCH  23  26
ATOM     26  C   UNL     1       2.918   4.742  18.404  0.00  0.00    +0.000 C 
ATOM     27  C   UNL     1       1.630   4.342  17.709  0.00  0.00    +0.000 C 
ENDBRANCH  23  26
ENDBRANCH   1  23
TORSDOF 5
ENDMDL
MODEL 6
REMARK VINA RESULT:      -7.3      1.822      8.922
REMARK  Name = 
REMARK  7 active torsions:
REMARK  status: ('A' for Active; 'I' for Inactive)
REMARK    1  A    between atoms: C_1  and  C_2
REMARK    2  A    between atoms: C_2  and  N_3
REMARK    3  A    between atoms: N_3  and  C_4
REMARK    4  A    between atoms: N_3  and  C_6
REMARK    5  A    between atoms: C_4  and  C_5
REMARK    6  A    between atoms: C_11  and  C_12
REMARK    7  A    between atoms: N_14  and  C_15
REMARK                            x       y       z     vdW  Elec       q    Type
REMARK                         _______ _______ _______ _____ _____    ______ ____
ROOT
ATOM      1  C   UNL     1       2.903   6.015  18.767  0.00  0.00    +0.000 A 
ATOM      2  C   UNL     1       2.446   5.530  20.012  0.00  0.00    +0.000 A 
ATOM      3  C   UNL     1       1.721   6.320  20.910  0.00  0.00    +0.000 A 
ATOM      4  C   UNL     1       1.417   7.633  20.586  0.00  0.00    +0.000 A 
ATOM      5  C   UNL     1       0.682   8.502  21.479  0.00  0.00    +0.000 A 
ATOM      6  C   UNL     1       0.428   9.784  21.157  0.00  0.00    +0.000 A 
ATOM      7  C   UNL     1       0.881  10.331  19.861  0.00  0.00    +0.000 A 
ATOM      8  N   UNL     1       0.741  11.542  19.438  0.00  0.00    +0.000 NA
ATOM      9  O   UNL     1       1.551   9.462  19.008  0.00  0.00    +0.000 OA
ATOM     10  C   UNL     1       1.857   8.138  19.381  0.00  0.00    +0.000 A 
ATOM     11  C   UNL     1       2.606   7.363  18.493  0.00  0.00    +0.000 A 
ATOM     12  H   UNL     1       0.327  12.159  20.136  0.00  0.00    +0.000 HD
ENDROOT
BRANCH   6  13
ATOM     13  C   UNL     1      -0.231  10.548  22.253  0.00  0.00    +0.000 C 
ATOM     14  O   UNL     1      -0.043  10.174  23.416  0.00  0.00    +0.000 OA
ATOM     15  N   UNL     1      -1.059  11.595  21.888  0.00  0.00    +0.000 N 
ATOM     16  H   UNL     1      -1.321  11.688  20.912  0.00  0.00    +0.000 HD
BRANCH  15  17
ATOM     17  C   UNL     1      -1.746  12.432  22.808  0.00  0.00    +0.000 A 
ATOM     18  C   UNL     1      -3.010  12.132  23.327  0.00  0.00    +0.000 A 
ATOM     19  C   UNL     1      -3.675  13.015  24.182  0.00  0.00    +0.000 A 
ATOM     20  C   UNL     1      -3.068  14.209  24.554  0.00  0.00    +0.000 A 
ATOM     21  C   UNL     1      -1.793  14.506  24.079  0.00  0.00    +0.000 A 
ATOM     22  C   UNL     1      -1.131  13.620  23.215  0.00  0.00    +0.000 A 
ENDBRANCH  15  17
ENDBRANCH   6  13
BRANCH   1  23
ATOM     23  N   UNL     1       3.582   5.190  17.855  0.00  0.00    +0.000 N 
BRANCH  23  25
ATOM     24  C   UNL     1       3.555   2.716  17.751  0.00  0.00    +0.000 C 
ATOM     25  C   UNL     1       2.911   4.016  17.282  0.00  0.00    +0.000 C 
ENDBRANCH  23  25
BRANCH  23  26
ATOM     26  C   UNL     1       4.900   5.636  17.366  0.00  0.00    +0.000 C 
ATOM     27  C   UNL     1       5.140   5.586  15.868  0.00  0.00    +0.000 C 
ENDBRANCH  23  26
ENDBRANCH   1  23
TORSDOF 5
ENDMDL
MODEL 7
REMARK VINA RESULT:      -7.3      1.041      1.278
REMARK  Name = 
REMARK  7 active torsions:
REMARK  status: ('A' for Active; 'I' for Inactive)
REMARK    1  A    between atoms: C_1  and  C_2
REMARK    2  A    between atoms: C_2  and  N_3
REMARK    3  A    between atoms: N_3  and  C_4
REMARK    4  A    between atoms: N_3  and  C_6
REMARK    5  A    between atoms: C_4  and  C_5
REMARK    6  A    between atoms: C_11  and  C_12
REMARK    7  A    between atoms: N_14  and  C_15
REMARK                            x       y       z     vdW  Elec       q    Type
REMARK                         _______ _______ _______ _____ _____    ______ ____
ROOT
ATOM      1  C   UNL     1      -1.309  11.894  22.419  0.00  0.00    +0.000 A 
ATOM      2  C   UNL     1      -1.089  10.726  23.181  0.00  0.00    +0.000 A 
ATOM      3  C   UNL     1      -0.340   9.643  22.706  0.00  0.00    +0.000 A 
ATOM      4  C   UNL     1       0.228   9.698  21.443  0.00  0.00    +0.000 A 
ATOM      5  C   UNL     1       1.003   8.607  20.893  0.00  0.00    +0.000 A 
ATOM      6  C   UNL     1       1.516   8.669  19.652  0.00  0.00    +0.000 A 
ATOM      7  C   UNL     1       1.317   9.876  18.821  0.00  0.00    +0.000 A 
ATOM      8  N   UNL     1       1.719  10.059  17.609  0.00  0.00    +0.000 NA
ATOM      9  O   UNL     1       0.603  10.923  19.391  0.00  0.00    +0.000 OA
ATOM     10  C   UNL     1       0.024  10.822  20.672  0.00  0.00    +0.000 A 
ATOM     11  C   UNL     1      -0.747  11.893  21.129  0.00  0.00    +0.000 A 
ATOM     12  H   UNL     1       2.156   9.230  17.208  0.00  0.00    +0.000 HD
ENDROOT
BRANCH   6  13
ATOM     13  C   UNL     1       2.175   7.403  19.221  0.00  0.00    +0.000 C 
ATOM     14  O   UNL     1       2.309   7.203  18.008  0.00  0.00    +0.000 OA
ATOM     15  N   UNL     1       2.539   6.508  20.210  0.00  0.00    +0.000 N 
ATOM     16  H   UNL     1       2.193   6.661  21.153  0.00  0.00    +0.000 HD
BRANCH  15  17
ATOM     17  C   UNL     1       3.190   5.268  19.970  0.00  0.00    +0.000 A 
ATOM     18  C   UNL     1       4.450   5.163  19.373  0.00  0.00    +0.000 A 
ATOM     19  C   UNL     1       5.026   3.920  19.099  0.00  0.00    +0.000 A 
ATOM     20  C   UNL     1       4.354   2.754  19.448  0.00  0.00    +0.000 A 
ATOM     21  C   UNL     1       3.116   2.839  20.079  0.00  0.00    +0.000 A 
ATOM     22  C   UNL     1       2.537   4.090  20.346  0.00  0.00    +0.000 A 
ENDBRANCH  15  17
ENDBRANCH   6  13
BRANCH   1  23
ATOM     23  N   UNL     1      -2.018  12.991  22.934  0.00  0.00    +0.000 N 
BRANCH  23  25
ATOM     24  C   UNL     1      -4.009  12.337  24.255  0.00  0.00    +0.000 C 
ATOM     25  C   UNL     1      -3.486  12.969  22.969  0.00  0.00    +0.000 C 
ENDBRANCH  23  25
BRANCH  23  26
ATOM     26  C   UNL     1      -1.251  14.066  23.591  0.00  0.00    +0.000 C 
ATOM     27  C   UNL     1      -2.041  15.172  24.267  0.00  0.00    +0.000 C 
ENDBRANCH  23  26
ENDBRANCH   1  23
TORSDOF 5
ENDMDL
MODEL 8
REMARK VINA RESULT:      -7.3      0.650      1.154
REMARK  Name = 
REMARK  7 active torsions:
REMARK  status: ('A' for Active; 'I' for Inactive)
REMARK    1  A    between atoms: C_1  and  C_2
REMARK    2  A    between atoms: C_2  and  N_3
REMARK    3  A    between atoms: N_3  and  C_4
REMARK    4  A    between atoms: N_3  and  C_6
REMARK    5  A    between atoms: C_4  and  C_5
REMARK    6  A    between atoms: C_11  and  C_12
REMARK    7  A    between atoms: N_14  and  C_15
REMARK                            x       y       z     vdW  Elec       q    Type
REMARK                         _______ _______ _______ _____ _____    ______ ____
ROOT
ATOM      1  C   UNL     1      -1.022  11.315  22.092  0.00  0.00    +0.000 A 
ATOM      2  C   UNL     1      -0.754  10.195  22.909  0.00  0.00    +0.000 A 
ATOM      3  C   UNL     1       0.021   9.113  22.477  0.00  0.00    +0.000 A 
ATOM      4  C   UNL     1       0.567   9.120  21.203  0.00  0.00    +0.000 A 
ATOM      5  C   UNL     1       1.366   8.025  20.696  0.00  0.00    +0.000 A 
ATOM      6  C   UNL     1       1.858   8.039  19.444  0.00  0.00    +0.000 A 
ATOM      7  C   UNL     1       1.608   9.194  18.556  0.00  0.00    +0.000 A 
ATOM      8  N   UNL     1       1.984   9.327  17.329  0.00  0.00    +0.000 NA
ATOM      9  O   UNL     1       0.871  10.248  19.084  0.00  0.00    +0.000 OA
ATOM     10  C   UNL     1       0.316  10.195  20.379  0.00  0.00    +0.000 A 
ATOM     11  C   UNL     1      -0.481  11.265  20.794  0.00  0.00    +0.000 A 
ATOM     12  H   UNL     1       2.440   8.491  16.964  0.00  0.00    +0.000 HD
ENDROOT
BRANCH   6  13
ATOM     13  C   UNL     1       2.548   6.773  19.066  0.00  0.00    +0.000 C 
ATOM     14  O   UNL     1       3.588   6.854  18.404  0.00  0.00    +0.000 OA
ATOM     15  N   UNL     1       1.942   5.585  19.436  0.00  0.00    +0.000 N 
ATOM     16  H   UNL     1       0.988   5.615  19.783  0.00  0.00    +0.000 HD
BRANCH  15  17
ATOM     17  C   UNL     1       2.477   4.296  19.170  0.00  0.00    +0.000 A 
ATOM     18  C   UNL     1       3.476   3.701  19.948  0.00  0.00    +0.000 A 
ATOM     19  C   UNL     1       4.016   2.456  19.613  0.00  0.00    +0.000 A 
ATOM     20  C   UNL     1       3.541   1.771  18.501  0.00  0.00    +0.000 A 
ATOM     21  C   UNL     1       2.519   2.329  17.737  0.00  0.00    +0.000 A 
ATOM     22  C   UNL     1       1.983   3.584  18.073  0.00  0.00    +0.000 A 
ENDBRANCH  15  17
ENDBRANCH   6  13
BRANCH   1  23
ATOM     23  N   UNL     1      -1.757  12.415  22.563  0.00  0.00    +0.000 N 
BRANCH  23  25
ATOM     24  C   UNL     1      -4.103  12.774  23.270  0.00  0.00    +0.000 C 
ATOM     25  C   UNL     1      -2.726  12.243  23.653  0.00  0.00    +0.000 C 
ENDBRANCH  23  25
BRANCH  23  26
ATOM     26  C   UNL     1      -1.399  13.754  22.059  0.00  0.00    +0.000 C 
ATOM     27  C   UNL     1      -0.423  14.572  22.886  0.00  0.00    +0.000 C 
ENDBRANCH  23  26
ENDBRANCH   1  23
TORSDOF 5
ENDMDL
MODEL 9
REMARK VINA RESULT:      -7.3      1.439      2.091
REMARK  Name = 
REMARK  7 active torsions:
REMARK  status: ('A' for Active; 'I' for Inactive)
REMARK    1  A    between atoms: C_1  and  C_2
REMARK    2  A    between atoms: C_2  and  N_3
REMARK    3  A    between atoms: N_3  and  C_4
REMARK    4  A    between atoms: N_3  and  C_6
REMARK    5  A    between atoms: C_4  and  C_5
REMARK    6  A    between atoms: C_11  and  C_12
REMARK    7  A    between atoms: N_14  and  C_15
REMARK                            x       y       z     vdW  Elec       q    Type
REMARK                         _______ _______ _______ _____ _____    ______ ____
ROOT
ATOM      1  C   UNL     1      -1.622  11.888  22.329  0.00  0.00    +0.000 A 
ATOM      2  C   UNL     1      -1.260  10.848  23.212  0.00  0.00    +0.000 A 
ATOM      3  C   UNL     1      -0.421   9.793  22.834  0.00  0.00    +0.000 A 
ATOM      4  C   UNL     1       0.096   9.749  21.549  0.00  0.00    +0.000 A 
ATOM      5  C   UNL     1       0.958   8.678  21.097  0.00  0.00    +0.000 A 
ATOM      6  C   UNL     1       1.420   8.639  19.834  0.00  0.00    +0.000 A 
ATOM      7  C   UNL     1       1.072   9.710  18.877  0.00  0.00    +0.000 A 
ATOM      8  N   UNL     1       1.412   9.783  17.635  0.00  0.00    +0.000 NA
ATOM      9  O   UNL     1       0.275  10.745  19.352  0.00  0.00    +0.000 OA
ATOM     10  C   UNL     1      -0.247  10.746  20.661  0.00  0.00    +0.000 A 
ATOM     11  C   UNL     1      -1.106  11.785  21.024  0.00  0.00    +0.000 A 
ATOM     12  H   UNL     1       1.917   8.957  17.315  0.00  0.00    +0.000 HD
ENDROOT
BRANCH   6  13
ATOM     13  C   UNL     1       2.188   7.399  19.525  0.00  0.00    +0.000 C 
ATOM     14  O   UNL     1       2.422   6.615  20.452  0.00  0.00    +0.000 OA
ATOM     15  N   UNL     1       2.638   7.238  18.227  0.00  0.00    +0.000 N 
ATOM     16  H   UNL     1       2.586   8.030  17.594  0.00  0.00    +0.000 HD
BRANCH  15  17
ATOM     17  C   UNL     1       3.366   6.108  17.765  0.00  0.00    +0.000 A 
ATOM     18  C   UNL     1       4.699   6.170  17.346  0.00  0.00    +0.000 A 
ATOM     19  C   UNL     1       5.358   5.046  16.841  0.00  0.00    +0.000 A 
ATOM     20  C   UNL     1       4.694   3.827  16.773  0.00  0.00    +0.000 A 
ATOM     21  C   UNL     1       3.379   3.736  17.224  0.00  0.00    +0.000 A 
ATOM     22  C   UNL     1       2.718   4.870  17.724  0.00  0.00    +0.000 A 
ENDBRANCH  15  17
ENDBRANCH   6  13
BRANCH   1  23
ATOM     23  N   UNL     1      -2.420  12.966  22.743  0.00  0.00    +0.000 N 
BRANCH  23  25
ATOM     24  C   UNL     1      -1.148  14.696  23.978  0.00  0.00    +0.000 C 
ATOM     25  C   UNL     1      -1.893  14.336  22.696  0.00  0.00    +0.000 C 
ENDBRANCH  23  25
BRANCH  23  26
ATOM     26  C   UNL     1      -3.839  12.701  23.050  0.00  0.00    +0.000 C 
ATOM     27  C   UNL     1      -4.238  12.656  24.513  0.00  0.00    +0.000 C 
ENDBRANCH  23  26
ENDBRANCH   1  23
TORSDOF 5
ENDMDL
