MODEL 1
REMARK VINA RESULT:      -7.0      0.000      0.000
REMARK  Name = 
REMARK  4 active torsions:
REMARK  status: ('A' for Active; 'I' for Inactive)
REMARK    1  A    between atoms: C_2  and  O_3
REMARK    2  A    between atoms: O_3  and  C_4
REMARK    3  A    between atoms: C_7  and  N_8
REMARK    4  A    between atoms: C_16  and  N_17
REMARK                            x       y       z     vdW  Elec       q    Type
REMARK                         _______ _______ _______ _____ _____    ______ ____
ROOT
ATOM      1  O   UNL     1       0.271   8.853  21.405  0.00  0.00    +0.000 OA
ATOM      2  C   UNL     1       0.735   9.111  20.298  0.00  0.00    +0.000 C 
ATOM      3  N   UNL     1       1.625   8.313  19.603  0.00  0.00    +0.000 N 
ATOM      4  C   UNL     1       2.407   8.861  18.506  0.00  0.00    +0.000 C 
ATOM      5  C   UNL     1       2.656   7.817  17.438  0.00  0.00    +0.000 C 
ATOM      6  C   UNL     1       3.252   6.497  17.971  0.00  0.00    +0.000 C 
ATOM      7  C   UNL     1       2.497   6.038  19.241  0.00  0.00    +0.000 C 
ATOM      8  C   UNL     1       2.185   7.139  20.252  0.00  0.00    +0.000 C 
ENDROOT
BRANCH   6   9
ATOM      9  N   UNL     1       4.733   6.421  18.063  0.00  0.00    +0.000 NA
ATOM     10  C   UNL     1       5.157   5.406  19.048  0.00  0.00    +0.000 C 
ATOM     11  C   UNL     1       6.672   5.327  19.232  0.00  0.00    +0.000 C 
ATOM     12  C   UNL     1       7.359   5.110  17.892  0.00  0.00    +0.000 C 
ATOM     13  C   UNL     1       6.971   6.238  16.951  0.00  0.00    +0.000 C 
ATOM     14  C   UNL     1       5.450   6.319  16.793  0.00  0.00    +0.000 C 
ENDBRANCH   6   9
BRANCH   2  15
ATOM     15  O   UNL     1       0.446  10.261  19.570  0.00  0.00    +0.000 OA
BRANCH  15  16
ATOM     16  C   UNL     1      -0.761  10.578  18.922  0.00  0.00    +0.000 A 
ATOM     17  C   UNL     1      -0.929   9.922  17.698  0.00  0.00    +0.000 A 
ATOM     18  C   UNL     1      -2.050  10.191  16.919  0.00  0.00    +0.000 A 
ATOM     19  C   UNL     1      -2.998  11.109  17.389  0.00  0.00    +0.000 A 
ATOM     20  C   UNL     1      -2.811  11.782  18.608  0.00  0.00    +0.000 A 
ATOM     21  C   UNL     1      -1.679  11.513  19.380  0.00  0.00    +0.000 A 
BRANCH  19  22
ATOM     22  N   UNL     1      -4.216  11.351  16.609  0.00  0.00    +0.000 N 
ATOM     23  O   UNL     1      -4.303  10.808  15.497  0.00  0.00    +0.000 OA
ATOM     24  O   UNL     1      -5.088  12.070  17.111  0.00  0.00    +0.000 OA
ENDBRANCH  19  22
ENDBRANCH  15  16
ENDBRANCH   2  15
TORSDOF 4
ENDMDL
MODEL 2
REMARK VINA RESULT:      -6.8      0.520      1.296
REMARK  Name = 
REMARK  4 active torsions:
REMARK  status: ('A' for Active; 'I' for Inactive)
REMARK    1  A    between atoms: C_2  and  O_3
REMARK    2  A    between atoms: O_3  and  C_4
REMARK    3  A    between atoms: C_7  and  N_8
REMARK    4  A    between atoms: C_16  and  N_17
REMARK                            x       y       z     vdW  Elec       q    Type
REMARK                         _______ _______ _______ _____ _____    ______ ____
ROOT
ATOM      1  O   UNL     1       0.327   8.950  21.337  0.00  0.00    +0.000 OA
ATOM      2  C   UNL     1       0.768   9.165  20.212  0.00  0.00    +0.000 C 
ATOM      3  N   UNL     1       1.645   8.339  19.531  0.00  0.00    +0.000 N 
ATOM      4  C   UNL     1       2.404   8.844  18.397  0.00  0.00    +0.000 C 
ATOM      5  C   UNL     1       2.632   7.758  17.366  0.00  0.00    +0.000 C 
ATOM      6  C   UNL     1       3.238   6.460  17.937  0.00  0.00    +0.000 C 
ATOM      7  C   UNL     1       2.508   6.051  19.240  0.00  0.00    +0.000 C 
ATOM      8  C   UNL     1       2.217   7.191  20.213  0.00  0.00    +0.000 C 
ENDROOT
BRANCH   6   9
ATOM      9  N   UNL     1       4.720   6.385  18.003  0.00  0.00    +0.000 NA
ATOM     10  C   UNL     1       5.163   5.388  18.996  0.00  0.00    +0.000 C 
ATOM     11  C   UNL     1       6.682   5.312  19.152  0.00  0.00    +0.000 C 
ATOM     12  C   UNL     1       7.344   5.073  17.804  0.00  0.00    +0.000 C 
ATOM     13  C   UNL     1       6.936   6.185  16.852  0.00  0.00    +0.000 C 
ATOM     14  C   UNL     1       5.414   6.263  16.722  0.00  0.00    +0.000 C 
ENDBRANCH   6   9
BRANCH   2  15
ATOM     15  O   UNL     1       0.465  10.285  19.446  0.00  0.00    +0.000 OA
BRANCH  15  16
ATOM     16  C   UNL     1      -0.785  10.636  18.907  0.00  0.00    +0.000 A 
ATOM     17  C   UNL     1      -1.481  11.578  19.672  0.00  0.00    +0.000 A 
ATOM     18  C   UNL     1      -2.760  11.968  19.290  0.00  0.00    +0.000 A 
ATOM     19  C   UNL     1      -3.320  11.415  18.131  0.00  0.00    +0.000 A 
ATOM     20  C   UNL     1      -2.626  10.453  17.381  0.00  0.00    +0.000 A 
ATOM     21  C   UNL     1      -1.345  10.059  17.776  0.00  0.00    +0.000 A 
BRANCH  19  22
ATOM     22  N   UNL     1      -4.640  11.869  17.681  0.00  0.00    +0.000 N 
ATOM     23  O   UNL     1      -5.304  12.568  18.462  0.00  0.00    +0.000 OA
ATOM     24  O   UNL     1      -5.007  11.539  16.547  0.00  0.00    +0.000 OA
ENDBRANCH  19  22
ENDBRANCH  15  16
ENDBRANCH   2  15
TORSDOF 4
ENDMDL
MODEL 3
REMARK VINA RESULT:      -6.8      3.591      8.431
REMARK  Name = 
REMARK  4 active torsions:
REMARK  status: ('A' for Active; 'I' for Inactive)
REMARK    1  A    between atoms: C_2  and  O_3
REMARK    2  A    between atoms: O_3  and  C_4
REMARK    3  A    between atoms: C_7  and  N_8
REMARK    4  A    between atoms: C_16  and  N_17
REMARK                            x       y       z     vdW  Elec       q    Type
REMARK                         _______ _______ _______ _____ _____    ______ ____
ROOT
ATOM      1  O   UNL     1       2.195   8.966  17.403  0.00  0.00    +0.000 OA
ATOM      2  C   UNL     1       1.905   8.825  18.587  0.00  0.00    +0.000 C 
ATOM      3  N   UNL     1       1.008   9.613  19.286  0.00  0.00    +0.000 N 
ATOM      4  C   UNL     1       1.016   9.627  20.741  0.00  0.00    +0.000 C 
ATOM      5  C   UNL     1      -0.379   9.833  21.292  0.00  0.00    +0.000 C 
ATOM      6  C   UNL     1      -1.118  11.053  20.705  0.00  0.00    +0.000 C 
ATOM      7  C   UNL     1      -0.956  11.094  19.166  0.00  0.00    +0.000 C 
ATOM      8  C   UNL     1       0.448  10.792  18.646  0.00  0.00    +0.000 C 
ENDROOT
BRANCH   6   9
ATOM      9  N   UNL     1      -0.907  12.356  21.389  0.00  0.00    +0.000 NA
ATOM     10  C   UNL     1      -1.390  13.479  20.563  0.00  0.00    +0.000 C 
ATOM     11  C   UNL     1      -1.141  14.851  21.190  0.00  0.00    +0.000 C 
ATOM     12  C   UNL     1      -1.729  14.910  22.591  0.00  0.00    +0.000 C 
ATOM     13  C   UNL     1      -1.121  13.796  23.427  0.00  0.00    +0.000 C 
ATOM     14  C   UNL     1      -1.359  12.432  22.777  0.00  0.00    +0.000 C 
ENDBRANCH   6   9
BRANCH   2  15
ATOM     15  O   UNL     1       2.445   7.851  19.421  0.00  0.00    +0.000 OA
BRANCH  15  16
ATOM     16  C   UNL     1       2.198   6.468  19.387  0.00  0.00    +0.000 A 
ATOM     17  C   UNL     1       2.428   5.888  18.134  0.00  0.00    +0.000 A 
ATOM     18  C   UNL     1       2.162   4.536  17.941  0.00  0.00    +0.000 A 
ATOM     19  C   UNL     1       1.681   3.779  19.016  0.00  0.00    +0.000 A 
ATOM     20  C   UNL     1       1.430   4.372  20.264  0.00  0.00    +0.000 A 
ATOM     21  C   UNL     1       1.691   5.732  20.448  0.00  0.00    +0.000 A 
BRANCH  19  22
ATOM     22  N   UNL     1       1.461   2.339  18.843  0.00  0.00    +0.000 N 
ATOM     23  O   UNL     1       0.294   1.953  18.673  0.00  0.00    +0.000 OA
ATOM     24  O   UNL     1       2.451   1.598  18.865  0.00  0.00    +0.000 OA
ENDBRANCH  19  22
ENDBRANCH  15  16
ENDBRANCH   2  15
TORSDOF 4
ENDMDL
MODEL 4
REMARK VINA RESULT:      -6.8      0.647      1.342
REMARK  Name = 
REMARK  4 active torsions:
REMARK  status: ('A' for Active; 'I' for Inactive)
REMARK    1  A    between atoms: C_2  and  O_3
REMARK    2  A    between atoms: O_3  and  C_4
REMARK    3  A    between atoms: C_7  and  N_8
REMARK    4  A    between atoms: C_16  and  N_17
REMARK                            x       y       z     vdW  Elec       q    Type
REMARK                         _______ _______ _______ _____ _____    ______ ____
ROOT
ATOM      1  O   UNL     1       0.741   8.513  21.435  0.00  0.00    +0.000 OA
ATOM      2  C   UNL     1       1.151   8.714  20.296  0.00  0.00    +0.000 C 
ATOM      3  N   UNL     1       1.934   7.837  19.567  0.00  0.00    +0.000 N 
ATOM      4  C   UNL     1       2.682   8.304  18.409  0.00  0.00    +0.000 C 
ATOM      5  C   UNL     1       2.786   7.223  17.355  0.00  0.00    +0.000 C 
ATOM      6  C   UNL     1       3.316   5.873  17.882  0.00  0.00    +0.000 C 
ATOM      7  C   UNL     1       2.611   5.497  19.208  0.00  0.00    +0.000 C 
ATOM      8  C   UNL     1       2.447   6.638  20.209  0.00  0.00    +0.000 C 
ENDROOT
BRANCH   6   9
ATOM      9  N   UNL     1       4.790   5.688  17.884  0.00  0.00    +0.000 NA
ATOM     10  C   UNL     1       5.462   6.727  17.080  0.00  0.00    +0.000 C 
ATOM     11  C   UNL     1       6.978   6.550  16.995  0.00  0.00    +0.000 C 
ATOM     12  C   UNL     1       7.582   6.460  18.388  0.00  0.00    +0.000 C 
ATOM     13  C   UNL     1       6.928   5.309  19.135  0.00  0.00    +0.000 C 
ATOM     14  C   UNL     1       5.409   5.489  19.193  0.00  0.00    +0.000 C 
ENDBRANCH   6   9
BRANCH   2  15
ATOM     15  O   UNL     1       0.901   9.867  19.559  0.00  0.00    +0.000 OA
BRANCH  15  16
ATOM     16  C   UNL     1      -0.341  10.320  19.081  0.00  0.00    +0.000 A 
ATOM     17  C   UNL     1      -0.690   9.789  17.835  0.00  0.00    +0.000 A 
ATOM     18  C   UNL     1      -1.865  10.201  17.214  0.00  0.00    +0.000 A 
ATOM     19  C   UNL     1      -2.683  11.134  17.863  0.00  0.00    +0.000 A 
ATOM     20  C   UNL     1      -2.315  11.682  19.102  0.00  0.00    +0.000 A 
ATOM     21  C   UNL     1      -1.130  11.270  19.716  0.00  0.00    +0.000 A 
BRANCH  19  22
ATOM     22  N   UNL     1      -3.957  11.526  17.250  0.00  0.00    +0.000 N 
ATOM     23  O   UNL     1      -4.799  12.076  17.977  0.00  0.00    +0.000 OA
ATOM     24  O   UNL     1      -4.112  11.295  16.045  0.00  0.00    +0.000 OA
ENDBRANCH  19  22
ENDBRANCH  15  16
ENDBRANCH   2  15
TORSDOF 4
ENDMDL
MODEL 5
REMARK VINA RESULT:      -6.8      3.511      8.381
REMARK  Name = 
REMARK  4 active torsions:
REMARK  status: ('A' for Active; 'I' for Inactive)
REMARK    1  A    between atoms: C_2  and  O_3
REMARK    2  A    between atoms: O_3  and  C_4
REMARK    3  A    between atoms: C_7  and  N_8
REMARK    4  A    between atoms: C_16  and  N_17
REMARK                            x       y       z     vdW  Elec       q    Type
REMARK                         _______ _______ _______ _____ _____    ______ ____
ROOT
ATOM      1  O   UNL     1       1.432   8.644  22.186  0.00  0.00    +0.000 OA
ATOM      2  C   UNL     1       1.321   8.789  20.973  0.00  0.00    +0.000 C 
ATOM      3  N   UNL     1       0.418   9.633  20.351  0.00  0.00    +0.000 N 
ATOM      4  C   UNL     1       0.092   9.458  18.944  0.00  0.00    +0.000 C 
ATOM      5  C   UNL     1      -0.201  10.788  18.283  0.00  0.00    +0.000 C 
ATOM      6  C   UNL     1      -1.252  11.643  19.019  0.00  0.00    +0.000 C 
ATOM      7  C   UNL     1      -0.964  11.662  20.540  0.00  0.00    +0.000 C 
ATOM      8  C   UNL     1      -0.584  10.316  21.152  0.00  0.00    +0.000 C 
ENDROOT
BRANCH   6   9
ATOM      9  N   UNL     1      -2.675  11.414  18.657  0.00  0.00    +0.000 NA
ATOM     10  C   UNL     1      -3.573  12.296  19.426  0.00  0.00    +0.000 C 
ATOM     11  C   UNL     1      -5.056  12.060  19.140  0.00  0.00    +0.000 C 
ATOM     12  C   UNL     1      -5.333  12.164  17.648  0.00  0.00    +0.000 C 
ATOM     13  C   UNL     1      -4.457  11.162  16.914  0.00  0.00    +0.000 C 
ATOM     14  C   UNL     1      -2.978  11.397  17.227  0.00  0.00    +0.000 C 
ENDBRANCH   6   9
BRANCH   2  15
ATOM     15  O   UNL     1       2.082   8.112  20.025  0.00  0.00    +0.000 OA
BRANCH  15  16
ATOM     16  C   UNL     1       2.064   6.735  19.743  0.00  0.00    +0.000 A 
ATOM     17  C   UNL     1       2.342   6.432  18.407  0.00  0.00    +0.000 A 
ATOM     18  C   UNL     1       2.295   5.111  17.974  0.00  0.00    +0.000 A 
ATOM     19  C   UNL     1       1.982   4.105  18.898  0.00  0.00    +0.000 A 
ATOM     20  C   UNL     1       1.680   4.419  20.233  0.00  0.00    +0.000 A 
ATOM     21  C   UNL     1       1.720   5.749  20.658  0.00  0.00    +0.000 A 
BRANCH  19  22
ATOM     22  N   UNL     1       1.995   2.702  18.470  0.00  0.00    +0.000 N 
ATOM     23  O   UNL     1       1.714   1.842  19.318  0.00  0.00    +0.000 OA
ATOM     24  O   UNL     1       2.274   2.463  17.289  0.00  0.00    +0.000 OA
ENDBRANCH  19  22
ENDBRANCH  15  16
ENDBRANCH   2  15
TORSDOF 4
ENDMDL
MODEL 6
REMARK VINA RESULT:      -6.7      6.444      9.096
REMARK  Name = 
REMARK  4 active torsions:
REMARK  status: ('A' for Active; 'I' for Inactive)
REMARK    1  A    between atoms: C_2  and  O_3
REMARK    2  A    between atoms: O_3  and  C_4
REMARK    3  A    between atoms: C_7  and  N_8
REMARK    4  A    between atoms: C_16  and  N_17
REMARK                            x       y       z     vdW  Elec       q    Type
REMARK                         _______ _______ _______ _____ _____    ______ ____
ROOT
ATOM      1  O   UNL     1       8.186   4.435  17.329  0.00  0.00    +0.000 OA
ATOM      2  C   UNL     1       7.232   5.025  16.831  0.00  0.00    +0.000 C 
ATOM      3  N   UNL     1       6.043   5.305  17.481  0.00  0.00    +0.000 N 
ATOM      4  C   UNL     1       4.850   5.649  16.722  0.00  0.00    +0.000 C 
ATOM      5  C   UNL     1       3.985   6.632  17.482  0.00  0.00    +0.000 C 
ATOM      6  C   UNL     1       3.649   6.197  18.924  0.00  0.00    +0.000 C 
ATOM      7  C   UNL     1       4.919   5.677  19.640  0.00  0.00    +0.000 C 
ATOM      8  C   UNL     1       5.812   4.760  18.808  0.00  0.00    +0.000 C 
ENDROOT
BRANCH   6   9
ATOM      9  N   UNL     1       2.441   5.350  19.103  0.00  0.00    +0.000 NA
ATOM     10  C   UNL     1       2.319   4.354  18.021  0.00  0.00    +0.000 C 
ATOM     11  C   UNL     1       1.058   3.495  18.119  0.00  0.00    +0.000 C 
ATOM     12  C   UNL     1       0.972   2.832  19.485  0.00  0.00    +0.000 C 
ATOM     13  C   UNL     1       0.997   3.909  20.557  0.00  0.00    +0.000 C 
ATOM     14  C   UNL     1       2.253   4.774  20.433  0.00  0.00    +0.000 C 
ENDBRANCH   6   9
BRANCH   2  15
ATOM     15  O   UNL     1       7.191   5.497  15.523  0.00  0.00    +0.000 OA
BRANCH  15  16
ATOM     16  C   UNL     1       6.767   4.798  14.379  0.00  0.00    +0.000 A 
ATOM     17  C   UNL     1       5.593   4.063  14.574  0.00  0.00    +0.000 A 
ATOM     18  C   UNL     1       5.094   3.272  13.544  0.00  0.00    +0.000 A 
ATOM     19  C   UNL     1       5.777   3.242  12.321  0.00  0.00    +0.000 A 
ATOM     20  C   UNL     1       6.968   3.963  12.140  0.00  0.00    +0.000 A 
ATOM     21  C   UNL     1       7.467   4.748  13.182  0.00  0.00    +0.000 A 
BRANCH  19  22
ATOM     22  N   UNL     1       5.225   2.466  11.206  0.00  0.00    +0.000 N 
ATOM     23  O   UNL     1       4.139   2.835  10.732  0.00  0.00    +0.000 OA
ATOM     24  O   UNL     1       5.879   1.499  10.797  0.00  0.00    +0.000 OA
ENDBRANCH  19  22
ENDBRANCH  15  16
ENDBRANCH   2  15
TORSDOF 4
ENDMDL
MODEL 7
REMARK VINA RESULT:      -6.7      3.553      8.855
REMARK  Name = 
REMARK  4 active torsions:
REMARK  status: ('A' for Active; 'I' for Inactive)
REMARK    1  A    between atoms: C_2  and  O_3
REMARK    2  A    between atoms: O_3  and  C_4
REMARK    3  A    between atoms: C_7  and  N_8
REMARK    4  A    between atoms: C_16  and  N_17
REMARK                            x       y       z     vdW  Elec       q    Type
REMARK                         _______ _______ _______ _____ _____    ______ ____
ROOT
ATOM      1  O   UNL     1       1.969   5.613  20.758  0.00  0.00    +0.000 OA
ATOM      2  C   UNL     1       2.028   6.624  20.065  0.00  0.00    +0.000 C 
ATOM      3  N   UNL     1       1.504   7.857  20.411  0.00  0.00    +0.000 N 
ATOM      4  C   UNL     1       1.277   8.873  19.395  0.00  0.00    +0.000 C 
ATOM      5  C   UNL     1       1.487  10.263  19.957  0.00  0.00    +0.000 C 
ATOM      6  C   UNL     1       0.696  10.549  21.250  0.00  0.00    +0.000 C 
ATOM      7  C   UNL     1       0.826   9.363  22.236  0.00  0.00    +0.000 C 
ATOM      8  C   UNL     1       0.698   7.975  21.614  0.00  0.00    +0.000 C 
ENDROOT
BRANCH   6   9
ATOM      9  N   UNL     1      -0.685  11.076  21.087  0.00  0.00    +0.000 NA
ATOM     10  C   UNL     1      -1.116  11.825  22.283  0.00  0.00    +0.000 C 
ATOM     11  C   UNL     1      -2.554  12.338  22.197  0.00  0.00    +0.000 C 
ATOM     12  C   UNL     1      -2.750  13.162  20.934  0.00  0.00    +0.000 C 
ATOM     13  C   UNL     1      -2.390  12.310  19.729  0.00  0.00    +0.000 C 
ATOM     14  C   UNL     1      -0.957  11.786  19.838  0.00  0.00    +0.000 C 
ENDBRANCH   6   9
BRANCH   2  15
ATOM     15  O   UNL     1       2.623   6.686  18.809  0.00  0.00    +0.000 OA
BRANCH  15  16
ATOM     16  C   UNL     1       3.876   6.172  18.434  0.00  0.00    +0.000 A 
ATOM     17  C   UNL     1       4.137   6.274  17.063  0.00  0.00    +0.000 A 
ATOM     18  C   UNL     1       5.315   5.747  16.544  0.00  0.00    +0.000 A 
ATOM     19  C   UNL     1       6.226   5.136  17.414  0.00  0.00    +0.000 A 
ATOM     20  C   UNL     1       5.948   5.016  18.785  0.00  0.00    +0.000 A 
ATOM     21  C   UNL     1       4.759   5.539  19.298  0.00  0.00    +0.000 A 
BRANCH  19  22
ATOM     22  N   UNL     1       7.502   4.637  16.889  0.00  0.00    +0.000 N 
ATOM     23  O   UNL     1       7.721   4.787  15.677  0.00  0.00    +0.000 OA
ATOM     24  O   UNL     1       8.286   4.109  17.687  0.00  0.00    +0.000 OA
ENDBRANCH  19  22
ENDBRANCH  15  16
ENDBRANCH   2  15
TORSDOF 4
ENDMDL
MODEL 8
REMARK VINA RESULT:      -6.7      3.277      4.618
REMARK  Name = 
REMARK  4 active torsions:
REMARK  status: ('A' for Active; 'I' for Inactive)
REMARK    1  A    between atoms: C_2  and  O_3
REMARK    2  A    between atoms: O_3  and  C_4
REMARK    3  A    between atoms: C_7  and  N_8
REMARK    4  A    between atoms: C_16  and  N_17
REMARK                            x       y       z     vdW  Elec       q    Type
REMARK                         _______ _______ _______ _____ _____    ______ ____
ROOT
ATOM      1  O   UNL     1       0.128  11.806  18.487  0.00  0.00    +0.000 OA
ATOM      2  C   UNL     1       0.339  11.116  19.480  0.00  0.00    +0.000 C 
ATOM      3  N   UNL     1       0.893   9.848  19.464  0.00  0.00    +0.000 N 
ATOM      4  C   UNL     1       0.750   8.967  20.613  0.00  0.00    +0.000 C 
ATOM      5  C   UNL     1       1.965   8.077  20.772  0.00  0.00    +0.000 C 
ATOM      6  C   UNL     1       2.357   7.307  19.494  0.00  0.00    +0.000 C 
ATOM      7  C   UNL     1       2.330   8.248  18.266  0.00  0.00    +0.000 C 
ATOM      8  C   UNL     1       1.133   9.193  18.190  0.00  0.00    +0.000 C 
ENDROOT
BRANCH   6   9
ATOM      9  N   UNL     1       1.707   5.987  19.283  0.00  0.00    +0.000 NA
ATOM     10  C   UNL     1       2.263   5.299  18.101  0.00  0.00    +0.000 C 
ATOM     11  C   UNL     1       1.588   3.962  17.798  0.00  0.00    +0.000 C 
ATOM     12  C   UNL     1       1.621   3.060  19.022  0.00  0.00    +0.000 C 
ATOM     13  C   UNL     1       0.945   3.775  20.179  0.00  0.00    +0.000 C 
ATOM     14  C   UNL     1       1.617   5.121  20.458  0.00  0.00    +0.000 C 
ENDBRANCH   6   9
BRANCH   2  15
ATOM     15  O   UNL     1       0.039  11.497  20.784  0.00  0.00    +0.000 OA
BRANCH  15  16
ATOM     16  C   UNL     1      -1.205  11.920  21.283  0.00  0.00    +0.000 A 
ATOM     17  C   UNL     1      -1.369  11.687  22.652  0.00  0.00    +0.000 A 
ATOM     18  C   UNL     1      -2.578  11.998  23.266  0.00  0.00    +0.000 A 
ATOM     19  C   UNL     1      -3.606  12.556  22.495  0.00  0.00    +0.000 A 
ATOM     20  C   UNL     1      -3.443  12.766  21.116  0.00  0.00    +0.000 A 
ATOM     21  C   UNL     1      -2.229  12.442  20.505  0.00  0.00    +0.000 A 
BRANCH  19  22
ATOM     22  N   UNL     1      -4.861  12.952  23.143  0.00  0.00    +0.000 N 
ATOM     23  O   UNL     1      -5.507  13.876  22.625  0.00  0.00    +0.000 OA
ATOM     24  O   UNL     1      -5.204  12.334  24.158  0.00  0.00    +0.000 OA
ENDBRANCH  19  22
ENDBRANCH  15  16
ENDBRANCH   2  15
TORSDOF 4
ENDMDL
MODEL 9
REMARK VINA RESULT:      -6.6      3.575      8.946
REMARK  Name = 
REMARK  4 active torsions:
REMARK  status: ('A' for Active; 'I' for Inactive)
REMARK    1  A    between atoms: C_2  and  O_3
REMARK    2  A    between atoms: O_3  and  C_4
REMARK    3  A    between atoms: C_7  and  N_8
REMARK    4  A    between atoms: C_16  and  N_17
REMARK                            x       y       z     vdW  Elec       q    Type
REMARK                         _______ _______ _______ _____ _____    ______ ____
ROOT
ATOM      1  O   UNL     1       2.667   7.964  17.559  0.00  0.00    +0.000 OA
ATOM      2  C   UNL     1       2.216   8.031  18.699  0.00  0.00    +0.000 C 
ATOM      3  N   UNL     1       1.312   8.980  19.141  0.00  0.00    +0.000 N 
ATOM      4  C   UNL     1       1.133   9.222  20.565  0.00  0.00    +0.000 C 
ATOM      5  C   UNL     1      -0.297   9.608  20.878  0.00  0.00    +0.000 C 
ATOM      6  C   UNL     1      -0.842  10.768  20.020  0.00  0.00    +0.000 C 
ATOM      7  C   UNL     1      -0.481  10.554  18.530  0.00  0.00    +0.000 C 
ATOM      8  C   UNL     1       0.945  10.078  18.263  0.00  0.00    +0.000 C 
ENDROOT
BRANCH   6   9
ATOM      9  N   UNL     1      -0.605  12.145  20.527  0.00  0.00    +0.000 NA
ATOM     10  C   UNL     1      -0.816  13.150  19.468  0.00  0.00    +0.000 C 
ATOM     11  C   UNL     1      -0.525  14.582  19.917  0.00  0.00    +0.000 C 
ATOM     12  C   UNL     1      -1.329  14.923  21.162  0.00  0.00    +0.000 C 
ATOM     13  C   UNL     1      -0.996  13.918  22.253  0.00  0.00    +0.000 C 
ATOM     14  C   UNL     1      -1.271  12.489  21.782  0.00  0.00    +0.000 C 
ENDBRANCH   6   9
BRANCH   2  15
ATOM     15  O   UNL     1       2.556   7.167  19.735  0.00  0.00    +0.000 OA
BRANCH  15  16
ATOM     16  C   UNL     1       3.073   5.865  19.622  0.00  0.00    +0.000 A 
ATOM     17  C   UNL     1       2.165   4.867  19.993  0.00  0.00    +0.000 A 
ATOM     18  C   UNL     1       2.565   3.535  19.991  0.00  0.00    +0.000 A 
ATOM     19  C   UNL     1       3.873   3.220  19.600  0.00  0.00    +0.000 A 
ATOM     20  C   UNL     1       4.786   4.228  19.251  0.00  0.00    +0.000 A 
ATOM     21  C   UNL     1       4.380   5.564  19.264  0.00  0.00    +0.000 A 
BRANCH  19  22
ATOM     22  N   UNL     1       4.286   1.814  19.529  0.00  0.00    +0.000 N 
ATOM     23  O   UNL     1       3.789   1.115  18.632  0.00  0.00    +0.000 OA
ATOM     24  O   UNL     1       5.111   1.413  20.358  0.00  0.00    +0.000 OA
ENDBRANCH  19  22
ENDBRANCH  15  16
ENDBRANCH   2  15
TORSDOF 4
ENDMDL
