MODEL 1
REMARK VINA RESULT:      -8.4      0.000      0.000
REMARK  Name = 
REMARK  10 active torsions:
REMARK  status: ('A' for Active; 'I' for Inactive)
REMARK    1  A    between atoms: C_1  and  C_2
REMARK    2  A    between atoms: C_2  and  C_3
REMARK    3  A    between atoms: C_2  and  C_4
REMARK    4  A    between atoms: N_6  and  C_7
REMARK    5  A    between atoms: C_10  and  S_11
REMARK    6  A    between atoms: S_11  and  C_12
REMARK    7  A    between atoms: C_21  and  O_22
REMARK    8  A    between atoms: O_22  and  C_23
REMARK    9  A    between atoms: C_31  and  C_32
REMARK   10  A    between atoms: C_31  and  C_33
REMARK                            x       y       z     vdW  Elec       q    Type
REMARK                         _______ _______ _______ _____ _____    ______ ____
ROOT
ATOM      1  C   UNL     1      -0.416  10.798  20.850  0.00  0.00    +0.000 A 
ATOM      2  C   UNL     1       0.266   9.578  20.742  0.00  0.00    +0.000 A 
ATOM      3  N   UNL     1       0.914   9.149  19.542  0.00  0.00    +0.000 N 
ATOM      4  N   UNL     1       0.462   8.817  21.848  0.00  0.00    +0.000 NA
ATOM      5  C   UNL     1       0.117   9.299  23.049  0.00  0.00    +0.000 A 
ATOM      6  N   UNL     1      -0.362  10.525  23.284  0.00  0.00    +0.000 NA
ATOM      7  C   UNL     1      -0.582  11.241  22.175  0.00  0.00    +0.000 A 
ATOM      8  H   UNL     1       0.337   9.278  18.716  0.00  0.00    +0.000 HD
ENDROOT
BRANCH   3   9
ATOM      9  C   UNL     1       1.824   8.051  19.383  0.00  0.00    +0.000 A 
ATOM     10  C   UNL     1       1.982   7.059  20.363  0.00  0.00    +0.000 A 
ATOM     11  C   UNL     1       2.613   5.845  20.075  0.00  0.00    +0.000 A 
ATOM     12  C   UNL     1       3.167   5.639  18.814  0.00  0.00    +0.000 A 
ATOM     13  C   UNL     1       3.253   6.694  17.901  0.00  0.00    +0.000 A 
ATOM     14  C   UNL     1       2.584   7.892  18.204  0.00  0.00    +0.000 A 
ATOM     15  F   UNL     1       2.585   8.859  17.271  0.00  0.00    +0.000 F 
BRANCH  12  16
ATOM     16  S   UNL     1       3.467   3.981  18.264  0.00  0.00    +0.000 S 
ATOM     17  C   UNL     1       1.809   3.335  18.198  0.00  0.00    +0.000 C 
ATOM     18  O   UNL     1       4.005   4.032  16.928  0.00  0.00    +0.000 OA
ATOM     19  O   UNL     1       4.177   3.275  19.336  0.00  0.00    +0.000 OA
ENDBRANCH  12  16
ENDBRANCH   3   9
BRANCH   1  21
ATOM     20  C   UNL     1       0.243  12.419  19.025  0.00  0.00    +0.000 C 
ATOM     21  C   UNL     1      -0.903  11.749  19.759  0.00  0.00    +0.000 C 
ATOM     22  C   UNL     1      -1.926  11.248  18.736  0.00  0.00    +0.000 C 
ENDBRANCH   1  21
BRANCH   7  23
ATOM     23  O   UNL     1      -1.007  12.544  22.302  0.00  0.00    +0.000 OA
BRANCH  23  24
ATOM     24  C   UNL     1      -1.735  12.975  23.449  0.00  0.00    +0.000 C 
ATOM     25  C   UNL     1      -1.955  14.501  23.360  0.00  0.00    +0.000 C 
ATOM     26  C   UNL     1      -2.734  14.908  22.103  0.00  0.00    +0.000 C 
ATOM     27  C   UNL     1      -4.095  14.201  22.006  0.00  0.00    +0.000 C 
ATOM     28  C   UNL     1      -3.886  12.674  22.097  0.00  0.00    +0.000 C 
ATOM     29  C   UNL     1      -3.081  12.255  23.350  0.00  0.00    +0.000 C 
ATOM     30  C   UNL     1      -4.851  14.640  20.774  0.00  0.00    +0.000 C 
ATOM     31  O   UNL     1      -5.933  15.368  21.388  0.00  0.00    +0.000 OA
ATOM     32  C   UNL     1      -6.537  14.434  22.392  0.00  0.00    +0.000 C 
ATOM     33  C   UNL     1      -7.241  14.476  23.825  0.00  0.00    +0.000 C 
ATOM     34  C   UNL     1      -7.868  15.048  21.773  0.00  0.00    +0.000 C 
ATOM     35  C   UNL     1      -5.114  14.678  23.058  0.00  0.00    +0.000 C 
ENDBRANCH  23  24
ENDBRANCH   7  23
TORSDOF 5
ENDMDL
MODEL 2
REMARK VINA RESULT:      -8.0      0.989      1.040
REMARK  Name = 
REMARK  10 active torsions:
REMARK  status: ('A' for Active; 'I' for Inactive)
REMARK    1  A    between atoms: C_1  and  C_2
REMARK    2  A    between atoms: C_2  and  C_3
REMARK    3  A    between atoms: C_2  and  C_4
REMARK    4  A    between atoms: N_6  and  C_7
REMARK    5  A    between atoms: C_10  and  S_11
REMARK    6  A    between atoms: S_11  and  C_12
REMARK    7  A    between atoms: C_21  and  O_22
REMARK    8  A    between atoms: O_22  and  C_23
REMARK    9  A    between atoms: C_31  and  C_32
REMARK   10  A    between atoms: C_31  and  C_33
REMARK                            x       y       z     vdW  Elec       q    Type
REMARK                         _______ _______ _______ _____ _____    ______ ____
ROOT
ATOM      1  C   UNL     1      -0.289  10.993  20.920  0.00  0.00    +0.000 A 
ATOM      2  C   UNL     1       0.278   9.719  20.774  0.00  0.00    +0.000 A 
ATOM      3  N   UNL     1       0.926   9.286  19.576  0.00  0.00    +0.000 N 
ATOM      4  N   UNL     1       0.360   8.893  21.847  0.00  0.00    +0.000 NA
ATOM      5  C   UNL     1       0.018   9.349  23.058  0.00  0.00    +0.000 A 
ATOM      6  N   UNL     1      -0.351  10.604  23.338  0.00  0.00    +0.000 NA
ATOM      7  C   UNL     1      -0.461  11.388  22.259  0.00  0.00    +0.000 A 
ATOM      8  H   UNL     1       0.394   9.507  18.739  0.00  0.00    +0.000 HD
ENDROOT
BRANCH   3   9
ATOM      9  C   UNL     1       1.733   8.114  19.391  0.00  0.00    +0.000 A 
ATOM     10  C   UNL     1       1.827   7.107  20.365  0.00  0.00    +0.000 A 
ATOM     11  C   UNL     1       2.343   5.844  20.058  0.00  0.00    +0.000 A 
ATOM     12  C   UNL     1       2.847   5.596  18.784  0.00  0.00    +0.000 A 
ATOM     13  C   UNL     1       3.003   6.645  17.872  0.00  0.00    +0.000 A 
ATOM     14  C   UNL     1       2.448   7.895  18.194  0.00  0.00    +0.000 A 
ATOM     15  F   UNL     1       2.511   8.863  17.265  0.00  0.00    +0.000 F 
BRANCH  12  16
ATOM     16  S   UNL     1       2.989   3.922  18.222  0.00  0.00    +0.000 S 
ATOM     17  C   UNL     1       2.699   3.025  19.733  0.00  0.00    +0.000 C 
ATOM     18  O   UNL     1       1.911   3.654  17.303  0.00  0.00    +0.000 OA
ATOM     19  O   UNL     1       4.385   3.697  17.832  0.00  0.00    +0.000 OA
ENDBRANCH  12  16
ENDBRANCH   3   9
BRANCH   1  21
ATOM     20  C   UNL     1       0.587  12.627  19.201  0.00  0.00    +0.000 C 
ATOM     21  C   UNL     1      -0.643  12.036  19.863  0.00  0.00    +0.000 C 
ATOM     22  C   UNL     1      -1.670  11.683  18.783  0.00  0.00    +0.000 C 
ENDBRANCH   1  21
BRANCH   7  23
ATOM     23  O   UNL     1      -0.765  12.719  22.437  0.00  0.00    +0.000 OA
BRANCH  23  24
ATOM     24  C   UNL     1      -1.554  13.155  23.541  0.00  0.00    +0.000 C 
ATOM     25  C   UNL     1      -1.388  14.681  23.705  0.00  0.00    +0.000 C 
ATOM     26  C   UNL     1      -1.822  15.456  22.455  0.00  0.00    +0.000 C 
ATOM     27  C   UNL     1      -3.275  15.152  22.057  0.00  0.00    +0.000 C 
ATOM     28  C   UNL     1      -3.453  13.628  21.893  0.00  0.00    +0.000 C 
ATOM     29  C   UNL     1      -2.996  12.835  23.141  0.00  0.00    +0.000 C 
ATOM     30  C   UNL     1      -3.685  15.947  20.839  0.00  0.00    +0.000 C 
ATOM     31  O   UNL     1      -4.652  16.838  21.433  0.00  0.00    +0.000 OA
ATOM     32  C   UNL     1      -5.621  15.959  22.164  0.00  0.00    +0.000 C 
ATOM     33  C   UNL     1      -6.528  15.977  23.479  0.00  0.00    +0.000 C 
ATOM     34  C   UNL     1      -6.644  16.984  21.503  0.00  0.00    +0.000 C 
ATOM     35  C   UNL     1      -4.315  15.723  23.040  0.00  0.00    +0.000 C 
ENDBRANCH  23  24
ENDBRANCH   7  23
TORSDOF 5
ENDMDL
MODEL 3
REMARK VINA RESULT:      -8.0      2.484      3.483
REMARK  Name = 
REMARK  10 active torsions:
REMARK  status: ('A' for Active; 'I' for Inactive)
REMARK    1  A    between atoms: C_1  and  C_2
REMARK    2  A    between atoms: C_2  and  C_3
REMARK    3  A    between atoms: C_2  and  C_4
REMARK    4  A    between atoms: N_6  and  C_7
REMARK    5  A    between atoms: C_10  and  S_11
REMARK    6  A    between atoms: S_11  and  C_12
REMARK    7  A    between atoms: C_21  and  O_22
REMARK    8  A    between atoms: O_22  and  C_23
REMARK    9  A    between atoms: C_31  and  C_32
REMARK   10  A    between atoms: C_31  and  C_33
REMARK                            x       y       z     vdW  Elec       q    Type
REMARK                         _______ _______ _______ _____ _____    ______ ____
ROOT
ATOM      1  C   UNL     1      -0.050  11.792  19.028  0.00  0.00    +0.000 A 
ATOM      2  C   UNL     1       0.333  10.499  18.646  0.00  0.00    +0.000 A 
ATOM      3  N   UNL     1       1.622   9.951  18.932  0.00  0.00    +0.000 N 
ATOM      4  N   UNL     1      -0.585   9.657  18.109  0.00  0.00    +0.000 NA
ATOM      5  C   UNL     1      -1.872  10.023  18.070  0.00  0.00    +0.000 A 
ATOM      6  N   UNL     1      -2.373  11.152  18.583  0.00  0.00    +0.000 NA
ATOM      7  C   UNL     1      -1.444  11.982  19.071  0.00  0.00    +0.000 A 
ATOM      8  H   UNL     1       2.379  10.595  18.721  0.00  0.00    +0.000 HD
ENDROOT
BRANCH   3   9
ATOM      9  C   UNL     1       2.041   8.584  18.800  0.00  0.00    +0.000 A 
ATOM     10  C   UNL     1       2.729   8.117  17.671  0.00  0.00    +0.000 A 
ATOM     11  C   UNL     1       3.405   6.892  17.685  0.00  0.00    +0.000 A 
ATOM     12  C   UNL     1       3.334   6.079  18.813  0.00  0.00    +0.000 A 
ATOM     13  C   UNL     1       2.454   6.394  19.854  0.00  0.00    +0.000 A 
ATOM     14  C   UNL     1       1.813   7.643  19.828  0.00  0.00    +0.000 A 
ATOM     15  F   UNL     1       1.055   7.977  20.886  0.00  0.00    +0.000 F 
BRANCH  12  16
ATOM     16  S   UNL     1       4.575   4.839  19.063  0.00  0.00    +0.000 S 
ATOM     17  C   UNL     1       4.916   4.351  17.385  0.00  0.00    +0.000 C 
ATOM     18  O   UNL     1       5.747   5.469  19.617  0.00  0.00    +0.000 OA
ATOM     19  O   UNL     1       3.941   3.702  19.738  0.00  0.00    +0.000 OA
ENDBRANCH  12  16
ENDBRANCH   3   9
BRANCH   1  21
ATOM     20  C   UNL     1       1.501  12.687  20.813  0.00  0.00    +0.000 C 
ATOM     21  C   UNL     1       0.801  12.970  19.498  0.00  0.00    +0.000 C 
ATOM     22  C   UNL     1       1.803  13.599  18.525  0.00  0.00    +0.000 C 
ENDBRANCH   1  21
BRANCH   7  23
ATOM     23  O   UNL     1      -1.852  13.143  19.689  0.00  0.00    +0.000 OA
BRANCH  23  24
ATOM     24  C   UNL     1      -2.978  13.158  20.562  0.00  0.00    +0.000 C 
ATOM     25  C   UNL     1      -2.580  12.515  21.908  0.00  0.00    +0.000 C 
ATOM     26  C   UNL     1      -1.421  13.252  22.589  0.00  0.00    +0.000 C 
ATOM     27  C   UNL     1      -1.732  14.738  22.820  0.00  0.00    +0.000 C 
ATOM     28  C   UNL     1      -2.134  15.391  21.481  0.00  0.00    +0.000 C 
ATOM     29  C   UNL     1      -3.288  14.641  20.774  0.00  0.00    +0.000 C 
ATOM     30  C   UNL     1      -0.585  15.434  23.516  0.00  0.00    +0.000 C 
ATOM     31  O   UNL     1      -1.195  15.712  24.793  0.00  0.00    +0.000 OA
ATOM     32  C   UNL     1      -2.479  16.422  24.486  0.00  0.00    +0.000 C 
ATOM     33  C   UNL     1      -3.964  16.554  25.057  0.00  0.00    +0.000 C 
ATOM     34  C   UNL     1      -1.980  17.303  25.714  0.00  0.00    +0.000 C 
ATOM     35  C   UNL     1      -2.808  14.984  23.895  0.00  0.00    +0.000 C 
ENDBRANCH  23  24
ENDBRANCH   7  23
TORSDOF 5
ENDMDL
MODEL 4
REMARK VINA RESULT:      -7.9      1.644      2.131
REMARK  Name = 
REMARK  10 active torsions:
REMARK  status: ('A' for Active; 'I' for Inactive)
REMARK    1  A    between atoms: C_1  and  C_2
REMARK    2  A    between atoms: C_2  and  C_3
REMARK    3  A    between atoms: C_2  and  C_4
REMARK    4  A    between atoms: N_6  and  C_7
REMARK    5  A    between atoms: C_10  and  S_11
REMARK    6  A    between atoms: S_11  and  C_12
REMARK    7  A    between atoms: C_21  and  O_22
REMARK    8  A    between atoms: O_22  and  C_23
REMARK    9  A    between atoms: C_31  and  C_32
REMARK   10  A    between atoms: C_31  and  C_33
REMARK                            x       y       z     vdW  Elec       q    Type
REMARK                         _______ _______ _______ _____ _____    ______ ____
ROOT
ATOM      1  C   UNL     1       0.091  10.239  20.315  0.00  0.00    +0.000 A 
ATOM      2  C   UNL     1       0.912   9.123  20.103  0.00  0.00    +0.000 A 
ATOM      3  N   UNL     1       1.314   8.686  18.803  0.00  0.00    +0.000 N 
ATOM      4  N   UNL     1       1.486   8.500  21.163  0.00  0.00    +0.000 NA
ATOM      5  C   UNL     1       1.366   9.033  22.386  0.00  0.00    +0.000 A 
ATOM      6  N   UNL     1       0.769  10.196  22.669  0.00  0.00    +0.000 NA
ATOM      7  C   UNL     1       0.179  10.771  21.615  0.00  0.00    +0.000 A 
ATOM      8  H   UNL     1       0.542   8.657  18.143  0.00  0.00    +0.000 HD
ENDROOT
BRANCH   3   9
ATOM      9  C   UNL     1       2.322   7.717  18.478  0.00  0.00    +0.000 A 
ATOM     10  C   UNL     1       3.253   7.921  17.448  0.00  0.00    +0.000 A 
ATOM     11  C   UNL     1       4.409   7.140  17.347  0.00  0.00    +0.000 A 
ATOM     12  C   UNL     1       4.610   6.088  18.237  0.00  0.00    +0.000 A 
ATOM     13  C   UNL     1       3.589   5.698  19.109  0.00  0.00    +0.000 A 
ATOM     14  C   UNL     1       2.452   6.518  19.211  0.00  0.00    +0.000 A 
ATOM     15  F   UNL     1       1.528   6.190  20.130  0.00  0.00    +0.000 F 
BRANCH  12  16
ATOM     16  S   UNL     1       6.250   5.463  18.478  0.00  0.00    +0.000 S 
ATOM     17  C   UNL     1       7.229   6.807  17.839  0.00  0.00    +0.000 C 
ATOM     18  O   UNL     1       6.490   5.339  19.893  0.00  0.00    +0.000 OA
ATOM     19  O   UNL     1       6.429   4.317  17.580  0.00  0.00    +0.000 OA
ENDBRANCH  12  16
ENDBRANCH   3   9
BRANCH   1  21
ATOM     20  C   UNL     1      -0.004  12.044  18.547  0.00  0.00    +0.000 C 
ATOM     21  C   UNL     1      -0.788  11.011  19.334  0.00  0.00    +0.000 C 
ATOM     22  C   UNL     1      -1.693  10.233  18.374  0.00  0.00    +0.000 C 
ENDBRANCH   1  21
BRANCH   7  23
ATOM     23  O   UNL     1      -0.405  12.007  21.777  0.00  0.00    +0.000 OA
BRANCH  23  24
ATOM     24  C   UNL     1      -1.037  12.370  23.002  0.00  0.00    +0.000 C 
ATOM     25  C   UNL     1      -0.953  13.903  23.175  0.00  0.00    +0.000 C 
ATOM     26  C   UNL     1      -1.633  14.660  22.028  0.00  0.00    +0.000 C 
ATOM     27  C   UNL     1      -3.106  14.258  21.857  0.00  0.00    +0.000 C 
ATOM     28  C   UNL     1      -3.202  12.727  21.686  0.00  0.00    +0.000 C 
ATOM     29  C   UNL     1      -2.498  11.953  22.826  0.00  0.00    +0.000 C 
ATOM     30  C   UNL     1      -3.758  15.038  20.739  0.00  0.00    +0.000 C 
ATOM     31  O   UNL     1      -4.677  15.848  21.499  0.00  0.00    +0.000 OA
ATOM     32  C   UNL     1      -5.455  14.892  22.352  0.00  0.00    +0.000 C 
ATOM     33  C   UNL     1      -6.141  14.827  23.793  0.00  0.00    +0.000 C 
ATOM     34  C   UNL     1      -6.638  15.849  21.886  0.00  0.00    +0.000 C 
ATOM     35  C   UNL     1      -4.014  14.739  23.005  0.00  0.00    +0.000 C 
ENDBRANCH  23  24
ENDBRANCH   7  23
TORSDOF 5
ENDMDL
MODEL 5
REMARK VINA RESULT:      -7.9      1.157      1.373
REMARK  Name = 
REMARK  10 active torsions:
REMARK  status: ('A' for Active; 'I' for Inactive)
REMARK    1  A    between atoms: C_1  and  C_2
REMARK    2  A    between atoms: C_2  and  C_3
REMARK    3  A    between atoms: C_2  and  C_4
REMARK    4  A    between atoms: N_6  and  C_7
REMARK    5  A    between atoms: C_10  and  S_11
REMARK    6  A    between atoms: S_11  and  C_12
REMARK    7  A    between atoms: C_21  and  O_22
REMARK    8  A    between atoms: O_22  and  C_23
REMARK    9  A    between atoms: C_31  and  C_32
REMARK   10  A    between atoms: C_31  and  C_33
REMARK                            x       y       z     vdW  Elec       q    Type
REMARK                         _______ _______ _______ _____ _____    ______ ____
ROOT
ATOM      1  C   UNL     1      -0.330  10.628  20.778  0.00  0.00    +0.000 A 
ATOM      2  C   UNL     1       0.414   9.446  20.664  0.00  0.00    +0.000 A 
ATOM      3  N   UNL     1       0.992   9.003  19.434  0.00  0.00    +0.000 N 
ATOM      4  N   UNL     1       0.742   8.748  21.780  0.00  0.00    +0.000 NA
ATOM      5  C   UNL     1       0.463   9.262  22.985  0.00  0.00    +0.000 A 
ATOM      6  N   UNL     1      -0.070  10.468  23.209  0.00  0.00    +0.000 NA
ATOM      7  C   UNL     1      -0.419  11.119  22.094  0.00  0.00    +0.000 A 
ATOM      8  H   UNL     1       0.344   9.061  18.653  0.00  0.00    +0.000 HD
ENDROOT
BRANCH   3   9
ATOM      9  C   UNL     1       1.952   7.953  19.245  0.00  0.00    +0.000 A 
ATOM     10  C   UNL     1       2.098   6.898  20.158  0.00  0.00    +0.000 A 
ATOM     11  C   UNL     1       2.792   5.732  19.818  0.00  0.00    +0.000 A 
ATOM     12  C   UNL     1       3.418   5.640  18.578  0.00  0.00    +0.000 A 
ATOM     13  C   UNL     1       3.508   6.762  17.749  0.00  0.00    +0.000 A 
ATOM     14  C   UNL     1       2.777   7.909  18.101  0.00  0.00    +0.000 A 
ATOM     15  F   UNL     1       2.787   8.942  17.242  0.00  0.00    +0.000 F 
BRANCH  12  16
ATOM     16  S   UNL     1       3.811   4.039  17.927  0.00  0.00    +0.000 S 
ATOM     17  C   UNL     1       4.869   4.474  16.562  0.00  0.00    +0.000 C 
ATOM     18  O   UNL     1       4.583   3.322  18.909  0.00  0.00    +0.000 OA
ATOM     19  O   UNL     1       2.580   3.467  17.371  0.00  0.00    +0.000 OA
ENDBRANCH  12  16
ENDBRANCH   3   9
BRANCH   1  21
ATOM     20  C   UNL     1       0.068  12.356  18.976  0.00  0.00    +0.000 C 
ATOM     21  C   UNL     1      -0.958  11.501  19.694  0.00  0.00    +0.000 C 
ATOM     22  C   UNL     1      -1.880  10.852  18.657  0.00  0.00    +0.000 C 
ENDBRANCH   1  21
BRANCH   7  23
ATOM     23  O   UNL     1      -0.912  12.400  22.203  0.00  0.00    +0.000 OA
BRANCH  23  24
ATOM     24  C   UNL     1      -1.735  12.784  23.301  0.00  0.00    +0.000 C 
ATOM     25  C   UNL     1      -1.398  14.237  23.698  0.00  0.00    +0.000 C 
ATOM     26  C   UNL     1      -1.622  15.226  22.549  0.00  0.00    +0.000 C 
ATOM     27  C   UNL     1      -3.060  15.178  22.010  0.00  0.00    +0.000 C 
ATOM     28  C   UNL     1      -3.409  13.728  21.612  0.00  0.00    +0.000 C 
ATOM     29  C   UNL     1      -3.165  12.718  22.758  0.00  0.00    +0.000 C 
ATOM     30  C   UNL     1      -3.259  16.180  20.896  0.00  0.00    +0.000 C 
ATOM     31  O   UNL     1      -4.158  17.102  21.545  0.00  0.00    +0.000 OA
ATOM     32  C   UNL     1      -5.289  16.270  22.070  0.00  0.00    +0.000 C 
ATOM     33  C   UNL     1      -6.300  16.230  23.306  0.00  0.00    +0.000 C 
ATOM     34  C   UNL     1      -6.116  17.503  21.496  0.00  0.00    +0.000 C 
ATOM     35  C   UNL     1      -4.105  15.743  22.990  0.00  0.00    +0.000 C 
ENDBRANCH  23  24
ENDBRANCH   7  23
TORSDOF 5
ENDMDL
MODEL 6
REMARK VINA RESULT:      -7.8      2.029      3.175
REMARK  Name = 
REMARK  10 active torsions:
REMARK  status: ('A' for Active; 'I' for Inactive)
REMARK    1  A    between atoms: C_1  and  C_2
REMARK    2  A    between atoms: C_2  and  C_3
REMARK    3  A    between atoms: C_2  and  C_4
REMARK    4  A    between atoms: N_6  and  C_7
REMARK    5  A    between atoms: C_10  and  S_11
REMARK    6  A    between atoms: S_11  and  C_12
REMARK    7  A    between atoms: C_21  and  O_22
REMARK    8  A    between atoms: O_22  and  C_23
REMARK    9  A    between atoms: C_31  and  C_32
REMARK   10  A    between atoms: C_31  and  C_33
REMARK                            x       y       z     vdW  Elec       q    Type
REMARK                         _______ _______ _______ _____ _____    ______ ____
ROOT
ATOM      1  C   UNL     1      -0.330  10.801  19.875  0.00  0.00    +0.000 A 
ATOM      2  C   UNL     1       0.398   9.856  19.137  0.00  0.00    +0.000 A 
ATOM      3  N   UNL     1       1.504   9.128  19.675  0.00  0.00    +0.000 N 
ATOM      4  N   UNL     1      -0.034   9.490  17.904  0.00  0.00    +0.000 NA
ATOM      5  C   UNL     1      -1.216   9.936  17.460  0.00  0.00    +0.000 A 
ATOM      6  N   UNL     1      -2.076  10.683  18.160  0.00  0.00    +0.000 NA
ATOM      7  C   UNL     1      -1.611  11.063  19.356  0.00  0.00    +0.000 A 
ATOM      8  H   UNL     1       2.154   9.721  20.184  0.00  0.00    +0.000 HD
ENDROOT
BRANCH   3   9
ATOM      9  C   UNL     1       2.165   7.990  19.103  0.00  0.00    +0.000 A 
ATOM     10  C   UNL     1       2.839   8.055  17.874  0.00  0.00    +0.000 A 
ATOM     11  C   UNL     1       3.736   7.055  17.483  0.00  0.00    +0.000 A 
ATOM     12  C   UNL     1       3.911   5.933  18.288  0.00  0.00    +0.000 A 
ATOM     13  C   UNL     1       3.072   5.715  19.386  0.00  0.00    +0.000 A 
ATOM     14  C   UNL     1       2.203   6.749  19.773  0.00  0.00    +0.000 A 
ATOM     15  F   UNL     1       1.480   6.568  20.891  0.00  0.00    +0.000 F 
BRANCH  12  16
ATOM     16  S   UNL     1       5.383   4.962  18.108  0.00  0.00    +0.000 S 
ATOM     17  C   UNL     1       4.995   4.017  16.649  0.00  0.00    +0.000 C 
ATOM     18  O   UNL     1       6.483   5.846  17.816  0.00  0.00    +0.000 OA
ATOM     19  O   UNL     1       5.445   4.030  19.238  0.00  0.00    +0.000 OA
ENDBRANCH  12  16
ENDBRANCH   3   9
BRANCH   1  21
ATOM     20  C   UNL     1       0.022  10.533  22.365  0.00  0.00    +0.000 C 
ATOM     21  C   UNL     1       0.015  11.494  21.191  0.00  0.00    +0.000 C 
ATOM     22  C   UNL     1       1.264  12.377  21.262  0.00  0.00    +0.000 C 
ENDBRANCH   1  21
BRANCH   7  23
ATOM     23  O   UNL     1      -2.440  11.776  20.192  0.00  0.00    +0.000 OA
BRANCH  23  24
ATOM     24  C   UNL     1      -3.065  12.981  19.760  0.00  0.00    +0.000 C 
ATOM     25  C   UNL     1      -4.540  12.976  20.220  0.00  0.00    +0.000 C 
ATOM     26  C   UNL     1      -4.678  12.870  21.743  0.00  0.00    +0.000 C 
ATOM     27  C   UNL     1      -3.933  13.996  22.475  0.00  0.00    +0.000 C 
ATOM     28  C   UNL     1      -2.457  14.012  22.021  0.00  0.00    +0.000 C 
ATOM     29  C   UNL     1      -2.306  14.096  20.484  0.00  0.00    +0.000 C 
ATOM     30  C   UNL     1      -4.107  13.883  23.972  0.00  0.00    +0.000 C 
ATOM     31  O   UNL     1      -4.913  15.052  24.221  0.00  0.00    +0.000 OA
ATOM     32  C   UNL     1      -4.174  16.198  23.597  0.00  0.00    +0.000 C 
ATOM     33  C   UNL     1      -4.473  17.580  22.855  0.00  0.00    +0.000 C 
ATOM     34  C   UNL     1      -4.625  16.887  24.960  0.00  0.00    +0.000 C 
ATOM     35  C   UNL     1      -4.577  15.383  22.293  0.00  0.00    +0.000 C 
ENDBRANCH  23  24
ENDBRANCH   7  23
TORSDOF 5
ENDMDL
MODEL 7
REMARK VINA RESULT:      -7.8      1.967      2.961
REMARK  Name = 
REMARK  10 active torsions:
REMARK  status: ('A' for Active; 'I' for Inactive)
REMARK    1  A    between atoms: C_1  and  C_2
REMARK    2  A    between atoms: C_2  and  C_3
REMARK    3  A    between atoms: C_2  and  C_4
REMARK    4  A    between atoms: N_6  and  C_7
REMARK    5  A    between atoms: C_10  and  S_11
REMARK    6  A    between atoms: S_11  and  C_12
REMARK    7  A    between atoms: C_21  and  O_22
REMARK    8  A    between atoms: O_22  and  C_23
REMARK    9  A    between atoms: C_31  and  C_32
REMARK   10  A    between atoms: C_31  and  C_33
REMARK                            x       y       z     vdW  Elec       q    Type
REMARK                         _______ _______ _______ _____ _____    ______ ____
ROOT
ATOM      1  C   UNL     1      -0.823  11.904  19.615  0.00  0.00    +0.000 A 
ATOM      2  C   UNL     1      -0.223  10.798  18.997  0.00  0.00    +0.000 A 
ATOM      3  N   UNL     1       0.987  10.202  19.469  0.00  0.00    +0.000 N 
ATOM      4  N   UNL     1      -0.872  10.154  17.994  0.00  0.00    +0.000 NA
ATOM      5  C   UNL     1      -2.131  10.500  17.694  0.00  0.00    +0.000 A 
ATOM      6  N   UNL     1      -2.862  11.408  18.349  0.00  0.00    +0.000 NA
ATOM      7  C   UNL     1      -2.188  12.055  19.307  0.00  0.00    +0.000 A 
ATOM      8  H   UNL     1       1.705  10.887  19.685  0.00  0.00    +0.000 HD
ENDROOT
BRANCH   3   9
ATOM      9  C   UNL     1       1.560   8.949  19.067  0.00  0.00    +0.000 A 
ATOM     10  C   UNL     1       2.111   8.750  17.792  0.00  0.00    +0.000 A 
ATOM     11  C   UNL     1       2.940   7.657  17.519  0.00  0.00    +0.000 A 
ATOM     12  C   UNL     1       3.166   6.701  18.505  0.00  0.00    +0.000 A 
ATOM     13  C   UNL     1       2.435   6.731  19.697  0.00  0.00    +0.000 A 
ATOM     14  C   UNL     1       1.634   7.856  19.957  0.00  0.00    +0.000 A 
ATOM     15  F   UNL     1       1.022   7.921  21.151  0.00  0.00    +0.000 F 
BRANCH  12  16
ATOM     16  S   UNL     1       4.589   5.651  18.379  0.00  0.00    +0.000 S 
ATOM     17  C   UNL     1       3.859   4.158  17.740  0.00  0.00    +0.000 C 
ATOM     18  O   UNL     1       5.478   6.201  17.388  0.00  0.00    +0.000 OA
ATOM     19  O   UNL     1       5.059   5.370  19.740  0.00  0.00    +0.000 OA
ENDBRANCH  12  16
ENDBRANCH   3   9
BRANCH   1  21
ATOM     20  C   UNL     1      -0.223  12.309  22.037  0.00  0.00    +0.000 C 
ATOM     21  C   UNL     1      -0.253  12.886  20.635  0.00  0.00    +0.000 C 
ATOM     22  C   UNL     1       1.089  13.565  20.346  0.00  0.00    +0.000 C 
ENDBRANCH   1  21
BRANCH   7  23
ATOM     23  O   UNL     1      -2.862  12.962  20.093  0.00  0.00    +0.000 OA
BRANCH  23  24
ATOM     24  C   UNL     1      -4.083  12.614  20.741  0.00  0.00    +0.000 C 
ATOM     25  C   UNL     1      -3.893  12.732  22.269  0.00  0.00    +0.000 C 
ATOM     26  C   UNL     1      -3.494  14.148  22.702  0.00  0.00    +0.000 C 
ATOM     27  C   UNL     1      -4.510  15.205  22.243  0.00  0.00    +0.000 C 
ATOM     28  C   UNL     1      -4.710  15.094  20.716  0.00  0.00    +0.000 C 
ATOM     29  C   UNL     1      -5.090  13.663  20.266  0.00  0.00    +0.000 C 
ATOM     30  C   UNL     1      -4.107  16.586  22.704  0.00  0.00    +0.000 C 
ATOM     31  O   UNL     1      -5.153  16.847  23.663  0.00  0.00    +0.000 OA
ATOM     32  C   UNL     1      -6.442  16.603  22.937  0.00  0.00    +0.000 C 
ATOM     33  C   UNL     1      -7.915  16.057  23.224  0.00  0.00    +0.000 C 
ATOM     34  C   UNL     1      -6.832  17.930  23.725  0.00  0.00    +0.000 C 
ATOM     35  C   UNL     1      -5.861  15.124  22.979  0.00  0.00    +0.000 C 
ENDBRANCH  23  24
ENDBRANCH   7  23
TORSDOF 5
ENDMDL
MODEL 8
REMARK VINA RESULT:      -7.7      2.321      3.346
REMARK  Name = 
REMARK  10 active torsions:
REMARK  status: ('A' for Active; 'I' for Inactive)
REMARK    1  A    between atoms: C_1  and  C_2
REMARK    2  A    between atoms: C_2  and  C_3
REMARK    3  A    between atoms: C_2  and  C_4
REMARK    4  A    between atoms: N_6  and  C_7
REMARK    5  A    between atoms: C_10  and  S_11
REMARK    6  A    between atoms: S_11  and  C_12
REMARK    7  A    between atoms: C_21  and  O_22
REMARK    8  A    between atoms: O_22  and  C_23
REMARK    9  A    between atoms: C_31  and  C_32
REMARK   10  A    between atoms: C_31  and  C_33
REMARK                            x       y       z     vdW  Elec       q    Type
REMARK                         _______ _______ _______ _____ _____    ______ ____
ROOT
ATOM      1  C   UNL     1      -0.220  11.836  19.240  0.00  0.00    +0.000 A 
ATOM      2  C   UNL     1       0.164  10.514  18.974  0.00  0.00    +0.000 A 
ATOM      3  N   UNL     1       1.419   9.968  19.385  0.00  0.00    +0.000 N 
ATOM      4  N   UNL     1      -0.732   9.650  18.434  0.00  0.00    +0.000 NA
ATOM      5  C   UNL     1      -2.007  10.031  18.281  0.00  0.00    +0.000 A 
ATOM      6  N   UNL     1      -2.519  11.200  18.680  0.00  0.00    +0.000 NA
ATOM      7  C   UNL     1      -1.609  12.048  19.174  0.00  0.00    +0.000 A 
ATOM      8  H   UNL     1       2.201  10.585  19.183  0.00  0.00    +0.000 HD
ENDROOT
BRANCH   3   9
ATOM      9  C   UNL     1       1.820   8.590  19.376  0.00  0.00    +0.000 A 
ATOM     10  C   UNL     1       1.690   7.763  20.502  0.00  0.00    +0.000 A 
ATOM     11  C   UNL     1       1.776   6.371  20.397  0.00  0.00    +0.000 A 
ATOM     12  C   UNL     1       2.074   5.790  19.168  0.00  0.00    +0.000 A 
ATOM     13  C   UNL     1       2.459   6.588  18.085  0.00  0.00    +0.000 A 
ATOM     14  C   UNL     1       2.333   7.982  18.209  0.00  0.00    +0.000 A 
ATOM     15  F   UNL     1       2.604   8.730  17.127  0.00  0.00    +0.000 F 
BRANCH  12  16
ATOM     16  S   UNL     1       1.659   4.089  18.894  0.00  0.00    +0.000 S 
ATOM     17  C   UNL     1       3.262   3.321  19.011  0.00  0.00    +0.000 C 
ATOM     18  O   UNL     1       0.840   3.635  19.989  0.00  0.00    +0.000 OA
ATOM     19  O   UNL     1       1.203   3.957  17.506  0.00  0.00    +0.000 OA
ENDBRANCH  12  16
ENDBRANCH   3   9
BRANCH   1  21
ATOM     20  C   UNL     1       1.381  12.755  20.968  0.00  0.00    +0.000 C 
ATOM     21  C   UNL     1       0.621  13.031  19.685  0.00  0.00    +0.000 C 
ATOM     22  C   UNL     1       1.565  13.693  18.678  0.00  0.00    +0.000 C 
ENDBRANCH   1  21
BRANCH   7  23
ATOM     23  O   UNL     1      -2.036  13.255  19.681  0.00  0.00    +0.000 OA
BRANCH  23  24
ATOM     24  C   UNL     1      -3.174  13.336  20.535  0.00  0.00    +0.000 C 
ATOM     25  C   UNL     1      -2.849  12.640  21.874  0.00  0.00    +0.000 C 
ATOM     26  C   UNL     1      -1.652  13.277  22.590  0.00  0.00    +0.000 C 
ATOM     27  C   UNL     1      -1.858  14.778  22.846  0.00  0.00    +0.000 C 
ATOM     28  C   UNL     1      -2.187  15.484  21.513  0.00  0.00    +0.000 C 
ATOM     29  C   UNL     1      -3.379  14.834  20.771  0.00  0.00    +0.000 C 
ATOM     30  C   UNL     1      -0.677  15.374  23.575  0.00  0.00    +0.000 C 
ATOM     31  O   UNL     1      -1.289  15.672  24.846  0.00  0.00    +0.000 OA
ATOM     32  C   UNL     1      -2.512  16.480  24.531  0.00  0.00    +0.000 C 
ATOM     33  C   UNL     1      -3.994  16.709  25.080  0.00  0.00    +0.000 C 
ATOM     34  C   UNL     1      -1.973  17.298  25.786  0.00  0.00    +0.000 C 
ATOM     35  C   UNL     1      -2.934  15.081  23.906  0.00  0.00    +0.000 C 
ENDBRANCH  23  24
ENDBRANCH   7  23
TORSDOF 5
ENDMDL
MODEL 9
REMARK VINA RESULT:      -7.7      2.112      3.106
REMARK  Name = 
REMARK  10 active torsions:
REMARK  status: ('A' for Active; 'I' for Inactive)
REMARK    1  A    between atoms: C_1  and  C_2
REMARK    2  A    between atoms: C_2  and  C_3
REMARK    3  A    between atoms: C_2  and  C_4
REMARK    4  A    between atoms: N_6  and  C_7
REMARK    5  A    between atoms: C_10  and  S_11
REMARK    6  A    between atoms: S_11  and  C_12
REMARK    7  A    between atoms: C_21  and  O_22
REMARK    8  A    between atoms: O_22  and  C_23
REMARK    9  A    between atoms: C_31  and  C_32
REMARK   10  A    between atoms: C_31  and  C_33
REMARK                            x       y       z     vdW  Elec       q    Type
REMARK                         _______ _______ _______ _____ _____    ______ ____
ROOT
ATOM      1  C   UNL     1      -0.345  11.686  19.301  0.00  0.00    +0.000 A 
ATOM      2  C   UNL     1       0.158  10.472  18.812  0.00  0.00    +0.000 A 
ATOM      3  N   UNL     1       1.393   9.905  19.254  0.00  0.00    +0.000 N 
ATOM      4  N   UNL     1      -0.608   9.709  17.993  0.00  0.00    +0.000 NA
ATOM      5  C   UNL     1      -1.880  10.059  17.764  0.00  0.00    +0.000 A 
ATOM      6  N   UNL     1      -2.516  11.088  18.333  0.00  0.00    +0.000 NA
ATOM      7  C   UNL     1      -1.729  11.847  19.106  0.00  0.00    +0.000 A 
ATOM      8  H   UNL     1       2.148  10.584  19.288  0.00  0.00    +0.000 HD
ENDROOT
BRANCH   3   9
ATOM      9  C   UNL     1       1.887   8.581  19.004  0.00  0.00    +0.000 A 
ATOM     10  C   UNL     1       2.534   8.235  17.807  0.00  0.00    +0.000 A 
ATOM     11  C   UNL     1       3.284   7.060  17.698  0.00  0.00    +0.000 A 
ATOM     12  C   UNL     1       3.333   6.172  18.769  0.00  0.00    +0.000 A 
ATOM     13  C   UNL     1       2.500   6.358  19.877  0.00  0.00    +0.000 A 
ATOM     14  C   UNL     1       1.782   7.561  19.974  0.00  0.00    +0.000 A 
ATOM     15  F   UNL     1       1.070   7.773  21.094  0.00  0.00    +0.000 F 
BRANCH  12  16
ATOM     16  S   UNL     1       4.661   5.003  18.861  0.00  0.00    +0.000 S 
ATOM     17  C   UNL     1       5.083   4.824  17.141  0.00  0.00    +0.000 C 
ATOM     18  O   UNL     1       5.766   5.618  19.554  0.00  0.00    +0.000 OA
ATOM     19  O   UNL     1       4.103   3.726  19.318  0.00  0.00    +0.000 OA
ENDBRANCH  12  16
ENDBRANCH   3   9
BRANCH   1  21
ATOM     20  C   UNL     1       0.741  12.341  21.489  0.00  0.00    +0.000 C 
ATOM     21  C   UNL     1       0.353  12.790  20.093  0.00  0.00    +0.000 C 
ATOM     22  C   UNL     1       1.536  13.526  19.458  0.00  0.00    +0.000 C 
ENDBRANCH   1  21
BRANCH   7  23
ATOM     23  O   UNL     1      -2.295  12.893  19.800  0.00  0.00    +0.000 OA
BRANCH  23  24
ATOM     24  C   UNL     1      -3.503  12.724  20.537  0.00  0.00    +0.000 C 
ATOM     25  C   UNL     1      -3.154  12.444  22.015  0.00  0.00    +0.000 C 
ATOM     26  C   UNL     1      -2.346  13.581  22.652  0.00  0.00    +0.000 C 
ATOM     27  C   UNL     1      -3.069  14.933  22.558  0.00  0.00    +0.000 C 
ATOM     28  C   UNL     1      -3.424  15.222  21.083  0.00  0.00    +0.000 C 
ATOM     29  C   UNL     1      -4.221  14.071  20.424  0.00  0.00    +0.000 C 
ATOM     30  C   UNL     1      -2.263  16.029  23.215  0.00  0.00    +0.000 C 
ATOM     31  O   UNL     1      -3.109  16.320  24.347  0.00  0.00    +0.000 OA
ATOM     32  C   UNL     1      -4.474  16.575  23.781  0.00  0.00    +0.000 C 
ATOM     33  C   UNL     1      -6.009  16.365  24.165  0.00  0.00    +0.000 C 
ATOM     34  C   UNL     1      -4.414  17.745  24.858  0.00  0.00    +0.000 C 
ATOM     35  C   UNL     1      -4.320  15.028  23.451  0.00  0.00    +0.000 C 
ENDBRANCH  23  24
ENDBRANCH   7  23
TORSDOF 5
ENDMDL
