MODEL 1
REMARK VINA RESULT:      -7.2      0.000      0.000
REMARK  Name = 
REMARK  7 active torsions:
REMARK  status: ('A' for Active; 'I' for Inactive)
REMARK    1  A    between atoms: C_1  and  C_2
REMARK    2  A    between atoms: C_2  and  N_3
REMARK    3  A    between atoms: N_3  and  C_4
REMARK    4  A    between atoms: C_4  and  C_5
REMARK    5  A    between atoms: C_6  and  C_8
REMARK    6  A    between atoms: C_8  and  N_9
REMARK    7  A    between atoms: C_19  and  C_20
REMARK                            x       y       z     vdW  Elec       q    Type
REMARK                         _______ _______ _______ _____ _____    ______ ____
ROOT
ATOM      1  N   UNL     1       2.268   7.628  18.763  0.00  0.00    +0.000 N 
ATOM      2  C   UNL     1       2.066   7.575  20.123  0.00  0.00    +0.000 C 
ATOM      3  O   UNL     1       2.124   8.557  20.858  0.00  0.00    +0.000 OA
ATOM      4  N   UNL     1       1.738   6.342  20.632  0.00  0.00    +0.000 N 
ATOM      5  C   UNL     1       1.572   5.186  19.853  0.00  0.00    +0.000 A 
ATOM      6  C   UNL     1       1.024   4.033  20.397  0.00  0.00    +0.000 A 
ATOM      7  C   UNL     1       0.901   2.884  19.607  0.00  0.00    +0.000 A 
ATOM      8  C   UNL     1       1.338   2.903  18.282  0.00  0.00    +0.000 A 
ATOM      9  C   UNL     1       1.896   4.055  17.740  0.00  0.00    +0.000 A 
ATOM     10  C   UNL     1       2.013   5.209  18.529  0.00  0.00    +0.000 A 
ATOM     11  C   UNL     1       2.735   6.445  18.050  0.00  0.00    +0.000 C 
ATOM     12  H   UNL     1       1.503   6.333  21.616  0.00  0.00    +0.000 HD
ENDROOT
BRANCH  11  13
ATOM     13  C   UNL     1       4.258   6.272  18.174  0.00  0.00    +0.000 A 
ATOM     14  C   UNL     1       5.124   6.864  17.243  0.00  0.00    +0.000 A 
ATOM     15  C   UNL     1       6.504   6.634  17.306  0.00  0.00    +0.000 A 
ATOM     16  C   UNL     1       7.042   5.818  18.300  0.00  0.00    +0.000 A 
ATOM     17  C   UNL     1       6.206   5.241  19.247  0.00  0.00    +0.000 A 
ATOM     18  C   UNL     1       4.832   5.471  19.185  0.00  0.00    +0.000 A 
ENDBRANCH  11  13
BRANCH   1  19
ATOM     19  C   UNL     1       2.175   8.910  18.063  0.00  0.00    +0.000 C 
BRANCH  19  21
ATOM     20  N   UNL     1       0.490  10.752  18.514  0.00  0.00    +0.000 N 
ATOM     21  C   UNL     1       0.720   9.466  17.974  0.00  0.00    +0.000 C 
ATOM     22  O   UNL     1      -0.191   8.821  17.447  0.00  0.00    +0.000 OA
BRANCH  20  24
ATOM     23  C   UNL     1      -1.232  12.034  19.831  0.00  0.00    +0.000 C 
ATOM     24  C   UNL     1      -0.903  11.227  18.579  0.00  0.00    +0.000 C 
ENDBRANCH  20  24
BRANCH  20  25
ATOM     25  C   UNL     1       1.588  11.519  19.113  0.00  0.00    +0.000 C 
ATOM     26  C   UNL     1       2.202  12.680  18.347  0.00  0.00    +0.000 C 
ENDBRANCH  20  25
ENDBRANCH  19  21
ENDBRANCH   1  19
TORSDOF 5
ENDMDL
MODEL 2
REMARK VINA RESULT:      -7.1      3.612      6.393
REMARK  Name = 
REMARK  7 active torsions:
REMARK  status: ('A' for Active; 'I' for Inactive)
REMARK    1  A    between atoms: C_1  and  C_2
REMARK    2  A    between atoms: C_2  and  N_3
REMARK    3  A    between atoms: N_3  and  C_4
REMARK    4  A    between atoms: C_4  and  C_5
REMARK    5  A    between atoms: C_6  and  C_8
REMARK    6  A    between atoms: C_8  and  N_9
REMARK    7  A    between atoms: C_19  and  C_20
REMARK                            x       y       z     vdW  Elec       q    Type
REMARK                         _______ _______ _______ _____ _____    ______ ____
ROOT
ATOM      1  N   UNL     1       5.492   4.263  18.644  0.00  0.00    +0.000 N 
ATOM      2  C   UNL     1       6.666   4.970  18.769  0.00  0.00    +0.000 C 
ATOM      3  O   UNL     1       7.170   5.266  19.849  0.00  0.00    +0.000 OA
ATOM      4  N   UNL     1       7.295   5.299  17.593  0.00  0.00    +0.000 N 
ATOM      5  C   UNL     1       6.832   4.931  16.320  0.00  0.00    +0.000 A 
ATOM      6  C   UNL     1       7.627   5.099  15.195  0.00  0.00    +0.000 A 
ATOM      7  C   UNL     1       7.126   4.755  13.935  0.00  0.00    +0.000 A 
ATOM      8  C   UNL     1       5.830   4.255  13.816  0.00  0.00    +0.000 A 
ATOM      9  C   UNL     1       5.029   4.097  14.941  0.00  0.00    +0.000 A 
ATOM     10  C   UNL     1       5.533   4.434  16.206  0.00  0.00    +0.000 A 
ATOM     11  C   UNL     1       4.674   4.419  17.446  0.00  0.00    +0.000 C 
ATOM     12  H   UNL     1       8.201   5.738  17.700  0.00  0.00    +0.000 HD
ENDROOT
BRANCH  11  13
ATOM     13  C   UNL     1       3.796   5.681  17.519  0.00  0.00    +0.000 A 
ATOM     14  C   UNL     1       4.357   6.954  17.339  0.00  0.00    +0.000 A 
ATOM     15  C   UNL     1       3.574   8.106  17.491  0.00  0.00    +0.000 A 
ATOM     16  C   UNL     1       2.223   8.007  17.819  0.00  0.00    +0.000 A 
ATOM     17  C   UNL     1       1.642   6.755  17.979  0.00  0.00    +0.000 A 
ATOM     18  C   UNL     1       2.421   5.609  17.825  0.00  0.00    +0.000 A 
ENDBRANCH  11  13
BRANCH   1  19
ATOM     19  C   UNL     1       4.985   3.489  19.776  0.00  0.00    +0.000 C 
BRANCH  19  21
ATOM     20  N   UNL     1       2.545   2.922  20.177  0.00  0.00    +0.000 N 
ATOM     21  C   UNL     1       3.716   2.647  19.436  0.00  0.00    +0.000 C 
ATOM     22  O   UNL     1       3.726   1.785  18.553  0.00  0.00    +0.000 OA
BRANCH  20  24
ATOM     23  C   UNL     1       0.499   2.413  18.798  0.00  0.00    +0.000 C 
ATOM     24  C   UNL     1       1.386   2.035  19.980  0.00  0.00    +0.000 C 
ENDBRANCH  20  24
BRANCH  20  25
ATOM     25  C   UNL     1       2.539   3.969  21.206  0.00  0.00    +0.000 C 
ATOM     26  C   UNL     1       1.690   5.214  21.009  0.00  0.00    +0.000 C 
ENDBRANCH  20  25
ENDBRANCH  19  21
ENDBRANCH   1  19
TORSDOF 5
ENDMDL
MODEL 3
REMARK VINA RESULT:      -7.0      0.531      1.189
REMARK  Name = 
REMARK  7 active torsions:
REMARK  status: ('A' for Active; 'I' for Inactive)
REMARK    1  A    between atoms: C_1  and  C_2
REMARK    2  A    between atoms: C_2  and  N_3
REMARK    3  A    between atoms: N_3  and  C_4
REMARK    4  A    between atoms: C_4  and  C_5
REMARK    5  A    between atoms: C_6  and  C_8
REMARK    6  A    between atoms: C_8  and  N_9
REMARK    7  A    between atoms: C_19  and  C_20
REMARK                            x       y       z     vdW  Elec       q    Type
REMARK                         _______ _______ _______ _____ _____    ______ ____
ROOT
ATOM      1  N   UNL     1       2.280   7.562  18.836  0.00  0.00    +0.000 N 
ATOM      2  C   UNL     1       2.103   7.467  20.197  0.00  0.00    +0.000 C 
ATOM      3  O   UNL     1       2.181   8.425  20.962  0.00  0.00    +0.000 OA
ATOM      4  N   UNL     1       1.777   6.220  20.673  0.00  0.00    +0.000 N 
ATOM      5  C   UNL     1       1.589   5.090  19.862  0.00  0.00    +0.000 A 
ATOM      6  C   UNL     1       1.044   3.923  20.379  0.00  0.00    +0.000 A 
ATOM      7  C   UNL     1       0.899   2.801  19.555  0.00  0.00    +0.000 A 
ATOM      8  C   UNL     1       1.312   2.860  18.225  0.00  0.00    +0.000 A 
ATOM      9  C   UNL     1       1.867   4.024  17.709  0.00  0.00    +0.000 A 
ATOM     10  C   UNL     1       2.006   5.153  18.531  0.00  0.00    +0.000 A 
ATOM     11  C   UNL     1       2.726   6.398  18.078  0.00  0.00    +0.000 C 
ATOM     12  H   UNL     1       1.560   6.181  21.661  0.00  0.00    +0.000 HD
ENDROOT
BRANCH  11  13
ATOM     13  C   UNL     1       4.251   6.213  18.168  0.00  0.00    +0.000 A 
ATOM     14  C   UNL     1       4.818   5.444  19.195  0.00  0.00    +0.000 A 
ATOM     15  C   UNL     1       6.210   5.347  19.327  0.00  0.00    +0.000 A 
ATOM     16  C   UNL     1       7.054   6.008  18.436  0.00  0.00    +0.000 A 
ATOM     17  C   UNL     1       6.513   6.755  17.398  0.00  0.00    +0.000 A 
ATOM     18  C   UNL     1       5.128   6.850  17.265  0.00  0.00    +0.000 A 
ENDBRANCH  11  13
BRANCH   1  19
ATOM     19  C   UNL     1       2.183   8.865  18.179  0.00  0.00    +0.000 C 
BRANCH  19  21
ATOM     20  N   UNL     1       0.349  10.572  18.584  0.00  0.00    +0.000 N 
ATOM     21  C   UNL     1       0.714   9.350  17.973  0.00  0.00    +0.000 C 
ATOM     22  O   UNL     1      -0.095   8.705  17.299  0.00  0.00    +0.000 OA
BRANCH  20  24
ATOM     23  C   UNL     1      -1.304  12.411  18.105  0.00  0.00    +0.000 C 
ATOM     24  C   UNL     1      -1.069  10.966  18.532  0.00  0.00    +0.000 C 
ENDBRANCH  20  24
BRANCH  20  25
ATOM     25  C   UNL     1       1.329  11.342  19.360  0.00  0.00    +0.000 C 
ATOM     26  C   UNL     1       1.044  11.673  20.816  0.00  0.00    +0.000 C 
ENDBRANCH  20  25
ENDBRANCH  19  21
ENDBRANCH   1  19
TORSDOF 5
ENDMDL
MODEL 4
REMARK VINA RESULT:      -6.3      4.606      7.004
REMARK  Name = 
REMARK  7 active torsions:
REMARK  status: ('A' for Active; 'I' for Inactive)
REMARK    1  A    between atoms: C_1  and  C_2
REMARK    2  A    between atoms: C_2  and  N_3
REMARK    3  A    between atoms: N_3  and  C_4
REMARK    4  A    between atoms: C_4  and  C_5
REMARK    5  A    between atoms: C_6  and  C_8
REMARK    6  A    between atoms: C_8  and  N_9
REMARK    7  A    between atoms: C_19  and  C_20
REMARK                            x       y       z     vdW  Elec       q    Type
REMARK                         _______ _______ _______ _____ _____    ______ ____
ROOT
ATOM      1  N   UNL     1       0.766  11.727  18.859  0.00  0.00    +0.000 N 
ATOM      2  C   UNL     1       1.418  10.526  18.694  0.00  0.00    +0.000 C 
ATOM      3  O   UNL     1       2.117  10.260  17.719  0.00  0.00    +0.000 OA
ATOM      4  N   UNL     1       1.287   9.627  19.724  0.00  0.00    +0.000 N 
ATOM      5  C   UNL     1       0.575   9.881  20.907  0.00  0.00    +0.000 A 
ATOM      6  C   UNL     1       0.670   9.024  21.994  0.00  0.00    +0.000 A 
ATOM      7  C   UNL     1      -0.077   9.283  23.149  0.00  0.00    +0.000 A 
ATOM      8  C   UNL     1      -0.919  10.394  23.195  0.00  0.00    +0.000 A 
ATOM      9  C   UNL     1      -1.022  11.247  22.103  0.00  0.00    +0.000 A 
ATOM     10  C   UNL     1      -0.268  10.993  20.948  0.00  0.00    +0.000 A 
ATOM     11  C   UNL     1      -0.437  11.794  19.681  0.00  0.00    +0.000 C 
ATOM     12  H   UNL     1       1.843   8.787  19.633  0.00  0.00    +0.000 HD
ENDROOT
BRANCH  11  13
ATOM     13  C   UNL     1      -1.681  11.333  18.904  0.00  0.00    +0.000 A 
ATOM     14  C   UNL     1      -1.593  10.300  17.959  0.00  0.00    +0.000 A 
ATOM     15  C   UNL     1      -2.707   9.940  17.190  0.00  0.00    +0.000 A 
ATOM     16  C   UNL     1      -3.925  10.597  17.355  0.00  0.00    +0.000 A 
ATOM     17  C   UNL     1      -4.041  11.607  18.302  0.00  0.00    +0.000 A 
ATOM     18  C   UNL     1      -2.933  11.964  19.068  0.00  0.00    +0.000 A 
ENDBRANCH  11  13
BRANCH   1  19
ATOM     19  C   UNL     1       1.182  12.893  18.080  0.00  0.00    +0.000 C 
BRANCH  19  21
ATOM     20  N   UNL     1       1.292  15.178  19.178  0.00  0.00    +0.000 N 
ATOM     21  C   UNL     1       1.957  13.957  18.918  0.00  0.00    +0.000 C 
ATOM     22  O   UNL     1       3.095  13.745  19.345  0.00  0.00    +0.000 OA
BRANCH  20  24
ATOM     23  C   UNL     1       1.780  16.410  21.320  0.00  0.00    +0.000 C 
ATOM     24  C   UNL     1       2.063  16.250  19.830  0.00  0.00    +0.000 C 
ENDBRANCH  20  24
BRANCH  20  25
ATOM     25  C   UNL     1      -0.072  15.407  18.686  0.00  0.00    +0.000 C 
ATOM     26  C   UNL     1      -0.516  16.815  18.326  0.00  0.00    +0.000 C 
ENDBRANCH  20  25
ENDBRANCH  19  21
ENDBRANCH   1  19
TORSDOF 5
ENDMDL
MODEL 5
REMARK VINA RESULT:      -6.2      1.161      1.617
REMARK  Name = 
REMARK  7 active torsions:
REMARK  status: ('A' for Active; 'I' for Inactive)
REMARK    1  A    between atoms: C_1  and  C_2
REMARK    2  A    between atoms: C_2  and  N_3
REMARK    3  A    between atoms: N_3  and  C_4
REMARK    4  A    between atoms: C_4  and  C_5
REMARK    5  A    between atoms: C_6  and  C_8
REMARK    6  A    between atoms: C_8  and  N_9
REMARK    7  A    between atoms: C_19  and  C_20
REMARK                            x       y       z     vdW  Elec       q    Type
REMARK                         _______ _______ _______ _____ _____    ______ ____
ROOT
ATOM      1  N   UNL     1       1.865   6.981  18.785  0.00  0.00    +0.000 N 
ATOM      2  C   UNL     1       1.890   7.203  20.143  0.00  0.00    +0.000 C 
ATOM      3  O   UNL     1       1.809   8.318  20.651  0.00  0.00    +0.000 OA
ATOM      4  N   UNL     1       1.965   6.080  20.931  0.00  0.00    +0.000 N 
ATOM      5  C   UNL     1       1.980   4.767  20.435  0.00  0.00    +0.000 A 
ATOM      6  C   UNL     1       1.829   3.681  21.286  0.00  0.00    +0.000 A 
ATOM      7  C   UNL     1       1.882   2.382  20.769  0.00  0.00    +0.000 A 
ATOM      8  C   UNL     1       2.096   2.187  19.405  0.00  0.00    +0.000 A 
ATOM      9  C   UNL     1       2.258   3.273  18.554  0.00  0.00    +0.000 A 
ATOM     10  C   UNL     1       2.197   4.577  19.069  0.00  0.00    +0.000 A 
ATOM     11  C   UNL     1       2.503   5.792  18.230  0.00  0.00    +0.000 C 
ATOM     12  H   UNL     1       1.890   6.250  21.926  0.00  0.00    +0.000 HD
ENDROOT
BRANCH  11  13
ATOM     13  C   UNL     1       4.021   5.983  18.075  0.00  0.00    +0.000 A 
ATOM     14  C   UNL     1       4.551   6.626  16.947  0.00  0.00    +0.000 A 
ATOM     15  C   UNL     1       5.937   6.722  16.766  0.00  0.00    +0.000 A 
ATOM     16  C   UNL     1       6.813   6.185  17.707  0.00  0.00    +0.000 A 
ATOM     17  C   UNL     1       6.311   5.566  18.844  0.00  0.00    +0.000 A 
ATOM     18  C   UNL     1       4.931   5.472  19.025  0.00  0.00    +0.000 A 
ENDBRANCH  11  13
BRANCH   1  19
ATOM     19  C   UNL     1       1.348   8.015  17.889  0.00  0.00    +0.000 C 
BRANCH  19  21
ATOM     20  N   UNL     1       1.173  10.454  18.566  0.00  0.00    +0.000 N 
ATOM     21  C   UNL     1       2.010   9.413  18.105  0.00  0.00    +0.000 C 
ATOM     22  O   UNL     1       3.211   9.602  17.893  0.00  0.00    +0.000 OA
BRANCH  20  24
ATOM     23  C   UNL     1       1.230  12.655  19.789  0.00  0.00    +0.000 C 
ATOM     24  C   UNL     1       1.741  11.812  18.625  0.00  0.00    +0.000 C 
ENDBRANCH  20  24
BRANCH  20  25
ATOM     25  C   UNL     1      -0.248  10.207  18.839  0.00  0.00    +0.000 C 
ATOM     26  C   UNL     1      -1.285  10.512  17.770  0.00  0.00    +0.000 C 
ENDBRANCH  20  25
ENDBRANCH  19  21
ENDBRANCH   1  19
TORSDOF 5
ENDMDL
MODEL 6
REMARK VINA RESULT:      -6.1      5.660      7.311
REMARK  Name = 
REMARK  7 active torsions:
REMARK  status: ('A' for Active; 'I' for Inactive)
REMARK    1  A    between atoms: C_1  and  C_2
REMARK    2  A    between atoms: C_2  and  N_3
REMARK    3  A    between atoms: N_3  and  C_4
REMARK    4  A    between atoms: C_4  and  C_5
REMARK    5  A    between atoms: C_6  and  C_8
REMARK    6  A    between atoms: C_8  and  N_9
REMARK    7  A    between atoms: C_19  and  C_20
REMARK                            x       y       z     vdW  Elec       q    Type
REMARK                         _______ _______ _______ _____ _____    ______ ____
ROOT
ATOM      1  N   UNL     1      -1.015  13.329  20.199  0.00  0.00    +0.000 N 
ATOM      2  C   UNL     1      -2.350  13.551  20.449  0.00  0.00    +0.000 C 
ATOM      3  O   UNL     1      -2.764  14.413  21.220  0.00  0.00    +0.000 OA
ATOM      4  N   UNL     1      -3.230  12.771  19.739  0.00  0.00    +0.000 N 
ATOM      5  C   UNL     1      -2.846  11.820  18.781  0.00  0.00    +0.000 A 
ATOM      6  C   UNL     1      -3.782  11.232  17.943  0.00  0.00    +0.000 A 
ATOM      7  C   UNL     1      -3.375  10.262  17.020  0.00  0.00    +0.000 A 
ATOM      8  C   UNL     1      -2.034   9.886  16.955  0.00  0.00    +0.000 A 
ATOM      9  C   UNL     1      -1.097  10.467  17.801  0.00  0.00    +0.000 A 
ATOM     10  C   UNL     1      -1.502  11.445  18.721  0.00  0.00    +0.000 A 
ATOM     11  C   UNL     1      -0.567  12.013  19.760  0.00  0.00    +0.000 C 
ATOM     12  H   UNL     1      -4.207  13.006  19.862  0.00  0.00    +0.000 HD
ENDROOT
BRANCH  11  13
ATOM     13  C   UNL     1      -0.410  11.043  20.943  0.00  0.00    +0.000 A 
ATOM     14  C   UNL     1      -1.129  11.241  22.132  0.00  0.00    +0.000 A 
ATOM     15  C   UNL     1      -0.920  10.408  23.238  0.00  0.00    +0.000 A 
ATOM     16  C   UNL     1       0.000   9.363  23.176  0.00  0.00    +0.000 A 
ATOM     17  C   UNL     1       0.705   9.134  22.002  0.00  0.00    +0.000 A 
ATOM     18  C   UNL     1       0.497   9.962  20.899  0.00  0.00    +0.000 A 
ENDBRANCH  11  13
BRANCH   1  19
ATOM     19  C   UNL     1      -0.032  14.359  20.534  0.00  0.00    +0.000 C 
BRANCH  19  21
ATOM     20  N   UNL     1       1.869  15.415  19.227  0.00  0.00    +0.000 N 
ATOM     21  C   UNL     1       0.481  15.156  19.294  0.00  0.00    +0.000 C 
ATOM     22  O   UNL     1      -0.285  15.536  18.404  0.00  0.00    +0.000 OA
BRANCH  20  24
ATOM     23  C   UNL     1       3.455  15.694  17.290  0.00  0.00    +0.000 C 
ATOM     24  C   UNL     1       2.348  16.297  18.149  0.00  0.00    +0.000 C 
ENDBRANCH  20  24
BRANCH  20  25
ATOM     25  C   UNL     1       2.772  14.934  20.279  0.00  0.00    +0.000 C 
ATOM     26  C   UNL     1       3.646  15.923  21.032  0.00  0.00    +0.000 C 
ENDBRANCH  20  25
ENDBRANCH  19  21
ENDBRANCH   1  19
TORSDOF 5
ENDMDL
MODEL 7
REMARK VINA RESULT:      -6.1      3.269      6.015
REMARK  Name = 
REMARK  7 active torsions:
REMARK  status: ('A' for Active; 'I' for Inactive)
REMARK    1  A    between atoms: C_1  and  C_2
REMARK    2  A    between atoms: C_2  and  N_3
REMARK    3  A    between atoms: N_3  and  C_4
REMARK    4  A    between atoms: C_4  and  C_5
REMARK    5  A    between atoms: C_6  and  C_8
REMARK    6  A    between atoms: C_8  and  N_9
REMARK    7  A    between atoms: C_19  and  C_20
REMARK                            x       y       z     vdW  Elec       q    Type
REMARK                         _______ _______ _______ _____ _____    ______ ____
ROOT
ATOM      1  N   UNL     1      -0.733  11.612  19.694  0.00  0.00    +0.000 N 
ATOM      2  C   UNL     1      -0.697  11.077  20.961  0.00  0.00    +0.000 C 
ATOM      3  O   UNL     1      -1.377  11.495  21.895  0.00  0.00    +0.000 OA
ATOM      4  N   UNL     1       0.124   9.989  21.130  0.00  0.00    +0.000 N 
ATOM      5  C   UNL     1       0.873   9.399  20.100  0.00  0.00    +0.000 A 
ATOM      6  C   UNL     1       1.502   8.176  20.284  0.00  0.00    +0.000 A 
ATOM      7  C   UNL     1       2.269   7.627  19.251  0.00  0.00    +0.000 A 
ATOM      8  C   UNL     1       2.406   8.317  18.047  0.00  0.00    +0.000 A 
ATOM      9  C   UNL     1       1.786   9.547  17.865  0.00  0.00    +0.000 A 
ATOM     10  C   UNL     1       1.009  10.095  18.897  0.00  0.00    +0.000 A 
ATOM     11  C   UNL     1       0.427  11.484  18.818  0.00  0.00    +0.000 C 
ATOM     12  H   UNL     1       0.073   9.549  22.040  0.00  0.00    +0.000 HD
ENDROOT
BRANCH  11  13
ATOM     13  C   UNL     1       1.495  12.545  19.133  0.00  0.00    +0.000 A 
ATOM     14  C   UNL     1       2.221  13.158  18.102  0.00  0.00    +0.000 A 
ATOM     15  C   UNL     1       3.253  14.059  18.395  0.00  0.00    +0.000 A 
ATOM     16  C   UNL     1       3.572  14.367  19.716  0.00  0.00    +0.000 A 
ATOM     17  C   UNL     1       2.850  13.789  20.752  0.00  0.00    +0.000 A 
ATOM     18  C   UNL     1       1.822  12.894  20.461  0.00  0.00    +0.000 A 
ENDBRANCH  11  13
BRANCH   1  19
ATOM     19  C   UNL     1      -1.863  12.447  19.289  0.00  0.00    +0.000 C 
BRANCH  19  21
ATOM     20  N   UNL     1      -4.340  11.957  19.046  0.00  0.00    +0.000 N 
ATOM     21  C   UNL     1      -3.027  11.643  18.629  0.00  0.00    +0.000 C 
ATOM     22  O   UNL     1      -2.816  10.778  17.774  0.00  0.00    +0.000 OA
BRANCH  20  24
ATOM     23  C   UNL     1      -6.548  11.864  17.836  0.00  0.00    +0.000 C 
ATOM     24  C   UNL     1      -5.436  11.105  18.553  0.00  0.00    +0.000 C 
ENDBRANCH  20  24
BRANCH  20  25
ATOM     25  C   UNL     1      -4.578  13.007  20.043  0.00  0.00    +0.000 C 
ATOM     26  C   UNL     1      -4.906  12.623  21.477  0.00  0.00    +0.000 C 
ENDBRANCH  20  25
ENDBRANCH  19  21
ENDBRANCH   1  19
TORSDOF 5
ENDMDL
MODEL 8
REMARK VINA RESULT:      -6.0      5.627      7.260
REMARK  Name = 
REMARK  7 active torsions:
REMARK  status: ('A' for Active; 'I' for Inactive)
REMARK    1  A    between atoms: C_1  and  C_2
REMARK    2  A    between atoms: C_2  and  N_3
REMARK    3  A    between atoms: N_3  and  C_4
REMARK    4  A    between atoms: C_4  and  C_5
REMARK    5  A    between atoms: C_6  and  C_8
REMARK    6  A    between atoms: C_8  and  N_9
REMARK    7  A    between atoms: C_19  and  C_20
REMARK                            x       y       z     vdW  Elec       q    Type
REMARK                         _______ _______ _______ _____ _____    ______ ____
ROOT
ATOM      1  N   UNL     1      -1.090  13.358  20.247  0.00  0.00    +0.000 N 
ATOM      2  C   UNL     1      -2.430  13.532  20.507  0.00  0.00    +0.000 C 
ATOM      3  O   UNL     1      -2.867  14.369  21.292  0.00  0.00    +0.000 OA
ATOM      4  N   UNL     1      -3.288  12.734  19.790  0.00  0.00    +0.000 N 
ATOM      5  C   UNL     1      -2.877  11.810  18.817  0.00  0.00    +0.000 A 
ATOM      6  C   UNL     1      -3.799  11.202  17.976  0.00  0.00    +0.000 A 
ATOM      7  C   UNL     1      -3.365  10.259  17.037  0.00  0.00    +0.000 A 
ATOM      8  C   UNL     1      -2.013   9.929  16.960  0.00  0.00    +0.000 A 
ATOM      9  C   UNL     1      -1.090  10.528  17.808  0.00  0.00    +0.000 A 
ATOM     10  C   UNL     1      -1.522  11.480  18.745  0.00  0.00    +0.000 A 
ATOM     11  C   UNL     1      -0.600  12.063  19.787  0.00  0.00    +0.000 C 
ATOM     12  H   UNL     1      -4.271  12.934  19.922  0.00  0.00    +0.000 HD
ENDROOT
BRANCH  11  13
ATOM     13  C   UNL     1      -0.405  11.082  20.955  0.00  0.00    +0.000 A 
ATOM     14  C   UNL     1       0.337   9.904  20.785  0.00  0.00    +0.000 A 
ATOM     15  C   UNL     1       0.442   8.970  21.824  0.00  0.00    +0.000 A 
ATOM     16  C   UNL     1      -0.185   9.198  23.048  0.00  0.00    +0.000 A 
ATOM     17  C   UNL     1      -0.905  10.369  23.246  0.00  0.00    +0.000 A 
ATOM     18  C   UNL     1      -1.008  11.300  22.213  0.00  0.00    +0.000 A 
ENDBRANCH  11  13
BRANCH   1  19
ATOM     19  C   UNL     1      -0.139  14.415  20.591  0.00  0.00    +0.000 C 
BRANCH  19  21
ATOM     20  N   UNL     1       1.981  14.823  19.258  0.00  0.00    +0.000 N 
ATOM     21  C   UNL     1       0.585  15.028  19.352  0.00  0.00    +0.000 C 
ATOM     22  O   UNL     1      -0.029  15.654  18.485  0.00  0.00    +0.000 OA
BRANCH  20  24
ATOM     23  C   UNL     1       4.078  14.942  17.868  0.00  0.00    +0.000 C 
ATOM     24  C   UNL     1       2.704  15.524  18.183  0.00  0.00    +0.000 C 
ENDBRANCH  20  24
BRANCH  20  25
ATOM     25  C   UNL     1       2.695  14.052  20.283  0.00  0.00    +0.000 C 
ATOM     26  C   UNL     1       3.371  14.777  21.436  0.00  0.00    +0.000 C 
ENDBRANCH  20  25
ENDBRANCH  19  21
ENDBRANCH   1  19
TORSDOF 5
ENDMDL
MODEL 9
REMARK VINA RESULT:      -6.0      4.576      6.914
REMARK  Name = 
REMARK  7 active torsions:
REMARK  status: ('A' for Active; 'I' for Inactive)
REMARK    1  A    between atoms: C_1  and  C_2
REMARK    2  A    between atoms: C_2  and  N_3
REMARK    3  A    between atoms: N_3  and  C_4
REMARK    4  A    between atoms: C_4  and  C_5
REMARK    5  A    between atoms: C_6  and  C_8
REMARK    6  A    between atoms: C_8  and  N_9
REMARK    7  A    between atoms: C_19  and  C_20
REMARK                            x       y       z     vdW  Elec       q    Type
REMARK                         _______ _______ _______ _____ _____    ______ ____
ROOT
ATOM      1  N   UNL     1       0.769  11.717  18.878  0.00  0.00    +0.000 N 
ATOM      2  C   UNL     1       1.383  10.503  18.672  0.00  0.00    +0.000 C 
ATOM      3  O   UNL     1       2.061  10.243  17.681  0.00  0.00    +0.000 OA
ATOM      4  N   UNL     1       1.239   9.580  19.679  0.00  0.00    +0.000 N 
ATOM      5  C   UNL     1       0.551   9.822  20.878  0.00  0.00    +0.000 A 
ATOM      6  C   UNL     1       0.635   8.934  21.941  0.00  0.00    +0.000 A 
ATOM      7  C   UNL     1      -0.089   9.183  23.112  0.00  0.00    +0.000 A 
ATOM      8  C   UNL     1      -0.897  10.317  23.200  0.00  0.00    +0.000 A 
ATOM      9  C   UNL     1      -0.989  11.202  22.133  0.00  0.00    +0.000 A 
ATOM     10  C   UNL     1      -0.258  10.957  20.961  0.00  0.00    +0.000 A 
ATOM     11  C   UNL     1      -0.420  11.797  19.718  0.00  0.00    +0.000 C 
ATOM     12  H   UNL     1       1.770   8.727  19.558  0.00  0.00    +0.000 HD
ENDROOT
BRANCH  11  13
ATOM     13  C   UNL     1      -1.688  11.393  18.946  0.00  0.00    +0.000 A 
ATOM     14  C   UNL     1      -2.894  12.082  19.141  0.00  0.00    +0.000 A 
ATOM     15  C   UNL     1      -4.068  11.659  18.503  0.00  0.00    +0.000 A 
ATOM     16  C   UNL     1      -4.056  10.550  17.660  0.00  0.00    +0.000 A 
ATOM     17  C   UNL     1      -2.868   9.867  17.434  0.00  0.00    +0.000 A 
ATOM     18  C   UNL     1      -1.699  10.290  18.067  0.00  0.00    +0.000 A 
ENDBRANCH  11  13
BRANCH   1  19
ATOM     19  C   UNL     1       1.208  12.891  18.124  0.00  0.00    +0.000 C 
BRANCH  19  21
ATOM     20  N   UNL     1       1.809  14.755  19.738  0.00  0.00    +0.000 N 
ATOM     21  C   UNL     1       0.861  14.244  18.822  0.00  0.00    +0.000 C 
ATOM     22  O   UNL     1      -0.187  14.849  18.581  0.00  0.00    +0.000 OA
BRANCH  20  24
ATOM     23  C   UNL     1       0.841  15.632  21.891  0.00  0.00    +0.000 C 
ATOM     24  C   UNL     1       1.432  15.944  20.520  0.00  0.00    +0.000 C 
ENDBRANCH  20  24
BRANCH  20  25
ATOM     25  C   UNL     1       3.064  14.038  19.994  0.00  0.00    +0.000 C 
ATOM     26  C   UNL     1       4.258  14.788  20.563  0.00  0.00    +0.000 C 
ENDBRANCH  20  25
ENDBRANCH  19  21
ENDBRANCH   1  19
TORSDOF 5
ENDMDL
