MODEL 1
REMARK VINA RESULT:      -8.9      0.000      0.000
REMARK  Name = 
REMARK  5 active torsions:
REMARK  status: ('A' for Active; 'I' for Inactive)
REMARK    1  A    between atoms: C_1  and  C_2
REMARK    2  A    between atoms: C_5  and  C_6
REMARK    3  A    between atoms: N_11  and  S_12
REMARK    4  A    between atoms: S_12  and  C_15
REMARK    5  A    between atoms: C_21  and  C_22
REMARK                            x       y       z     vdW  Elec       q    Type
REMARK                         _______ _______ _______ _____ _____    ______ ____
ROOT
ATOM      1  C   UNL     1       6.458   5.616  16.783  0.00  0.00    +0.000 C 
ATOM      2  F   UNL     1       7.075   6.834  16.895  0.00  0.00    +0.000 F 
ATOM      3  C   UNL     1       7.066   4.704  17.851  0.00  0.00    +0.000 C 
ATOM      4  C   UNL     1       6.734   5.228  19.240  0.00  0.00    +0.000 C 
ATOM      5  C   UNL     1       5.225   5.289  19.456  0.00  0.00    +0.000 C 
ATOM      6  N   UNL     1       4.579   6.195  18.453  0.00  0.00    +0.000 NA
ATOM      7  C   UNL     1       4.946   5.809  17.025  0.00  0.00    +0.000 C 
ENDROOT
BRANCH   1  12
ATOM      8  C   UNL     1       5.942   3.405  12.400  0.00  0.00    +0.000 C 
ATOM      9  C   UNL     1       6.522   4.168  13.522  0.00  0.00    +0.000 A 
ATOM     10  N   UNL     1       7.515   5.052  13.368  0.00  0.00    +0.000 NA
ATOM     11  O   UNL     1       7.622   5.638  14.633  0.00  0.00    +0.000 OA
ATOM     12  C   UNL     1       6.673   5.045  15.416  0.00  0.00    +0.000 A 
ATOM     13  N   UNL     1       5.992   4.110  14.785  0.00  0.00    +0.000 NA
ENDBRANCH   1  12
BRANCH   6  14
ATOM     14  S   UNL     1       2.853   6.277  18.658  0.00  0.00    +0.000 S 
ATOM     15  O   UNL     1       2.584   7.188  19.739  0.00  0.00    +0.000 OA
ATOM     16  O   UNL     1       2.300   6.540  17.346  0.00  0.00    +0.000 OA
BRANCH  14  17
ATOM     17  C   UNL     1       2.331   4.642  19.178  0.00  0.00    +0.000 A 
ATOM     18  C   UNL     1       2.039   4.475  20.539  0.00  0.00    +0.000 A 
ATOM     19  C   UNL     1       1.657   3.233  21.025  0.00  0.00    +0.000 A 
ATOM     20  F   UNL     1       1.423   3.068  22.331  0.00  0.00    +0.000 F 
ATOM     21  C   UNL     1       1.515   2.145  20.172  0.00  0.00    +0.000 A 
ATOM     22  C   UNL     1       1.835   2.293  18.825  0.00  0.00    +0.000 A 
ATOM     23  C   UNL     1       2.303   3.519  18.321  0.00  0.00    +0.000 A 
ATOM     24  C   UNL     1       2.793   3.529  16.894  0.00  0.00    +0.000 C 
ENDBRANCH  14  17
ENDBRANCH   6  14
TORSDOF 3
ENDMDL
MODEL 2
REMARK VINA RESULT:      -8.6      2.390      3.107
REMARK  Name = 
REMARK  5 active torsions:
REMARK  status: ('A' for Active; 'I' for Inactive)
REMARK    1  A    between atoms: C_1  and  C_2
REMARK    2  A    between atoms: C_5  and  C_6
REMARK    3  A    between atoms: N_11  and  S_12
REMARK    4  A    between atoms: S_12  and  C_15
REMARK    5  A    between atoms: C_21  and  C_22
REMARK                            x       y       z     vdW  Elec       q    Type
REMARK                         _______ _______ _______ _____ _____    ______ ____
ROOT
ATOM      1  C   UNL     1       6.476   5.623  16.741  0.00  0.00    +0.000 C 
ATOM      2  F   UNL     1       6.739   6.968  16.724  0.00  0.00    +0.000 F 
ATOM      3  C   UNL     1       7.436   4.990  17.750  0.00  0.00    +0.000 C 
ATOM      4  C   UNL     1       7.139   5.503  19.151  0.00  0.00    +0.000 C 
ATOM      5  C   UNL     1       5.709   5.168  19.565  0.00  0.00    +0.000 C 
ATOM      6  N   UNL     1       4.722   5.791  18.626  0.00  0.00    +0.000 NA
ATOM      7  C   UNL     1       5.010   5.416  17.176  0.00  0.00    +0.000 C 
ENDROOT
BRANCH   1  12
ATOM      8  C   UNL     1       5.916   3.357  12.392  0.00  0.00    +0.000 C 
ATOM      9  C   UNL     1       6.507   4.135  13.498  0.00  0.00    +0.000 A 
ATOM     10  N   UNL     1       7.497   5.018  13.322  0.00  0.00    +0.000 NA
ATOM     11  O   UNL     1       7.617   5.620  14.579  0.00  0.00    +0.000 OA
ATOM     12  C   UNL     1       6.677   5.036  15.379  0.00  0.00    +0.000 A 
ATOM     13  N   UNL     1       5.991   4.092  14.768  0.00  0.00    +0.000 NA
ENDBRANCH   1  12
BRANCH   6  14
ATOM     14  S   UNL     1       3.079   5.416  19.056  0.00  0.00    +0.000 S 
ATOM     15  O   UNL     1       2.427   4.900  17.881  0.00  0.00    +0.000 OA
ATOM     16  O   UNL     1       3.146   4.602  20.251  0.00  0.00    +0.000 OA
BRANCH  14  17
ATOM     17  C   UNL     1       2.300   6.976  19.473  0.00  0.00    +0.000 A 
ATOM     18  C   UNL     1       1.633   7.041  20.705  0.00  0.00    +0.000 A 
ATOM     19  C   UNL     1       0.981   8.204  21.087  0.00  0.00    +0.000 A 
ATOM     20  F   UNL     1       0.308   8.246  22.241  0.00  0.00    +0.000 F 
ATOM     21  C   UNL     1       1.010   9.337  20.283  0.00  0.00    +0.000 A 
ATOM     22  C   UNL     1       1.643   9.272  19.043  0.00  0.00    +0.000 A 
ATOM     23  C   UNL     1       2.240   8.082  18.595  0.00  0.00    +0.000 A 
ATOM     24  C   UNL     1       2.738   8.060  17.171  0.00  0.00    +0.000 C 
ENDBRANCH  14  17
ENDBRANCH   6  14
TORSDOF 3
ENDMDL
MODEL 3
REMARK VINA RESULT:      -8.5      2.574      3.343
REMARK  Name = 
REMARK  5 active torsions:
REMARK  status: ('A' for Active; 'I' for Inactive)
REMARK    1  A    between atoms: C_1  and  C_2
REMARK    2  A    between atoms: C_5  and  C_6
REMARK    3  A    between atoms: N_11  and  S_12
REMARK    4  A    between atoms: S_12  and  C_15
REMARK    5  A    between atoms: C_21  and  C_22
REMARK                            x       y       z     vdW  Elec       q    Type
REMARK                         _______ _______ _______ _____ _____    ______ ____
ROOT
ATOM      1  C   UNL     1       5.834   4.770  14.806  0.00  0.00    +0.000 C 
ATOM      2  F   UNL     1       5.269   6.009  14.656  0.00  0.00    +0.000 F 
ATOM      3  C   UNL     1       7.285   4.986  15.240  0.00  0.00    +0.000 C 
ATOM      4  C   UNL     1       7.331   5.647  16.609  0.00  0.00    +0.000 C 
ATOM      5  C   UNL     1       6.634   4.785  17.658  0.00  0.00    +0.000 C 
ATOM      6  N   UNL     1       5.198   4.566  17.298  0.00  0.00    +0.000 NA
ATOM      7  C   UNL     1       5.048   4.001  15.890  0.00  0.00    +0.000 C 
ENDROOT
BRANCH   1  12
ATOM      8  C   UNL     1       6.595   1.611  11.091  0.00  0.00    +0.000 C 
ATOM      9  C   UNL     1       6.004   2.678  11.920  0.00  0.00    +0.000 A 
ATOM     10  N   UNL     1       4.726   3.062  11.814  0.00  0.00    +0.000 NA
ATOM     11  O   UNL     1       4.570   3.956  12.878  0.00  0.00    +0.000 OA
ATOM     12  C   UNL     1       5.775   4.011  13.518  0.00  0.00    +0.000 A 
ATOM     13  N   UNL     1       6.700   3.266  12.945  0.00  0.00    +0.000 NA
ENDBRANCH   1  12
BRANCH   6  14
ATOM     14  S   UNL     1       4.374   3.570  18.463  0.00  0.00    +0.000 S 
ATOM     15  O   UNL     1       3.609   2.590  17.737  0.00  0.00    +0.000 OA
ATOM     16  O   UNL     1       5.379   3.134  19.409  0.00  0.00    +0.000 OA
BRANCH  14  17
ATOM     17  C   UNL     1       3.218   4.645  19.314  0.00  0.00    +0.000 A 
ATOM     18  C   UNL     1       3.199   5.991  18.921  0.00  0.00    +0.000 A 
ATOM     19  C   UNL     1       2.354   6.892  19.552  0.00  0.00    +0.000 A 
ATOM     20  F   UNL     1       2.372   8.183  19.205  0.00  0.00    +0.000 F 
ATOM     21  C   UNL     1       1.482   6.475  20.551  0.00  0.00    +0.000 A 
ATOM     22  C   UNL     1       1.517   5.147  20.970  0.00  0.00    +0.000 A 
ATOM     23  C   UNL     1       2.421   4.232  20.406  0.00  0.00    +0.000 A 
ATOM     24  C   UNL     1       2.507   2.870  21.050  0.00  0.00    +0.000 C 
ENDBRANCH  14  17
ENDBRANCH   6  14
TORSDOF 3
ENDMDL
MODEL 4
REMARK VINA RESULT:      -8.5      2.926      4.368
REMARK  Name = 
REMARK  5 active torsions:
REMARK  status: ('A' for Active; 'I' for Inactive)
REMARK    1  A    between atoms: C_1  and  C_2
REMARK    2  A    between atoms: C_5  and  C_6
REMARK    3  A    between atoms: N_11  and  S_12
REMARK    4  A    between atoms: S_12  and  C_15
REMARK    5  A    between atoms: C_21  and  C_22
REMARK                            x       y       z     vdW  Elec       q    Type
REMARK                         _______ _______ _______ _____ _____    ______ ____
ROOT
ATOM      1  C   UNL     1       6.798   5.228  16.975  0.00  0.00    +0.000 C 
ATOM      2  F   UNL     1       7.709   4.281  16.587  0.00  0.00    +0.000 F 
ATOM      3  C   UNL     1       5.941   5.556  15.751  0.00  0.00    +0.000 C 
ATOM      4  C   UNL     1       5.138   4.335  15.330  0.00  0.00    +0.000 C 
ATOM      5  C   UNL     1       4.219   3.869  16.456  0.00  0.00    +0.000 C 
ATOM      6  N   UNL     1       5.011   3.504  17.673  0.00  0.00    +0.000 NA
ATOM      7  C   UNL     1       5.932   4.638  18.108  0.00  0.00    +0.000 C 
ENDROOT
BRANCH   1  12
ATOM      8  C   UNL     1       8.248   9.857  17.885  0.00  0.00    +0.000 C 
ATOM      9  C   UNL     1       8.144   8.387  17.946  0.00  0.00    +0.000 A 
ATOM     10  N   UNL     1       8.525   7.671  19.011  0.00  0.00    +0.000 NA
ATOM     11  O   UNL     1       8.100   6.377  18.697  0.00  0.00    +0.000 OA
ATOM     12  C   UNL     1       7.500   6.453  17.472  0.00  0.00    +0.000 A 
ATOM     13  N   UNL     1       7.532   7.664  16.955  0.00  0.00    +0.000 NA
ENDBRANCH   1  12
BRANCH   6  14
ATOM     14  S   UNL     1       3.994   2.984  18.986  0.00  0.00    +0.000 S 
ATOM     15  O   UNL     1       3.047   2.038  18.456  0.00  0.00    +0.000 OA
ATOM     16  O   UNL     1       4.883   2.583  20.056  0.00  0.00    +0.000 OA
BRANCH  14  17
ATOM     17  C   UNL     1       3.080   4.432  19.517  0.00  0.00    +0.000 A 
ATOM     18  C   UNL     1       3.297   5.616  18.798  0.00  0.00    +0.000 A 
ATOM     19  C   UNL     1       2.650   6.787  19.165  0.00  0.00    +0.000 A 
ATOM     20  F   UNL     1       2.895   7.923  18.504  0.00  0.00    +0.000 F 
ATOM     21  C   UNL     1       1.745   6.803  20.220  0.00  0.00    +0.000 A 
ATOM     22  C   UNL     1       1.549   5.640  20.961  0.00  0.00    +0.000 A 
ATOM     23  C   UNL     1       2.253   4.461  20.663  0.00  0.00    +0.000 A 
ATOM     24  C   UNL     1       2.106   3.313  21.630  0.00  0.00    +0.000 C 
ENDBRANCH  14  17
ENDBRANCH   6  14
TORSDOF 3
ENDMDL
MODEL 5
REMARK VINA RESULT:      -8.4      1.361      1.844
REMARK  Name = 
REMARK  5 active torsions:
REMARK  status: ('A' for Active; 'I' for Inactive)
REMARK    1  A    between atoms: C_1  and  C_2
REMARK    2  A    between atoms: C_5  and  C_6
REMARK    3  A    between atoms: N_11  and  S_12
REMARK    4  A    between atoms: S_12  and  C_15
REMARK    5  A    between atoms: C_21  and  C_22
REMARK                            x       y       z     vdW  Elec       q    Type
REMARK                         _______ _______ _______ _____ _____    ______ ____
ROOT
ATOM      1  C   UNL     1       6.729   5.544  16.498  0.00  0.00    +0.000 C 
ATOM      2  F   UNL     1       7.262   6.807  16.519  0.00  0.00    +0.000 F 
ATOM      3  C   UNL     1       7.499   4.714  17.526  0.00  0.00    +0.000 C 
ATOM      4  C   UNL     1       7.260   5.258  18.926  0.00  0.00    +0.000 C 
ATOM      5  C   UNL     1       5.776   5.219  19.283  0.00  0.00    +0.000 C 
ATOM      6  N   UNL     1       4.976   6.043  18.323  0.00  0.00    +0.000 NA
ATOM      7  C   UNL     1       5.236   5.637  16.877  0.00  0.00    +0.000 C 
ENDROOT
BRANCH   1  12
ATOM      8  C   UNL     1       5.945   3.232  12.209  0.00  0.00    +0.000 C 
ATOM      9  C   UNL     1       6.589   4.026  13.271  0.00  0.00    +0.000 A 
ATOM     10  N   UNL     1       7.559   4.917  13.032  0.00  0.00    +0.000 NA
ATOM     11  O   UNL     1       7.745   5.532  14.274  0.00  0.00    +0.000 OA
ATOM     12  C   UNL     1       6.858   4.946  15.132  0.00  0.00    +0.000 A 
ATOM     13  N   UNL     1       6.148   3.990  14.569  0.00  0.00    +0.000 NA
ENDBRANCH   1  12
BRANCH   6  14
ATOM     14  S   UNL     1       3.274   6.008  18.688  0.00  0.00    +0.000 S 
ATOM     15  O   UNL     1       3.082   6.695  19.939  0.00  0.00    +0.000 OA
ATOM     16  O   UNL     1       2.594   6.480  17.501  0.00  0.00    +0.000 OA
BRANCH  14  17
ATOM     17  C   UNL     1       2.851   4.284  18.941  0.00  0.00    +0.000 A 
ATOM     18  C   UNL     1       3.550   3.342  18.173  0.00  0.00    +0.000 A 
ATOM     19  C   UNL     1       3.260   1.990  18.289  0.00  0.00    +0.000 A 
ATOM     20  F   UNL     1       3.897   1.100  17.522  0.00  0.00    +0.000 F 
ATOM     21  C   UNL     1       2.306   1.540  19.194  0.00  0.00    +0.000 A 
ATOM     22  C   UNL     1       1.583   2.471  19.937  0.00  0.00    +0.000 A 
ATOM     23  C   UNL     1       1.800   3.850  19.779  0.00  0.00    +0.000 A 
ATOM     24  C   UNL     1       0.846   4.777  20.492  0.00  0.00    +0.000 C 
ENDBRANCH  14  17
ENDBRANCH   6  14
TORSDOF 3
ENDMDL
MODEL 6
REMARK VINA RESULT:      -8.3      2.694      3.856
REMARK  Name = 
REMARK  5 active torsions:
REMARK  status: ('A' for Active; 'I' for Inactive)
REMARK    1  A    between atoms: C_1  and  C_2
REMARK    2  A    between atoms: C_5  and  C_6
REMARK    3  A    between atoms: N_11  and  S_12
REMARK    4  A    between atoms: S_12  and  C_15
REMARK    5  A    between atoms: C_21  and  C_22
REMARK                            x       y       z     vdW  Elec       q    Type
REMARK                         _______ _______ _______ _____ _____    ______ ____
ROOT
ATOM      1  C   UNL     1       6.946   5.327  17.057  0.00  0.00    +0.000 C 
ATOM      2  F   UNL     1       7.650   4.241  17.508  0.00  0.00    +0.000 F 
ATOM      3  C   UNL     1       6.930   5.248  15.529  0.00  0.00    +0.000 C 
ATOM      4  C   UNL     1       6.159   4.018  15.075  0.00  0.00    +0.000 C 
ATOM      5  C   UNL     1       4.717   4.059  15.575  0.00  0.00    +0.000 C 
ATOM      6  N   UNL     1       4.674   4.106  17.071  0.00  0.00    +0.000 NA
ATOM      7  C   UNL     1       5.513   5.252  17.625  0.00  0.00    +0.000 C 
ENDROOT
BRANCH   1  12
ATOM      8  C   UNL     1       8.190  10.040  17.828  0.00  0.00    +0.000 C 
ATOM      9  C   UNL     1       8.155   8.569  17.928  0.00  0.00    +0.000 A 
ATOM     10  N   UNL     1       8.581   7.900  19.006  0.00  0.00    +0.000 NA
ATOM     11  O   UNL     1       8.213   6.580  18.732  0.00  0.00    +0.000 OA
ATOM     12  C   UNL     1       7.596   6.595  17.513  0.00  0.00    +0.000 A 
ATOM     13  N   UNL     1       7.566   7.793  16.964  0.00  0.00    +0.000 NA
ENDBRANCH   1  12
BRANCH   6  14
ATOM     14  S   UNL     1       3.044   4.172  17.679  0.00  0.00    +0.000 S 
ATOM     15  O   UNL     1       2.714   5.558  17.892  0.00  0.00    +0.000 OA
ATOM     16  O   UNL     1       2.241   3.377  16.776  0.00  0.00    +0.000 OA
BRANCH  14  17
ATOM     17  C   UNL     1       3.072   3.365  19.279  0.00  0.00    +0.000 A 
ATOM     18  C   UNL     1       4.209   2.601  19.582  0.00  0.00    +0.000 A 
ATOM     19  C   UNL     1       4.293   1.921  20.789  0.00  0.00    +0.000 A 
ATOM     20  F   UNL     1       5.358   1.158  21.054  0.00  0.00    +0.000 F 
ATOM     21  C   UNL     1       3.280   2.016  21.735  0.00  0.00    +0.000 A 
ATOM     22  C   UNL     1       2.133   2.745  21.429  0.00  0.00    +0.000 A 
ATOM     23  C   UNL     1       1.985   3.376  20.182  0.00  0.00    +0.000 A 
ATOM     24  C   UNL     1       0.639   3.986  19.880  0.00  0.00    +0.000 C 
ENDBRANCH  14  17
ENDBRANCH   6  14
TORSDOF 3
ENDMDL
MODEL 7
REMARK VINA RESULT:      -8.0      2.141      2.505
REMARK  Name = 
REMARK  5 active torsions:
REMARK  status: ('A' for Active; 'I' for Inactive)
REMARK    1  A    between atoms: C_1  and  C_2
REMARK    2  A    between atoms: C_5  and  C_6
REMARK    3  A    between atoms: N_11  and  S_12
REMARK    4  A    between atoms: S_12  and  C_15
REMARK    5  A    between atoms: C_21  and  C_22
REMARK                            x       y       z     vdW  Elec       q    Type
REMARK                         _______ _______ _______ _____ _____    ______ ____
ROOT
ATOM      1  C   UNL     1       6.292   5.404  15.829  0.00  0.00    +0.000 C 
ATOM      2  F   UNL     1       5.461   6.476  15.638  0.00  0.00    +0.000 F 
ATOM      3  C   UNL     1       7.481   5.897  16.657  0.00  0.00    +0.000 C 
ATOM      4  C   UNL     1       7.015   6.331  18.038  0.00  0.00    +0.000 C 
ATOM      5  C   UNL     1       6.352   5.175  18.781  0.00  0.00    +0.000 C 
ATOM      6  N   UNL     1       5.160   4.670  18.029  0.00  0.00    +0.000 NA
ATOM      7  C   UNL     1       5.512   4.310  16.590  0.00  0.00    +0.000 C 
ENDROOT
BRANCH   1  12
ATOM      8  C   UNL     1       6.666   3.056  11.504  0.00  0.00    +0.000 C 
ATOM      9  C   UNL     1       6.970   3.937  12.648  0.00  0.00    +0.000 A 
ATOM     10  N   UNL     1       7.789   4.991  12.560  0.00  0.00    +0.000 NA
ATOM     11  O   UNL     1       7.650   5.610  13.807  0.00  0.00    +0.000 OA
ATOM     12  C   UNL     1       6.753   4.861  14.513  0.00  0.00    +0.000 A 
ATOM     13  N   UNL     1       6.331   3.801  13.854  0.00  0.00    +0.000 NA
ENDBRANCH   1  12
BRANCH   6  14
ATOM     14  S   UNL     1       4.388   3.337  18.838  0.00  0.00    +0.000 S 
ATOM     15  O   UNL     1       4.047   2.359  17.838  0.00  0.00    +0.000 OA
ATOM     16  O   UNL     1       5.259   2.966  19.933  0.00  0.00    +0.000 OA
BRANCH  14  17
ATOM     17  C   UNL     1       2.859   3.980  19.518  0.00  0.00    +0.000 A 
ATOM     18  C   UNL     1       2.874   5.311  19.959  0.00  0.00    +0.000 A 
ATOM     19  C   UNL     1       1.738   5.874  20.526  0.00  0.00    +0.000 A 
ATOM     20  F   UNL     1       1.771   7.128  20.986  0.00  0.00    +0.000 F 
ATOM     21  C   UNL     1       0.557   5.148  20.627  0.00  0.00    +0.000 A 
ATOM     22  C   UNL     1       0.543   3.815  20.222  0.00  0.00    +0.000 A 
ATOM     23  C   UNL     1       1.701   3.197  19.722  0.00  0.00    +0.000 A 
ATOM     24  C   UNL     1       1.632   1.709  19.481  0.00  0.00    +0.000 C 
ENDBRANCH  14  17
ENDBRANCH   6  14
TORSDOF 3
ENDMDL
MODEL 8
REMARK VINA RESULT:      -8.0      2.918      4.527
REMARK  Name = 
REMARK  5 active torsions:
REMARK  status: ('A' for Active; 'I' for Inactive)
REMARK    1  A    between atoms: C_1  and  C_2
REMARK    2  A    between atoms: C_5  and  C_6
REMARK    3  A    between atoms: N_11  and  S_12
REMARK    4  A    between atoms: S_12  and  C_15
REMARK    5  A    between atoms: C_21  and  C_22
REMARK                            x       y       z     vdW  Elec       q    Type
REMARK                         _______ _______ _______ _____ _____    ______ ____
ROOT
ATOM      1  C   UNL     1       6.892   5.418  17.300  0.00  0.00    +0.000 C 
ATOM      2  F   UNL     1       7.814   4.526  17.781  0.00  0.00    +0.000 F 
ATOM      3  C   UNL     1       6.846   5.243  15.781  0.00  0.00    +0.000 C 
ATOM      4  C   UNL     1       6.329   3.858  15.427  0.00  0.00    +0.000 C 
ATOM      5  C   UNL     1       4.924   3.639  15.983  0.00  0.00    +0.000 C 
ATOM      6  N   UNL     1       4.916   3.768  17.475  0.00  0.00    +0.000 NA
ATOM      7  C   UNL     1       5.521   5.091  17.930  0.00  0.00    +0.000 C 
ENDROOT
BRANCH   1  12
ATOM      8  C   UNL     1       9.209   9.445  18.966  0.00  0.00    +0.000 C 
ATOM      9  C   UNL     1       8.224   8.575  18.295  0.00  0.00    +0.000 A 
ATOM     10  N   UNL     1       7.443   8.994  17.293  0.00  0.00    +0.000 NA
ATOM     11  O   UNL     1       6.809   7.823  16.868  0.00  0.00    +0.000 OA
ATOM     12  C   UNL     1       7.283   6.817  17.660  0.00  0.00    +0.000 A 
ATOM     13  N   UNL     1       8.133   7.236  18.576  0.00  0.00    +0.000 NA
ENDBRANCH   1  12
BRANCH   6  14
ATOM     14  S   UNL     1       3.326   3.542  18.145  0.00  0.00    +0.000 S 
ATOM     15  O   UNL     1       2.451   3.153  17.070  0.00  0.00    +0.000 OA
ATOM     16  O   UNL     1       3.486   2.669  19.288  0.00  0.00    +0.000 OA
BRANCH  14  17
ATOM     17  C   UNL     1       2.794   5.152  18.728  0.00  0.00    +0.000 A 
ATOM     18  C   UNL     1       2.919   6.222  17.831  0.00  0.00    +0.000 A 
ATOM     19  C   UNL     1       2.556   7.505  18.217  0.00  0.00    +0.000 A 
ATOM     20  F   UNL     1       2.719   8.529  17.374  0.00  0.00    +0.000 F 
ATOM     21  C   UNL     1       2.024   7.748  19.478  0.00  0.00    +0.000 A 
ATOM     22  C   UNL     1       1.927   6.696  20.387  0.00  0.00    +0.000 A 
ATOM     23  C   UNL     1       2.364   5.404  20.050  0.00  0.00    +0.000 A 
ATOM     24  C   UNL     1       2.385   4.380  21.158  0.00  0.00    +0.000 C 
ENDBRANCH  14  17
ENDBRANCH   6  14
TORSDOF 3
ENDMDL
MODEL 9
REMARK VINA RESULT:      -7.9      2.762      3.784
REMARK  Name = 
REMARK  5 active torsions:
REMARK  status: ('A' for Active; 'I' for Inactive)
REMARK    1  A    between atoms: C_1  and  C_2
REMARK    2  A    between atoms: C_5  and  C_6
REMARK    3  A    between atoms: N_11  and  S_12
REMARK    4  A    between atoms: S_12  and  C_15
REMARK    5  A    between atoms: C_21  and  C_22
REMARK                            x       y       z     vdW  Elec       q    Type
REMARK                         _______ _______ _______ _____ _____    ______ ____
ROOT
ATOM      1  C   UNL     1       6.486   5.618  16.572  0.00  0.00    +0.000 C 
ATOM      2  F   UNL     1       6.845   6.940  16.548  0.00  0.00    +0.000 F 
ATOM      3  C   UNL     1       7.373   4.930  17.612  0.00  0.00    +0.000 C 
ATOM      4  C   UNL     1       7.079   5.481  18.999  0.00  0.00    +0.000 C 
ATOM      5  C   UNL     1       5.619   5.254  19.380  0.00  0.00    +0.000 C 
ATOM      6  N   UNL     1       4.703   5.933  18.410  0.00  0.00    +0.000 NA
ATOM      7  C   UNL     1       4.999   5.521  16.972  0.00  0.00    +0.000 C 
ENDROOT
BRANCH   1  12
ATOM      8  C   UNL     1       5.888   3.286  12.263  0.00  0.00    +0.000 C 
ATOM      9  C   UNL     1       6.494   4.069  13.357  0.00  0.00    +0.000 A 
ATOM     10  N   UNL     1       7.507   4.923  13.170  0.00  0.00    +0.000 NA
ATOM     11  O   UNL     1       7.637   5.545  14.416  0.00  0.00    +0.000 OA
ATOM     12  C   UNL     1       6.679   5.000  15.223  0.00  0.00    +0.000 A 
ATOM     13  N   UNL     1       5.971   4.063  14.625  0.00  0.00    +0.000 NA
ENDBRANCH   1  12
BRANCH   6  14
ATOM     14  S   UNL     1       3.027   5.682  18.802  0.00  0.00    +0.000 S 
ATOM     15  O   UNL     1       2.402   5.053  17.667  0.00  0.00    +0.000 OA
ATOM     16  O   UNL     1       3.005   5.018  20.088  0.00  0.00    +0.000 OA
BRANCH  14  17
ATOM     17  C   UNL     1       2.305   7.312  18.990  0.00  0.00    +0.000 A 
ATOM     18  C   UNL     1       2.601   8.253  17.993  0.00  0.00    +0.000 A 
ATOM     19  C   UNL     1       2.104   9.546  18.082  0.00  0.00    +0.000 A 
ATOM     20  F   UNL     1       2.427  10.452  17.154  0.00  0.00    +0.000 F 
ATOM     21  C   UNL     1       1.273   9.922  19.130  0.00  0.00    +0.000 A 
ATOM     22  C   UNL     1       1.000   9.003  20.141  0.00  0.00    +0.000 A 
ATOM     23  C   UNL     1       1.556   7.713  20.119  0.00  0.00    +0.000 A 
ATOM     24  C   UNL     1       1.348   6.858  21.345  0.00  0.00    +0.000 C 
ENDBRANCH  14  17
ENDBRANCH   6  14
TORSDOF 3
ENDMDL
