MODEL 1
REMARK VINA RESULT:      -8.6      0.000      0.000
REMARK  Name = 
REMARK  3 active torsions:
REMARK  status: ('A' for Active; 'I' for Inactive)
REMARK    1  A    between atoms: C_1  and  N_2
REMARK    2  A    between atoms: C_4  and  N_5
REMARK    3  A    between atoms: C_20  and  C_21
REMARK                            x       y       z     vdW  Elec       q    Type
REMARK                         _______ _______ _______ _____ _____    ______ ____
ROOT
ATOM      1  N   UNL     1       1.004   9.562  19.369  0.00  0.00    +0.000 N 
ATOM      2  C   UNL     1       1.732   8.702  18.575  0.00  0.00    +0.000 C 
ATOM      3  O   UNL     1       1.932   8.877  17.372  0.00  0.00    +0.000 OA
ATOM      4  N   UNL     1       2.233   7.575  19.220  0.00  0.00    +0.000 N 
ATOM      5  C   UNL     1       2.104   7.217  20.632  0.00  0.00    +0.000 C 
ATOM      6  C   UNL     1       1.179   6.007  20.774  0.00  0.00    +0.000 C 
ATOM      7  C   UNL     1       1.573   4.893  19.834  0.00  0.00    +0.000 A 
ATOM      8  C   UNL     1       1.098   3.591  20.061  0.00  0.00    +0.000 A 
ATOM      9  C   UNL     1       1.423   2.559  19.179  0.00  0.00    +0.000 A 
ATOM     10  C   UNL     1       2.217   2.827  18.069  0.00  0.00    +0.000 A 
ATOM     11  F   UNL     1       2.528   1.830  17.230  0.00  0.00    +0.000 F 
ATOM     12  C   UNL     1       2.684   4.115  17.830  0.00  0.00    +0.000 A 
ATOM     13  F   UNL     1       3.453   4.350  16.757  0.00  0.00    +0.000 F 
ATOM     14  C   UNL     1       2.360   5.166  18.695  0.00  0.00    +0.000 A 
ATOM     15  C   UNL     1       2.895   6.550  18.408  0.00  0.00    +0.000 C 
ATOM     16  H   UNL     1       0.874   9.347  20.337  0.00  0.00    +0.000 HD
ENDROOT
BRANCH   1  20
ATOM     17  C   UNL     1      -0.197  14.279  18.792  0.00  0.00    +0.000 C 
ATOM     18  N   UNL     1      -0.140  12.844  18.679  0.00  0.00    +0.000 N 
ATOM     19  C   UNL     1       0.763  12.018  19.270  0.00  0.00    +0.000 A 
ATOM     20  C   UNL     1       0.390  10.732  18.950  0.00  0.00    +0.000 A 
ATOM     21  C   UNL     1      -0.749  10.906  18.107  0.00  0.00    +0.000 A 
ATOM     22  N   UNL     1      -1.063  12.197  17.951  0.00  0.00    +0.000 NA
BRANCH  21  23
ATOM     23  C   UNL     1      -1.612   9.876  17.381  0.00  0.00    +0.000 C 
ATOM     24  C   UNL     1      -3.091   9.739  17.668  0.00  0.00    +0.000 C 
ATOM     25  C   UNL     1      -2.643  10.284  16.354  0.00  0.00    +0.000 C 
ENDBRANCH  21  23
ENDBRANCH   1  20
TORSDOF 2
ENDMDL
MODEL 2
REMARK VINA RESULT:      -7.7      1.471      2.860
REMARK  Name = 
REMARK  3 active torsions:
REMARK  status: ('A' for Active; 'I' for Inactive)
REMARK    1  A    between atoms: C_1  and  N_2
REMARK    2  A    between atoms: C_4  and  N_5
REMARK    3  A    between atoms: C_20  and  C_21
REMARK                            x       y       z     vdW  Elec       q    Type
REMARK                         _______ _______ _______ _____ _____    ______ ____
ROOT
ATOM      1  N   UNL     1       0.622   9.237  18.903  0.00  0.00    +0.000 N 
ATOM      2  C   UNL     1       1.770   8.965  18.191  0.00  0.00    +0.000 C 
ATOM      3  O   UNL     1       2.108   9.569  17.171  0.00  0.00    +0.000 OA
ATOM      4  N   UNL     1       2.547   7.923  18.688  0.00  0.00    +0.000 N 
ATOM      5  C   UNL     1       2.306   7.113  19.881  0.00  0.00    +0.000 C 
ATOM      6  C   UNL     1       1.934   5.688  19.471  0.00  0.00    +0.000 C 
ATOM      7  C   UNL     1       2.913   5.125  18.467  0.00  0.00    +0.000 A 
ATOM      8  C   UNL     1       2.966   3.740  18.248  0.00  0.00    +0.000 A 
ATOM      9  C   UNL     1       3.838   3.210  17.297  0.00  0.00    +0.000 A 
ATOM     10  C   UNL     1       4.654   4.062  16.561  0.00  0.00    +0.000 A 
ATOM     11  F   UNL     1       5.492   3.545  15.653  0.00  0.00    +0.000 F 
ATOM     12  C   UNL     1       4.602   5.437  16.763  0.00  0.00    +0.000 A 
ATOM     13  F   UNL     1       5.402   6.241  16.047  0.00  0.00    +0.000 F 
ATOM     14  C   UNL     1       3.726   5.990  17.703  0.00  0.00    +0.000 A 
ATOM     15  C   UNL     1       3.706   7.488  17.902  0.00  0.00    +0.000 C 
ATOM     16  H   UNL     1       0.407   8.695  19.716  0.00  0.00    +0.000 HD
ENDROOT
BRANCH   1  20
ATOM     17  C   UNL     1      -3.421  11.512  17.319  0.00  0.00    +0.000 C 
ATOM     18  N   UNL     1      -2.132  11.227  17.897  0.00  0.00    +0.000 N 
ATOM     19  C   UNL     1      -1.582   9.999  18.089  0.00  0.00    +0.000 A 
ATOM     20  C   UNL     1      -0.317  10.207  18.591  0.00  0.00    +0.000 A 
ATOM     21  C   UNL     1      -0.225  11.628  18.706  0.00  0.00    +0.000 A 
ATOM     22  N   UNL     1      -1.337  12.237  18.278  0.00  0.00    +0.000 NA
BRANCH  21  23
ATOM     23  C   UNL     1       0.904  12.508  19.236  0.00  0.00    +0.000 C 
ATOM     24  C   UNL     1       2.133  12.806  18.406  0.00  0.00    +0.000 C 
ATOM     25  C   UNL     1       1.156  13.896  18.690  0.00  0.00    +0.000 C 
ENDBRANCH  21  23
ENDBRANCH   1  20
TORSDOF 2
ENDMDL
MODEL 3
REMARK VINA RESULT:      -7.4      1.075      1.152
REMARK  Name = 
REMARK  3 active torsions:
REMARK  status: ('A' for Active; 'I' for Inactive)
REMARK    1  A    between atoms: C_1  and  N_2
REMARK    2  A    between atoms: C_4  and  N_5
REMARK    3  A    between atoms: C_20  and  C_21
REMARK                            x       y       z     vdW  Elec       q    Type
REMARK                         _______ _______ _______ _____ _____    ______ ____
ROOT
ATOM      1  N   UNL     1       0.395   9.595  19.982  0.00  0.00    +0.000 N 
ATOM      2  C   UNL     1       1.386   9.109  19.157  0.00  0.00    +0.000 C 
ATOM      3  O   UNL     1       1.703   9.623  18.083  0.00  0.00    +0.000 OA
ATOM      4  N   UNL     1       2.022   7.954  19.605  0.00  0.00    +0.000 N 
ATOM      5  C   UNL     1       1.784   7.223  20.848  0.00  0.00    +0.000 C 
ATOM      6  C   UNL     1       1.123   5.880  20.539  0.00  0.00    +0.000 C 
ATOM      7  C   UNL     1       1.862   5.133  19.454  0.00  0.00    +0.000 A 
ATOM      8  C   UNL     1       1.645   3.756  19.286  0.00  0.00    +0.000 A 
ATOM      9  C   UNL     1       2.294   3.061  18.264  0.00  0.00    +0.000 A 
ATOM     10  C   UNL     1       3.154   3.739  17.408  0.00  0.00    +0.000 A 
ATOM     11  F   UNL     1       3.776   3.064  16.433  0.00  0.00    +0.000 F 
ATOM     12  C   UNL     1       3.368   5.105  17.560  0.00  0.00    +0.000 A 
ATOM     13  F   UNL     1       4.207   5.739  16.728  0.00  0.00    +0.000 F 
ATOM     14  C   UNL     1       2.719   5.823  18.571  0.00  0.00    +0.000 A 
ATOM     15  C   UNL     1       2.986   7.304  18.711  0.00  0.00    +0.000 C 
ATOM     16  H   UNL     1       0.186   9.116  20.834  0.00  0.00    +0.000 HD
ENDROOT
BRANCH   1  20
ATOM     17  C   UNL     1      -1.774  13.974  20.368  0.00  0.00    +0.000 C 
ATOM     18  N   UNL     1      -1.350  12.678  19.902  0.00  0.00    +0.000 N 
ATOM     19  C   UNL     1      -0.409  11.878  20.470  0.00  0.00    +0.000 A 
ATOM     20  C   UNL     1      -0.389  10.712  19.739  0.00  0.00    +0.000 A 
ATOM     21  C   UNL     1      -1.347  10.939  18.706  0.00  0.00    +0.000 A 
ATOM     22  N   UNL     1      -1.927  12.140  18.817  0.00  0.00    +0.000 NA
BRANCH  21  23
ATOM     23  C   UNL     1      -1.776  10.053  17.538  0.00  0.00    +0.000 C 
ATOM     24  C   UNL     1      -3.210   9.606  17.368  0.00  0.00    +0.000 C 
ATOM     25  C   UNL     1      -2.626  10.584  16.406  0.00  0.00    +0.000 C 
ENDBRANCH  21  23
ENDBRANCH   1  20
TORSDOF 2
ENDMDL
MODEL 4
REMARK VINA RESULT:      -7.3      1.024      2.376
REMARK  Name = 
REMARK  3 active torsions:
REMARK  status: ('A' for Active; 'I' for Inactive)
REMARK    1  A    between atoms: C_1  and  N_2
REMARK    2  A    between atoms: C_4  and  N_5
REMARK    3  A    between atoms: C_20  and  C_21
REMARK                            x       y       z     vdW  Elec       q    Type
REMARK                         _______ _______ _______ _____ _____    ______ ____
ROOT
ATOM      1  N   UNL     1       0.667   9.176  19.303  0.00  0.00    +0.000 N 
ATOM      2  C   UNL     1       1.607   8.503  18.553  0.00  0.00    +0.000 C 
ATOM      3  O   UNL     1       1.835   8.735  17.365  0.00  0.00    +0.000 OA
ATOM      4  N   UNL     1       2.299   7.499  19.225  0.00  0.00    +0.000 N 
ATOM      5  C   UNL     1       2.165   7.099  20.625  0.00  0.00    +0.000 C 
ATOM      6  C   UNL     1       1.514   5.719  20.708  0.00  0.00    +0.000 C 
ATOM      7  C   UNL     1       2.191   4.728  19.790  0.00  0.00    +0.000 A 
ATOM      8  C   UNL     1       1.993   3.352  19.985  0.00  0.00    +0.000 A 
ATOM      9  C   UNL     1       2.583   2.427  19.122  0.00  0.00    +0.000 A 
ATOM     10  C   UNL     1       3.364   2.874  18.063  0.00  0.00    +0.000 A 
ATOM     11  F   UNL     1       3.930   1.980  17.242  0.00  0.00    +0.000 F 
ATOM     12  C   UNL     1       3.559   4.236  17.856  0.00  0.00    +0.000 A 
ATOM     13  F   UNL     1       4.322   4.646  16.832  0.00  0.00    +0.000 F 
ATOM     14  C   UNL     1       2.968   5.180  18.702  0.00  0.00    +0.000 A 
ATOM     15  C   UNL     1       3.210   6.651  18.451  0.00  0.00    +0.000 C 
ATOM     16  H   UNL     1       0.529   8.923  20.261  0.00  0.00    +0.000 HD
ENDROOT
BRANCH   1  20
ATOM     17  C   UNL     1      -3.130  11.659  17.447  0.00  0.00    +0.000 C 
ATOM     18  N   UNL     1      -1.861  11.310  18.034  0.00  0.00    +0.000 N 
ATOM     19  C   UNL     1      -1.460  10.071  18.423  0.00  0.00    +0.000 A 
ATOM     20  C   UNL     1      -0.157  10.194  18.851  0.00  0.00    +0.000 A 
ATOM     21  C   UNL     1       0.117  11.589  18.716  0.00  0.00    +0.000 A 
ATOM     22  N   UNL     1      -0.929  12.258  18.215  0.00  0.00    +0.000 NA
BRANCH  21  23
ATOM     23  C   UNL     1       1.371  12.391  19.057  0.00  0.00    +0.000 C 
ATOM     24  C   UNL     1       2.483  12.588  18.052  0.00  0.00    +0.000 C 
ATOM     25  C   UNL     1       1.637  13.750  18.450  0.00  0.00    +0.000 C 
ENDBRANCH  21  23
ENDBRANCH   1  20
TORSDOF 2
ENDMDL
MODEL 5
REMARK VINA RESULT:      -7.3      3.937      7.983
REMARK  Name = 
REMARK  3 active torsions:
REMARK  status: ('A' for Active; 'I' for Inactive)
REMARK    1  A    between atoms: C_1  and  N_2
REMARK    2  A    between atoms: C_4  and  N_5
REMARK    3  A    between atoms: C_20  and  C_21
REMARK                            x       y       z     vdW  Elec       q    Type
REMARK                         _______ _______ _______ _____ _____    ______ ____
ROOT
ATOM      1  N   UNL     1       1.898   7.377  19.469  0.00  0.00    +0.000 N 
ATOM      2  C   UNL     1       1.541   8.370  20.355  0.00  0.00    +0.000 C 
ATOM      3  O   UNL     1       1.560   8.241  21.580  0.00  0.00    +0.000 OA
ATOM      4  N   UNL     1       1.126   9.566  19.775  0.00  0.00    +0.000 N 
ATOM      5  C   UNL     1       1.053   9.895  18.353  0.00  0.00    +0.000 C 
ATOM      6  C   UNL     1      -0.410  10.008  17.923  0.00  0.00    +0.000 C 
ATOM      7  C   UNL     1      -1.197  10.897  18.858  0.00  0.00    +0.000 A 
ATOM      8  C   UNL     1      -2.434  11.418  18.445  0.00  0.00    +0.000 A 
ATOM      9  C   UNL     1      -3.188  12.209  19.312  0.00  0.00    +0.000 A 
ATOM     10  C   UNL     1      -2.712  12.476  20.591  0.00  0.00    +0.000 A 
ATOM     11  F   UNL     1      -3.441  13.241  21.415  0.00  0.00    +0.000 F 
ATOM     12  C   UNL     1      -1.493  11.957  21.012  0.00  0.00    +0.000 A 
ATOM     13  F   UNL     1      -1.049  12.233  22.248  0.00  0.00    +0.000 F 
ATOM     14  C   UNL     1      -0.726  11.152  20.164  0.00  0.00    +0.000 A 
ATOM     15  C   UNL     1       0.598  10.614  20.654  0.00  0.00    +0.000 C 
ATOM     16  H   UNL     1       1.846   7.552  18.486  0.00  0.00    +0.000 HD
ENDROOT
BRANCH   1  20
ATOM     17  C   UNL     1       2.261   2.957  21.557  0.00  0.00    +0.000 C 
ATOM     18  N   UNL     1       2.477   4.115  20.728  0.00  0.00    +0.000 N 
ATOM     19  C   UNL     1       1.694   5.225  20.664  0.00  0.00    +0.000 A 
ATOM     20  C   UNL     1       2.321   6.100  19.806  0.00  0.00    +0.000 A 
ATOM     21  C   UNL     1       3.474   5.383  19.367  0.00  0.00    +0.000 A 
ATOM     22  N   UNL     1       3.559   4.175  19.938  0.00  0.00    +0.000 NA
BRANCH  21  23
ATOM     23  C   UNL     1       4.568   5.774  18.375  0.00  0.00    +0.000 C 
ATOM     24  C   UNL     1       4.483   5.396  16.913  0.00  0.00    +0.000 C 
ATOM     25  C   UNL     1       4.340   6.825  17.313  0.00  0.00    +0.000 C 
ENDBRANCH  21  23
ENDBRANCH   1  20
TORSDOF 2
ENDMDL
MODEL 6
REMARK VINA RESULT:      -7.2      1.932      3.043
REMARK  Name = 
REMARK  3 active torsions:
REMARK  status: ('A' for Active; 'I' for Inactive)
REMARK    1  A    between atoms: C_1  and  N_2
REMARK    2  A    between atoms: C_4  and  N_5
REMARK    3  A    between atoms: C_20  and  C_21
REMARK                            x       y       z     vdW  Elec       q    Type
REMARK                         _______ _______ _______ _____ _____    ______ ____
ROOT
ATOM      1  N   UNL     1       0.608   9.011  19.258  0.00  0.00    +0.000 N 
ATOM      2  C   UNL     1       1.715   8.883  18.447  0.00  0.00    +0.000 C 
ATOM      3  O   UNL     1       1.932   9.590  17.461  0.00  0.00    +0.000 OA
ATOM      4  N   UNL     1       2.599   7.867  18.799  0.00  0.00    +0.000 N 
ATOM      5  C   UNL     1       2.505   6.949  19.933  0.00  0.00    +0.000 C 
ATOM      6  C   UNL     1       2.204   5.537  19.430  0.00  0.00    +0.000 C 
ATOM      7  C   UNL     1       3.140   5.132  18.316  0.00  0.00    +0.000 A 
ATOM      8  C   UNL     1       3.272   3.776  17.977  0.00  0.00    +0.000 A 
ATOM      9  C   UNL     1       4.105   3.391  16.926  0.00  0.00    +0.000 A 
ATOM     10  C   UNL     1       4.801   4.358  16.209  0.00  0.00    +0.000 A 
ATOM     11  F   UNL     1       5.602   3.980  15.204  0.00  0.00    +0.000 F 
ATOM     12  C   UNL     1       4.669   5.705  16.531  0.00  0.00    +0.000 A 
ATOM     13  F   UNL     1       5.355   6.621  15.831  0.00  0.00    +0.000 F 
ATOM     14  C   UNL     1       3.831   6.113  17.573  0.00  0.00    +0.000 A 
ATOM     15  C   UNL     1       3.722   7.584  17.900  0.00  0.00    +0.000 C 
ATOM     16  H   UNL     1       0.494   8.391  20.035  0.00  0.00    +0.000 HD
ENDROOT
BRANCH   1  20
ATOM     17  C   UNL     1      -3.099  11.618  17.392  0.00  0.00    +0.000 C 
ATOM     18  N   UNL     1      -2.087  11.088  18.269  0.00  0.00    +0.000 N 
ATOM     19  C   UNL     1      -1.275  10.026  18.025  0.00  0.00    +0.000 A 
ATOM     20  C   UNL     1      -0.417   9.929  19.097  0.00  0.00    +0.000 A 
ATOM     21  C   UNL     1      -0.839  10.978  19.968  0.00  0.00    +0.000 A 
ATOM     22  N   UNL     1      -1.857  11.678  19.452  0.00  0.00    +0.000 NA
BRANCH  21  23
ATOM     23  C   UNL     1      -0.327  11.388  21.347  0.00  0.00    +0.000 C 
ATOM     24  C   UNL     1      -1.253  11.479  22.540  0.00  0.00    +0.000 C 
ATOM     25  C   UNL     1      -0.227  10.399  22.486  0.00  0.00    +0.000 C 
ENDBRANCH  21  23
ENDBRANCH   1  20
TORSDOF 2
ENDMDL
MODEL 7
REMARK VINA RESULT:      -7.2      3.044      4.341
REMARK  Name = 
REMARK  3 active torsions:
REMARK  status: ('A' for Active; 'I' for Inactive)
REMARK    1  A    between atoms: C_1  and  N_2
REMARK    2  A    between atoms: C_4  and  N_5
REMARK    3  A    between atoms: C_20  and  C_21
REMARK                            x       y       z     vdW  Elec       q    Type
REMARK                         _______ _______ _______ _____ _____    ______ ____
ROOT
ATOM      1  N   UNL     1       1.085  11.863  20.266  0.00  0.00    +0.000 N 
ATOM      2  C   UNL     1       1.076  10.593  20.800  0.00  0.00    +0.000 C 
ATOM      3  O   UNL     1       1.157  10.352  22.005  0.00  0.00    +0.000 OA
ATOM      4  N   UNL     1       0.987   9.557  19.874  0.00  0.00    +0.000 N 
ATOM      5  C   UNL     1       0.873   9.660  18.420  0.00  0.00    +0.000 C 
ATOM      6  C   UNL     1       2.167   9.176  17.765  0.00  0.00    +0.000 C 
ATOM      7  C   UNL     1       2.598   7.835  18.310  0.00  0.00    +0.000 A 
ATOM      8  C   UNL     1       3.530   7.062  17.598  0.00  0.00    +0.000 A 
ATOM      9  C   UNL     1       3.965   5.838  18.108  0.00  0.00    +0.000 A 
ATOM     10  C   UNL     1       3.475   5.388  19.329  0.00  0.00    +0.000 A 
ATOM     11  F   UNL     1       3.894   4.210  19.810  0.00  0.00    +0.000 F 
ATOM     12  C   UNL     1       2.559   6.150  20.046  0.00  0.00    +0.000 A 
ATOM     13  F   UNL     1       2.095   5.695  21.219  0.00  0.00    +0.000 F 
ATOM     14  C   UNL     1       2.119   7.386  19.559  0.00  0.00    +0.000 A 
ATOM     15  C   UNL     1       1.115   8.181  20.362  0.00  0.00    +0.000 C 
ATOM     16  H   UNL     1       1.027  11.981  19.274  0.00  0.00    +0.000 HD
ENDROOT
BRANCH   1  20
ATOM     17  C   UNL     1       2.818  15.957  22.331  0.00  0.00    +0.000 C 
ATOM     18  N   UNL     1       1.958  14.887  21.894  0.00  0.00    +0.000 N 
ATOM     19  C   UNL     1       2.287  13.872  21.052  0.00  0.00    +0.000 A 
ATOM     20  C   UNL     1       1.188  13.046  20.981  0.00  0.00    +0.000 A 
ATOM     21  C   UNL     1       0.218  13.696  21.802  0.00  0.00    +0.000 A 
ATOM     22  N   UNL     1       0.699  14.816  22.355  0.00  0.00    +0.000 NA
BRANCH  21  23
ATOM     23  C   UNL     1      -1.229  13.319  22.115  0.00  0.00    +0.000 C 
ATOM     24  C   UNL     1      -1.566  12.191  23.064  0.00  0.00    +0.000 C 
ATOM     25  C   UNL     1      -1.850  13.599  23.465  0.00  0.00    +0.000 C 
ENDBRANCH  21  23
ENDBRANCH   1  20
TORSDOF 2
ENDMDL
MODEL 8
REMARK VINA RESULT:      -7.1      1.263      1.651
REMARK  Name = 
REMARK  3 active torsions:
REMARK  status: ('A' for Active; 'I' for Inactive)
REMARK    1  A    between atoms: C_1  and  N_2
REMARK    2  A    between atoms: C_4  and  N_5
REMARK    3  A    between atoms: C_20  and  C_21
REMARK                            x       y       z     vdW  Elec       q    Type
REMARK                         _______ _______ _______ _____ _____    ______ ____
ROOT
ATOM      1  N   UNL     1       0.878   9.495  19.179  0.00  0.00    +0.000 N 
ATOM      2  C   UNL     1       2.023   9.144  18.499  0.00  0.00    +0.000 C 
ATOM      3  O   UNL     1       2.510   9.807  17.581  0.00  0.00    +0.000 OA
ATOM      4  N   UNL     1       2.614   7.950  18.902  0.00  0.00    +0.000 N 
ATOM      5  C   UNL     1       2.182   7.051  19.971  0.00  0.00    +0.000 C 
ATOM      6  C   UNL     1       1.648   5.752  19.369  0.00  0.00    +0.000 C 
ATOM      7  C   UNL     1       2.606   5.174  18.354  0.00  0.00    +0.000 A 
ATOM      8  C   UNL     1       2.483   3.830  17.967  0.00  0.00    +0.000 A 
ATOM      9  C   UNL     1       3.338   3.293  17.004  0.00  0.00    +0.000 A 
ATOM     10  C   UNL     1       4.311   4.098  16.422  0.00  0.00    +0.000 A 
ATOM     11  F   UNL     1       5.130   3.574  15.501  0.00  0.00    +0.000 F 
ATOM     12  C   UNL     1       4.435   5.433  16.791  0.00  0.00    +0.000 A 
ATOM     13  F   UNL     1       5.385   6.190  16.222  0.00  0.00    +0.000 F 
ATOM     14  C   UNL     1       3.581   5.994  17.747  0.00  0.00    +0.000 A 
ATOM     15  C   UNL     1       3.753   7.446  18.129  0.00  0.00    +0.000 C 
ATOM     16  H   UNL     1       0.535   8.900  19.906  0.00  0.00    +0.000 HD
ENDROOT
BRANCH   1  20
ATOM     17  C   UNL     1      -0.948  14.042  19.318  0.00  0.00    +0.000 C 
ATOM     18  N   UNL     1      -0.706  12.660  18.992  0.00  0.00    +0.000 N 
ATOM     19  C   UNL     1       0.312  11.884  19.449  0.00  0.00    +0.000 A 
ATOM     20  C   UNL     1       0.104  10.621  18.943  0.00  0.00    +0.000 A 
ATOM     21  C   UNL     1      -1.069  10.763  18.142  0.00  0.00    +0.000 A 
ATOM     22  N   UNL     1      -1.554  12.010  18.181  0.00  0.00    +0.000 NA
BRANCH  21  23
ATOM     23  C   UNL     1      -1.807   9.745  17.275  0.00  0.00    +0.000 C 
ATOM     24  C   UNL     1      -3.318   9.680  17.243  0.00  0.00    +0.000 C 
ATOM     25  C   UNL     1      -2.576  10.158  16.041  0.00  0.00    +0.000 C 
ENDBRANCH  21  23
ENDBRANCH   1  20
TORSDOF 2
ENDMDL
MODEL 9
REMARK VINA RESULT:      -7.0      3.768      7.852
REMARK  Name = 
REMARK  3 active torsions:
REMARK  status: ('A' for Active; 'I' for Inactive)
REMARK    1  A    between atoms: C_1  and  N_2
REMARK    2  A    between atoms: C_4  and  N_5
REMARK    3  A    between atoms: C_20  and  C_21
REMARK                            x       y       z     vdW  Elec       q    Type
REMARK                         _______ _______ _______ _____ _____    ______ ____
ROOT
ATOM      1  N   UNL     1       2.264   6.763  18.276  0.00  0.00    +0.000 N 
ATOM      2  C   UNL     1       2.012   7.420  19.461  0.00  0.00    +0.000 C 
ATOM      3  O   UNL     1       1.981   6.867  20.562  0.00  0.00    +0.000 OA
ATOM      4  N   UNL     1       1.765   8.785  19.346  0.00  0.00    +0.000 N 
ATOM      5  C   UNL     1       1.773   9.599  18.132  0.00  0.00    +0.000 C 
ATOM      6  C   UNL     1       0.347  10.040  17.797  0.00  0.00    +0.000 C 
ATOM      7  C   UNL     1      -0.346  10.637  18.999  0.00  0.00    +0.000 A 
ATOM      8  C   UNL     1      -1.497  11.422  18.820  0.00  0.00    +0.000 A 
ATOM      9  C   UNL     1      -2.169  11.948  19.924  0.00  0.00    +0.000 A 
ATOM     10  C   UNL     1      -1.697  11.687  21.205  0.00  0.00    +0.000 A 
ATOM     11  F   UNL     1      -2.346  12.199  22.260  0.00  0.00    +0.000 F 
ATOM     12  C   UNL     1      -0.565  10.902  21.394  0.00  0.00    +0.000 A 
ATOM     13  F   UNL     1      -0.123  10.668  22.639  0.00  0.00    +0.000 F 
ATOM     14  C   UNL     1       0.117  10.356  20.302  0.00  0.00    +0.000 A 
ATOM     15  C   UNL     1       1.350   9.517  20.547  0.00  0.00    +0.000 C 
ATOM     16  H   UNL     1       2.261   7.278  17.418  0.00  0.00    +0.000 HD
ENDROOT
BRANCH   1  20
ATOM     17  C   UNL     1       1.857   1.881  18.424  0.00  0.00    +0.000 C 
ATOM     18  N   UNL     1       2.328   3.222  18.186  0.00  0.00    +0.000 N 
ATOM     19  C   UNL     1       1.657   4.376  18.442  0.00  0.00    +0.000 A 
ATOM     20  C   UNL     1       2.514   5.407  18.134  0.00  0.00    +0.000 A 
ATOM     21  C   UNL     1       3.684   4.747  17.649  0.00  0.00    +0.000 A 
ATOM     22  N   UNL     1       3.558   3.415  17.687  0.00  0.00    +0.000 NA
BRANCH  21  23
ATOM     23  C   UNL     1       4.991   5.318  17.106  0.00  0.00    +0.000 C 
ATOM     24  C   UNL     1       5.285   5.352  15.623  0.00  0.00    +0.000 C 
ATOM     25  C   UNL     1       5.036   6.628  16.353  0.00  0.00    +0.000 C 
ENDBRANCH  21  23
ENDBRANCH   1  20
TORSDOF 2
ENDMDL
