MODEL 1
REMARK VINA RESULT:      -7.2      0.000      0.000
REMARK  Name = 
REMARK  4 active torsions:
REMARK  status: ('A' for Active; 'I' for Inactive)
REMARK    1  A    between atoms: C_1  and  C_2
REMARK    2  A    between atoms: C_5  and  C_6
REMARK    3  A    between atoms: C_12  and  C_14
REMARK    4  A    between atoms: N_18  and  C_19
REMARK                            x       y       z     vdW  Elec       q    Type
REMARK                         _______ _______ _______ _____ _____    ______ ____
ROOT
ATOM      1  C   UNL     1       3.047   6.313  19.178  0.00  0.00    +0.000 C 
ATOM      2  C   UNL     1       3.021   7.299  18.002  0.00  0.00    +0.000 C 
ATOM      3  C   UNL     1       1.868   8.205  18.363  0.00  0.00    +0.000 C 
ATOM      4  C   UNL     1       1.945   9.635  17.885  0.00  0.00    +0.000 C 
ATOM      5  C   UNL     1       0.782  10.430  18.478  0.00  0.00    +0.000 C 
ATOM      6  N   UNL     1       0.671  10.284  19.939  0.00  0.00    +0.000 N 
ATOM      7  C   UNL     1       0.549  11.342  20.853  0.00  0.00    +0.000 C 
ATOM      8  O   UNL     1       0.592  11.120  22.063  0.00  0.00    +0.000 OA
ATOM      9  C   UNL     1       0.700   8.892  20.456  0.00  0.00    +0.000 C 
ATOM     10  C   UNL     1       1.910   8.158  19.878  0.00  0.00    +0.000 C 
ATOM     11  O   UNL     1       2.031   6.754  20.126  0.00  0.00    +0.000 OA
ENDROOT
BRANCH   1  16
ATOM     12  C   UNL     1       3.464   1.499  18.249  0.00  0.00    +0.000 C 
ATOM     13  C   UNL     1       2.969   2.888  18.257  0.00  0.00    +0.000 A 
ATOM     14  N   UNL     1       1.980   3.321  17.464  0.00  0.00    +0.000 NA
ATOM     15  O   UNL     1       1.869   4.676  17.799  0.00  0.00    +0.000 OA
ATOM     16  C   UNL     1       2.817   4.912  18.755  0.00  0.00    +0.000 A 
ATOM     17  N   UNL     1       3.518   3.842  19.067  0.00  0.00    +0.000 NA
ENDBRANCH   1  16
BRANCH   7  18
ATOM     18  C   UNL     1       0.424  12.711  20.351  0.00  0.00    +0.000 A 
ATOM     19  C   UNL     1       1.395  13.666  20.065  0.00  0.00    +0.000 A 
ATOM     20  C   UNL     1       0.758  14.880  19.725  0.00  0.00    +0.000 A 
ATOM     21  C   UNL     1      -0.589  14.622  19.670  0.00  0.00    +0.000 A 
ATOM     22  N   UNL     1      -0.780  13.301  19.994  0.00  0.00    +0.000 N 
ATOM     23  C   UNL     1      -2.077  12.656  20.005  0.00  0.00    +0.000 C 
ENDBRANCH   7  18
TORSDOF 2
ENDMDL
MODEL 2
REMARK VINA RESULT:      -7.2      0.658      1.294
REMARK  Name = 
REMARK  4 active torsions:
REMARK  status: ('A' for Active; 'I' for Inactive)
REMARK    1  A    between atoms: C_1  and  C_2
REMARK    2  A    between atoms: C_5  and  C_6
REMARK    3  A    between atoms: C_12  and  C_14
REMARK    4  A    between atoms: N_18  and  C_19
REMARK                            x       y       z     vdW  Elec       q    Type
REMARK                         _______ _______ _______ _____ _____    ______ ____
ROOT
ATOM      1  C   UNL     1       2.989   6.458  19.183  0.00  0.00    +0.000 C 
ATOM      2  C   UNL     1       2.968   7.441  18.004  0.00  0.00    +0.000 C 
ATOM      3  C   UNL     1       1.809   8.343  18.356  0.00  0.00    +0.000 C 
ATOM      4  C   UNL     1       1.883   9.772  17.874  0.00  0.00    +0.000 C 
ATOM      5  C   UNL     1       0.713  10.564  18.458  0.00  0.00    +0.000 C 
ATOM      6  N   UNL     1       0.592  10.421  19.918  0.00  0.00    +0.000 N 
ATOM      7  C   UNL     1       0.459  11.481  20.828  0.00  0.00    +0.000 C 
ATOM      8  O   UNL     1       0.494  11.262  22.039  0.00  0.00    +0.000 OA
ATOM      9  C   UNL     1       0.623   9.030  20.438  0.00  0.00    +0.000 C 
ATOM     10  C   UNL     1       1.840   8.300  19.870  0.00  0.00    +0.000 C 
ATOM     11  O   UNL     1       1.965   6.897  20.123  0.00  0.00    +0.000 OA
ENDROOT
BRANCH   1  16
ATOM     12  C   UNL     1       3.439   1.647  18.254  0.00  0.00    +0.000 C 
ATOM     13  C   UNL     1       2.933   3.032  18.264  0.00  0.00    +0.000 A 
ATOM     14  N   UNL     1       1.936   3.456  17.477  0.00  0.00    +0.000 NA
ATOM     15  O   UNL     1       1.817   4.811  17.812  0.00  0.00    +0.000 OA
ATOM     16  C   UNL     1       2.768   5.055  18.762  0.00  0.00    +0.000 A 
ATOM     17  N   UNL     1       3.479   3.991  19.071  0.00  0.00    +0.000 NA
ENDBRANCH   1  16
BRANCH   7  18
ATOM     18  C   UNL     1       0.332  12.848  20.322  0.00  0.00    +0.000 A 
ATOM     19  C   UNL     1      -0.786  13.559  19.896  0.00  0.00    +0.000 A 
ATOM     20  C   UNL     1      -0.368  14.805  19.379  0.00  0.00    +0.000 A 
ATOM     21  C   UNL     1       0.980  14.904  19.620  0.00  0.00    +0.000 A 
ATOM     22  N   UNL     1       1.386  13.746  20.236  0.00  0.00    +0.000 N 
ATOM     23  C   UNL     1       2.744  13.505  20.677  0.00  0.00    +0.000 C 
ENDBRANCH   7  18
TORSDOF 2
ENDMDL
MODEL 3
REMARK VINA RESULT:      -7.1      1.597      8.369
REMARK  Name = 
REMARK  4 active torsions:
REMARK  status: ('A' for Active; 'I' for Inactive)
REMARK    1  A    between atoms: C_1  and  C_2
REMARK    2  A    between atoms: C_5  and  C_6
REMARK    3  A    between atoms: C_12  and  C_14
REMARK    4  A    between atoms: N_18  and  C_19
REMARK                            x       y       z     vdW  Elec       q    Type
REMARK                         _______ _______ _______ _____ _____    ______ ____
ROOT
ATOM      1  C   UNL     1      -0.328  10.987  20.309  0.00  0.00    +0.000 C 
ATOM      2  C   UNL     1       0.191  10.790  18.878  0.00  0.00    +0.000 C 
ATOM      3  C   UNL     1       1.282   9.764  19.067  0.00  0.00    +0.000 C 
ATOM      4  C   UNL     1       1.546   8.824  17.914  0.00  0.00    +0.000 C 
ATOM      5  C   UNL     1       2.560   7.766  18.347  0.00  0.00    +0.000 C 
ATOM      6  N   UNL     1       2.192   7.096  19.605  0.00  0.00    +0.000 N 
ATOM      7  C   UNL     1       2.162   5.707  19.804  0.00  0.00    +0.000 C 
ATOM      8  O   UNL     1       1.718   5.244  20.855  0.00  0.00    +0.000 OA
ATOM      9  C   UNL     1       1.822   7.990  20.732  0.00  0.00    +0.000 C 
ATOM     10  C   UNL     1       0.767   8.990  20.264  0.00  0.00    +0.000 C 
ATOM     11  O   UNL     1       0.393  10.044  21.156  0.00  0.00    +0.000 OA
ENDROOT
BRANCH   1  16
ATOM     12  C   UNL     1       0.508  15.822  20.675  0.00  0.00    +0.000 C 
ATOM     13  C   UNL     1       0.262  14.411  21.026  0.00  0.00    +0.000 A 
ATOM     14  N   UNL     1       0.351  13.937  22.275  0.00  0.00    +0.000 NA
ATOM     15  O   UNL     1       0.060  12.576  22.124  0.00  0.00    +0.000 OA
ATOM     16  C   UNL     1      -0.163  12.378  20.790  0.00  0.00    +0.000 A 
ATOM     17  N   UNL     1      -0.049  13.478  20.076  0.00  0.00    +0.000 NA
ENDBRANCH   1  16
BRANCH   7  18
ATOM     18  C   UNL     1       2.615   4.819  18.733  0.00  0.00    +0.000 A 
ATOM     19  C   UNL     1       1.902   4.172  17.727  0.00  0.00    +0.000 A 
ATOM     20  C   UNL     1       2.780   3.324  17.016  0.00  0.00    +0.000 A 
ATOM     21  C   UNL     1       4.043   3.564  17.498  0.00  0.00    +0.000 A 
ATOM     22  N   UNL     1       3.945   4.504  18.494  0.00  0.00    +0.000 N 
ATOM     23  C   UNL     1       5.085   5.035  19.213  0.00  0.00    +0.000 C 
ENDBRANCH   7  18
TORSDOF 2
ENDMDL
MODEL 4
REMARK VINA RESULT:      -6.9      1.705      8.433
REMARK  Name = 
REMARK  4 active torsions:
REMARK  status: ('A' for Active; 'I' for Inactive)
REMARK    1  A    between atoms: C_1  and  C_2
REMARK    2  A    between atoms: C_5  and  C_6
REMARK    3  A    between atoms: C_12  and  C_14
REMARK    4  A    between atoms: N_18  and  C_19
REMARK                            x       y       z     vdW  Elec       q    Type
REMARK                         _______ _______ _______ _____ _____    ______ ____
ROOT
ATOM      1  C   UNL     1       0.694  10.551  19.442  0.00  0.00    +0.000 C 
ATOM      2  C   UNL     1       1.456  10.089  18.192  0.00  0.00    +0.000 C 
ATOM      3  C   UNL     1       2.201   8.876  18.697  0.00  0.00    +0.000 C 
ATOM      4  C   UNL     1       2.483   7.781  17.696  0.00  0.00    +0.000 C 
ATOM      5  C   UNL     1       3.093   6.581  18.419  0.00  0.00    +0.000 C 
ATOM      6  N   UNL     1       2.305   6.150  19.585  0.00  0.00    +0.000 N 
ATOM      7  C   UNL     1       1.901   4.831  19.848  0.00  0.00    +0.000 C 
ATOM      8  O   UNL     1       1.137   4.595  20.784  0.00  0.00    +0.000 OA
ATOM      9  C   UNL     1       1.918   7.221  20.538  0.00  0.00    +0.000 C 
ATOM     10  C   UNL     1       1.263   8.370  19.774  0.00  0.00    +0.000 C 
ATOM     11  O   UNL     1       0.961   9.572  20.490  0.00  0.00    +0.000 OA
ENDROOT
BRANCH   1  16
ATOM     12  C   UNL     1       2.050  15.278  19.602  0.00  0.00    +0.000 C 
ATOM     13  C   UNL     1       1.730  13.896  20.006  0.00  0.00    +0.000 A 
ATOM     14  N   UNL     1       1.984  13.410  21.228  0.00  0.00    +0.000 NA
ATOM     15  O   UNL     1       1.540  12.085  21.145  0.00  0.00    +0.000 OA
ATOM     16  C   UNL     1       1.074  11.917  19.871  0.00  0.00    +0.000 A 
ATOM     17  N   UNL     1       1.172  13.003  19.135  0.00  0.00    +0.000 NA
ENDBRANCH   1  16
BRANCH   7  18
ATOM     18  C   UNL     1       2.356   3.753  18.969  0.00  0.00    +0.000 A 
ATOM     19  C   UNL     1       2.114   3.519  17.619  0.00  0.00    +0.000 A 
ATOM     20  C   UNL     1       2.674   2.273  17.262  0.00  0.00    +0.000 A 
ATOM     21  C   UNL     1       3.373   1.823  18.354  0.00  0.00    +0.000 A 
ATOM     22  N   UNL     1       3.223   2.744  19.362  0.00  0.00    +0.000 N 
ATOM     23  C   UNL     1       3.852   2.623  20.660  0.00  0.00    +0.000 C 
ENDBRANCH   7  18
TORSDOF 2
ENDMDL
MODEL 5
REMARK VINA RESULT:      -6.8      0.963      1.081
REMARK  Name = 
REMARK  4 active torsions:
REMARK  status: ('A' for Active; 'I' for Inactive)
REMARK    1  A    between atoms: C_1  and  C_2
REMARK    2  A    between atoms: C_5  and  C_6
REMARK    3  A    between atoms: C_12  and  C_14
REMARK    4  A    between atoms: N_18  and  C_19
REMARK                            x       y       z     vdW  Elec       q    Type
REMARK                         _______ _______ _______ _____ _____    ______ ____
ROOT
ATOM      1  C   UNL     1       2.967   6.234  19.471  0.00  0.00    +0.000 C 
ATOM      2  C   UNL     1       2.982   7.102  18.206  0.00  0.00    +0.000 C 
ATOM      3  C   UNL     1       1.872   8.089  18.477  0.00  0.00    +0.000 C 
ATOM      4  C   UNL     1       2.011   9.462  17.863  0.00  0.00    +0.000 C 
ATOM      5  C   UNL     1       0.887  10.361  18.375  0.00  0.00    +0.000 C 
ATOM      6  N   UNL     1       0.774  10.361  19.843  0.00  0.00    +0.000 N 
ATOM      7  C   UNL     1       0.702  11.508  20.650  0.00  0.00    +0.000 C 
ATOM      8  O   UNL     1       0.737  11.402  21.876  0.00  0.00    +0.000 OA
ATOM      9  C   UNL     1       0.742   9.026  20.491  0.00  0.00    +0.000 C 
ATOM     10  C   UNL     1       1.916   8.187  19.988  0.00  0.00    +0.000 C 
ATOM     11  O   UNL     1       1.974   6.809  20.371  0.00  0.00    +0.000 OA
ENDROOT
BRANCH   1  16
ATOM     12  C   UNL     1       0.784   1.886  18.733  0.00  0.00    +0.000 C 
ATOM     13  C   UNL     1       1.814   2.920  18.944  0.00  0.00    +0.000 A 
ATOM     14  N   UNL     1       3.103   2.639  19.171  0.00  0.00    +0.000 NA
ATOM     15  O   UNL     1       3.685   3.903  19.326  0.00  0.00    +0.000 OA
ATOM     16  C   UNL     1       2.673   4.810  19.185  0.00  0.00    +0.000 A 
ATOM     17  N   UNL     1       1.505   4.252  18.950  0.00  0.00    +0.000 NA
ENDBRANCH   1  16
BRANCH   7  18
ATOM     18  C   UNL     1       0.637  12.826  20.018  0.00  0.00    +0.000 A 
ATOM     19  C   UNL     1       1.650  13.688  19.608  0.00  0.00    +0.000 A 
ATOM     20  C   UNL     1       1.071  14.900  19.170  0.00  0.00    +0.000 A 
ATOM     21  C   UNL     1      -0.290  14.719  19.182  0.00  0.00    +0.000 A 
ATOM     22  N   UNL     1      -0.544  13.450  19.642  0.00  0.00    +0.000 N 
ATOM     23  C   UNL     1      -1.874  12.889  19.757  0.00  0.00    +0.000 C 
ENDBRANCH   7  18
TORSDOF 2
ENDMDL
MODEL 6
REMARK VINA RESULT:      -6.8      1.243      1.724
REMARK  Name = 
REMARK  4 active torsions:
REMARK  status: ('A' for Active; 'I' for Inactive)
REMARK    1  A    between atoms: C_1  and  C_2
REMARK    2  A    between atoms: C_5  and  C_6
REMARK    3  A    between atoms: C_12  and  C_14
REMARK    4  A    between atoms: N_18  and  C_19
REMARK                            x       y       z     vdW  Elec       q    Type
REMARK                         _______ _______ _______ _____ _____    ______ ____
ROOT
ATOM      1  C   UNL     1       2.467   6.583  19.956  0.00  0.00    +0.000 C 
ATOM      2  C   UNL     1       2.586   7.381  18.650  0.00  0.00    +0.000 C 
ATOM      3  C   UNL     1       1.497   8.416  18.803  0.00  0.00    +0.000 C 
ATOM      4  C   UNL     1       1.720   9.749  18.128  0.00  0.00    +0.000 C 
ATOM      5  C   UNL     1       0.599  10.710  18.525  0.00  0.00    +0.000 C 
ATOM      6  N   UNL     1       0.400  10.792  19.981  0.00  0.00    +0.000 N 
ATOM      7  C   UNL     1       0.321  11.982  20.723  0.00  0.00    +0.000 C 
ATOM      8  O   UNL     1       0.281  11.940  21.952  0.00  0.00    +0.000 OA
ATOM      9  C   UNL     1       0.284   9.495  20.695  0.00  0.00    +0.000 C 
ATOM     10  C   UNL     1       1.456   8.593  20.307  0.00  0.00    +0.000 C 
ATOM     11  O   UNL     1       1.444   7.237  20.763  0.00  0.00    +0.000 OA
ENDROOT
BRANCH   1  16
ATOM     12  C   UNL     1       2.072   2.034  18.124  0.00  0.00    +0.000 C 
ATOM     13  C   UNL     1       1.866   3.232  18.958  0.00  0.00    +0.000 A 
ATOM     14  N   UNL     1       0.878   3.344  19.854  0.00  0.00    +0.000 NA
ATOM     15  O   UNL     1       1.062   4.629  20.377  0.00  0.00    +0.000 OA
ATOM     16  C   UNL     1       2.142   5.156  19.726  0.00  0.00    +0.000 A 
ATOM     17  N   UNL     1       2.668   4.334  18.843  0.00  0.00    +0.000 NA
ENDBRANCH   1  16
BRANCH   7  18
ATOM     18  C   UNL     1       0.338  13.266  20.021  0.00  0.00    +0.000 A 
ATOM     19  C   UNL     1      -0.701  14.027  19.495  0.00  0.00    +0.000 A 
ATOM     20  C   UNL     1      -0.154  15.129  18.800  0.00  0.00    +0.000 A 
ATOM     21  C   UNL     1       1.200  15.111  19.025  0.00  0.00    +0.000 A 
ATOM     22  N   UNL     1       1.485  14.017  19.805  0.00  0.00    +0.000 N 
ATOM     23  C   UNL     1       2.814  13.693  20.278  0.00  0.00    +0.000 C 
ENDBRANCH   7  18
TORSDOF 2
ENDMDL
MODEL 7
REMARK VINA RESULT:      -6.7      1.659      2.212
REMARK  Name = 
REMARK  4 active torsions:
REMARK  status: ('A' for Active; 'I' for Inactive)
REMARK    1  A    between atoms: C_1  and  C_2
REMARK    2  A    between atoms: C_5  and  C_6
REMARK    3  A    between atoms: C_12  and  C_14
REMARK    4  A    between atoms: N_18  and  C_19
REMARK                            x       y       z     vdW  Elec       q    Type
REMARK                         _______ _______ _______ _____ _____    ______ ____
ROOT
ATOM      1  C   UNL     1       2.874   7.397  18.839  0.00  0.00    +0.000 C 
ATOM      2  C   UNL     1       2.157   8.455  17.989  0.00  0.00    +0.000 C 
ATOM      3  C   UNL     1       0.944   8.778  18.828  0.00  0.00    +0.000 C 
ATOM      4  C   UNL     1       0.390  10.179  18.720  0.00  0.00    +0.000 C 
ATOM      5  C   UNL     1      -0.723  10.363  19.751  0.00  0.00    +0.000 C 
ATOM      6  N   UNL     1      -0.317   9.974  21.112  0.00  0.00    +0.000 N 
ATOM      7  C   UNL     1      -0.491  10.756  22.264  0.00  0.00    +0.000 C 
ATOM      8  O   UNL     1      -0.002  10.395  23.334  0.00  0.00    +0.000 OA
ATOM      9  C   UNL     1       0.330   8.643  21.240  0.00  0.00    +0.000 C 
ATOM     10  C   UNL     1       1.469   8.531  20.228  0.00  0.00    +0.000 C 
ATOM     11  O   UNL     1       2.119   7.265  20.080  0.00  0.00    +0.000 OA
ENDROOT
BRANCH   1  16
ATOM     12  C   UNL     1       2.495   2.689  17.460  0.00  0.00    +0.000 C 
ATOM     13  C   UNL     1       2.947   4.089  17.560  0.00  0.00    +0.000 A 
ATOM     14  N   UNL     1       4.054   4.548  16.963  0.00  0.00    +0.000 NA
ATOM     15  O   UNL     1       4.090   5.894  17.346  0.00  0.00    +0.000 OA
ATOM     16  C   UNL     1       3.000   6.095  18.144  0.00  0.00    +0.000 A 
ATOM     17  N   UNL     1       2.269   5.012  18.306  0.00  0.00    +0.000 NA
ENDBRANCH   1  16
BRANCH   7  18
ATOM     18  C   UNL     1      -1.212  12.026  22.166  0.00  0.00    +0.000 A 
ATOM     19  C   UNL     1      -2.519  12.357  22.511  0.00  0.00    +0.000 A 
ATOM     20  C   UNL     1      -2.777  13.685  22.104  0.00  0.00    +0.000 A 
ATOM     21  C   UNL     1      -1.591  14.200  21.645  0.00  0.00    +0.000 A 
ATOM     22  N   UNL     1      -0.639  13.214  21.735  0.00  0.00    +0.000 N 
ATOM     23  C   UNL     1       0.750  13.403  21.372  0.00  0.00    +0.000 C 
ENDBRANCH   7  18
TORSDOF 2
ENDMDL
MODEL 8
REMARK VINA RESULT:      -6.7      1.655      8.380
REMARK  Name = 
REMARK  4 active torsions:
REMARK  status: ('A' for Active; 'I' for Inactive)
REMARK    1  A    between atoms: C_1  and  C_2
REMARK    2  A    between atoms: C_5  and  C_6
REMARK    3  A    between atoms: C_12  and  C_14
REMARK    4  A    between atoms: N_18  and  C_19
REMARK                            x       y       z     vdW  Elec       q    Type
REMARK                         _______ _______ _______ _____ _____    ______ ____
ROOT
ATOM      1  C   UNL     1       0.436  10.748  19.669  0.00  0.00    +0.000 C 
ATOM      2  C   UNL     1       0.948  10.296  18.294  0.00  0.00    +0.000 C 
ATOM      3  C   UNL     1       1.862   9.148  18.650  0.00  0.00    +0.000 C 
ATOM      4  C   UNL     1       2.001   8.042  17.632  0.00  0.00    +0.000 C 
ATOM      5  C   UNL     1       2.828   6.905  18.230  0.00  0.00    +0.000 C 
ATOM      6  N   UNL     1       2.333   6.462  19.543  0.00  0.00    +0.000 N 
ATOM      7  C   UNL     1       2.082   5.129  19.908  0.00  0.00    +0.000 C 
ATOM      8  O   UNL     1       1.548   4.875  20.988  0.00  0.00    +0.000 OA
ATOM      9  C   UNL     1       2.082   7.535  20.538  0.00  0.00    +0.000 C 
ATOM     10  C   UNL     1       1.207   8.618  19.910  0.00  0.00    +0.000 C 
ATOM     11  O   UNL     1       0.982   9.821  20.653  0.00  0.00    +0.000 OA
ENDROOT
BRANCH   1  16
ATOM     12  C   UNL     1       1.829  14.909  21.895  0.00  0.00    +0.000 C 
ATOM     13  C   UNL     1       1.307  13.962  20.893  0.00  0.00    +0.000 A 
ATOM     14  N   UNL     1       0.695  14.347  19.766  0.00  0.00    +0.000 NA
ATOM     15  O   UNL     1       0.362  13.134  19.150  0.00  0.00    +0.000 OA
ATOM     16  C   UNL     1       0.805  12.147  19.985  0.00  0.00    +0.000 A 
ATOM     17  N   UNL     1       1.391  12.609  21.070  0.00  0.00    +0.000 NA
ENDBRANCH   1  16
BRANCH   7  18
ATOM     18  C   UNL     1       2.414   4.055  18.971  0.00  0.00    +0.000 A 
ATOM     19  C   UNL     1       1.610   3.341  18.087  0.00  0.00    +0.000 A 
ATOM     20  C   UNL     1       2.382   2.318  17.492  0.00  0.00    +0.000 A 
ATOM     21  C   UNL     1       3.677   2.502  17.907  0.00  0.00    +0.000 A 
ATOM     22  N   UNL     1       3.700   3.582  18.755  0.00  0.00    +0.000 N 
ATOM     23  C   UNL     1       4.908   4.099  19.364  0.00  0.00    +0.000 C 
ENDBRANCH   7  18
TORSDOF 2
ENDMDL
MODEL 9
REMARK VINA RESULT:      -6.7      1.142      1.170
REMARK  Name = 
REMARK  4 active torsions:
REMARK  status: ('A' for Active; 'I' for Inactive)
REMARK    1  A    between atoms: C_1  and  C_2
REMARK    2  A    between atoms: C_5  and  C_6
REMARK    3  A    between atoms: C_12  and  C_14
REMARK    4  A    between atoms: N_18  and  C_19
REMARK                            x       y       z     vdW  Elec       q    Type
REMARK                         _______ _______ _______ _____ _____    ______ ____
ROOT
ATOM      1  C   UNL     1       2.704   6.447  19.549  0.00  0.00    +0.000 C 
ATOM      2  C   UNL     1       2.603   7.596  18.536  0.00  0.00    +0.000 C 
ATOM      3  C   UNL     1       1.402   8.364  19.034  0.00  0.00    +0.000 C 
ATOM      4  C   UNL     1       1.386   9.852  18.778  0.00  0.00    +0.000 C 
ATOM      5  C   UNL     1       0.184  10.474  19.489  0.00  0.00    +0.000 C 
ATOM      6  N   UNL     1       0.100  10.102  20.910  0.00  0.00    +0.000 N 
ATOM      7  C   UNL     1      -0.075  11.001  21.975  0.00  0.00    +0.000 C 
ATOM      8  O   UNL     1      -0.004  10.601  23.137  0.00  0.00    +0.000 OA
ATOM      9  C   UNL     1       0.220   8.652  21.210  0.00  0.00    +0.000 C 
ATOM     10  C   UNL     1       1.465   8.091  20.524  0.00  0.00    +0.000 C 
ATOM     11  O   UNL     1       1.674   6.676  20.556  0.00  0.00    +0.000 OA
ENDROOT
BRANCH   1  16
ATOM     12  C   UNL     1       3.316   1.797  18.061  0.00  0.00    +0.000 C 
ATOM     13  C   UNL     1       2.803   3.174  18.185  0.00  0.00    +0.000 A 
ATOM     14  N   UNL     1       1.921   3.709  17.330  0.00  0.00    +0.000 NA
ATOM     15  O   UNL     1       1.746   5.008  17.822  0.00  0.00    +0.000 OA
ATOM     16  C   UNL     1       2.554   5.115  18.919  0.00  0.00    +0.000 A 
ATOM     17  N   UNL     1       3.224   4.012  19.179  0.00  0.00    +0.000 NA
ENDBRANCH   1  16
BRANCH   7  18
ATOM     18  C   UNL     1      -0.289  12.419  21.687  0.00  0.00    +0.000 A 
ATOM     19  C   UNL     1       0.599  13.405  21.268  0.00  0.00    +0.000 A 
ATOM     20  C   UNL     1      -0.071  14.649  21.253  0.00  0.00    +0.000 A 
ATOM     21  C   UNL     1      -1.392  14.394  21.524  0.00  0.00    +0.000 A 
ATOM     22  N   UNL     1      -1.528  13.043  21.731  0.00  0.00    +0.000 N 
ATOM     23  C   UNL     1      -2.794  12.396  22.007  0.00  0.00    +0.000 C 
ENDBRANCH   7  18
TORSDOF 2
ENDMDL
