MODEL 1
REMARK VINA RESULT:      -6.2      0.000      0.000
REMARK  Name = 
REMARK  1 active torsions:
REMARK  status: ('A' for Active; 'I' for Inactive)
REMARK    1  A    between atoms: C_1  and  C_2
REMARK                            x       y       z     vdW  Elec       q    Type
REMARK                         _______ _______ _______ _____ _____    ______ ____
ROOT
ATOM      1  C   UNL     1       1.864   2.855  21.579  0.00  0.00    +0.000 C 
ATOM      2  C   UNL     1       3.046   3.080  20.714  0.00  0.00    +0.000 A 
ATOM      3  N   UNL     1       4.018   2.158  20.631  0.00  0.00    +0.000 NA
ATOM      4  O   UNL     1       4.952   2.664  19.732  0.00  0.00    +0.000 OA
ATOM      5  C   UNL     1       4.519   3.868  19.297  0.00  0.00    +0.000 A 
ATOM      6  C   UNL     1       3.330   4.186  19.887  0.00  0.00    +0.000 A 
ATOM      7  C   UNL     1       2.645   5.417  19.608  0.00  0.00    +0.000 C 
ATOM      8  O   UNL     1       1.611   5.740  20.173  0.00  0.00    +0.000 OA
ATOM      9  C   UNL     1       3.328   6.258  18.554  0.00  0.00    +0.000 C 
ATOM     10 CL   UNL     1       2.469   7.710  18.129  0.00  0.00    +0.000 Cl
ATOM     11  C   UNL     1       4.500   5.924  17.972  0.00  0.00    +0.000 C 
ATOM     12 CL   UNL     1       5.257   6.895  16.753  0.00  0.00    +0.000 Cl
ATOM     13  C   UNL     1       5.231   4.657  18.344  0.00  0.00    +0.000 C 
ATOM     14  O   UNL     1       6.315   4.362  17.858  0.00  0.00    +0.000 OA
ENDROOT
TORSDOF 0
ENDMDL
MODEL 2
REMARK VINA RESULT:      -6.1      1.476      1.476
REMARK  Name = 
REMARK  1 active torsions:
REMARK  status: ('A' for Active; 'I' for Inactive)
REMARK    1  A    between atoms: C_1  and  C_2
REMARK                            x       y       z     vdW  Elec       q    Type
REMARK                         _______ _______ _______ _____ _____    ______ ____
ROOT
ATOM      1  C   UNL     1       1.155   2.905  20.442  0.00  0.00    +0.000 C 
ATOM      2  C   UNL     1       2.195   2.910  19.387  0.00  0.00    +0.000 A 
ATOM      3  N   UNL     1       2.685   1.757  18.903  0.00  0.00    +0.000 NA
ATOM      4  O   UNL     1       3.612   2.113  17.929  0.00  0.00    +0.000 OA
ATOM      5  C   UNL     1       3.654   3.461  17.848  0.00  0.00    +0.000 A 
ATOM      6  C   UNL     1       2.790   4.017  18.748  0.00  0.00    +0.000 A 
ATOM      7  C   UNL     1       2.637   5.439  18.879  0.00  0.00    +0.000 C 
ATOM      8  O   UNL     1       1.912   5.949  19.719  0.00  0.00    +0.000 OA
ATOM      9  C   UNL     1       3.453   6.225  17.880  0.00  0.00    +0.000 C 
ATOM     10 CL   UNL     1       3.212   7.947  17.955  0.00  0.00    +0.000 Cl
ATOM     11  C   UNL     1       4.295   5.659  16.989  0.00  0.00    +0.000 C 
ATOM     12 CL   UNL     1       5.209   6.580  15.839  0.00  0.00    +0.000 Cl
ATOM     13  C   UNL     1       4.489   4.164  16.928  0.00  0.00    +0.000 C 
ATOM     14  O   UNL     1       5.281   3.638  16.156  0.00  0.00    +0.000 OA
ENDROOT
TORSDOF 0
ENDMDL
MODEL 3
REMARK VINA RESULT:      -6.1      2.657      4.043
REMARK  Name = 
REMARK  1 active torsions:
REMARK  status: ('A' for Active; 'I' for Inactive)
REMARK    1  A    between atoms: C_1  and  C_2
REMARK                            x       y       z     vdW  Elec       q    Type
REMARK                         _______ _______ _______ _____ _____    ______ ____
ROOT
ATOM      1  C   UNL     1       5.122   6.549  16.105  0.00  0.00    +0.000 C 
ATOM      2  C   UNL     1       4.635   5.286  16.709  0.00  0.00    +0.000 A 
ATOM      3  N   UNL     1       5.058   4.099  16.247  0.00  0.00    +0.000 NA
ATOM      4  O   UNL     1       4.437   3.136  17.035  0.00  0.00    +0.000 OA
ATOM      5  C   UNL     1       3.663   3.763  17.948  0.00  0.00    +0.000 A 
ATOM      6  C   UNL     1       3.741   5.117  17.786  0.00  0.00    +0.000 A 
ATOM      7  C   UNL     1       3.012   6.029  18.623  0.00  0.00    +0.000 C 
ATOM      8  O   UNL     1       3.028   7.238  18.452  0.00  0.00    +0.000 OA
ATOM      9  C   UNL     1       2.238   5.343  19.725  0.00  0.00    +0.000 C 
ATOM     10 CL   UNL     1       1.423   6.431  20.811  0.00  0.00    +0.000 Cl
ATOM     11  C   UNL     1       2.180   4.003  19.878  0.00  0.00    +0.000 C 
ATOM     12 CL   UNL     1       1.300   3.238  21.160  0.00  0.00    +0.000 Cl
ATOM     13  C   UNL     1       2.898   3.070  18.934  0.00  0.00    +0.000 C 
ATOM     14  O   UNL     1       2.819   1.852  19.032  0.00  0.00    +0.000 OA
ENDROOT
TORSDOF 0
ENDMDL
MODEL 4
REMARK VINA RESULT:      -6.0      3.120      4.981
REMARK  Name = 
REMARK  1 active torsions:
REMARK  status: ('A' for Active; 'I' for Inactive)
REMARK    1  A    between atoms: C_1  and  C_2
REMARK                            x       y       z     vdW  Elec       q    Type
REMARK                         _______ _______ _______ _____ _____    ______ ____
ROOT
ATOM      1  C   UNL     1       5.033   6.636  16.045  0.00  0.00    +0.000 C 
ATOM      2  C   UNL     1       4.133   6.522  17.217  0.00  0.00    +0.000 A 
ATOM      3  N   UNL     1       3.565   7.614  17.752  0.00  0.00    +0.000 NA
ATOM      4  O   UNL     1       2.776   7.159  18.805  0.00  0.00    +0.000 OA
ATOM      5  C   UNL     1       2.886   5.815  18.873  0.00  0.00    +0.000 A 
ATOM      6  C   UNL     1       3.734   5.358  17.905  0.00  0.00    +0.000 A 
ATOM      7  C   UNL     1       4.036   3.962  17.752  0.00  0.00    +0.000 C 
ATOM      8  O   UNL     1       4.837   3.547  16.928  0.00  0.00    +0.000 OA
ATOM      9  C   UNL     1       3.268   3.074  18.703  0.00  0.00    +0.000 C 
ATOM     10 CL   UNL     1       3.545   1.372  18.476  0.00  0.00    +0.000 Cl
ATOM     11  C   UNL     1       2.425   3.542  19.649  0.00  0.00    +0.000 C 
ATOM     12 CL   UNL     1       1.540   2.504  20.719  0.00  0.00    +0.000 Cl
ATOM     13  C   UNL     1       2.187   5.020  19.831  0.00  0.00    +0.000 C 
ATOM     14  O   UNL     1       1.460   5.462  20.713  0.00  0.00    +0.000 OA
ENDROOT
TORSDOF 0
ENDMDL
MODEL 5
REMARK VINA RESULT:      -6.0      2.588      3.923
REMARK  Name = 
REMARK  1 active torsions:
REMARK  status: ('A' for Active; 'I' for Inactive)
REMARK    1  A    between atoms: C_1  and  C_2
REMARK                            x       y       z     vdW  Elec       q    Type
REMARK                         _______ _______ _______ _____ _____    ______ ____
ROOT
ATOM      1  C   UNL     1       5.014   6.803  16.704  0.00  0.00    +0.000 C 
ATOM      2  C   UNL     1       5.183   5.591  17.539  0.00  0.00    +0.000 A 
ATOM      3  N   UNL     1       6.342   4.913  17.535  0.00  0.00    +0.000 NA
ATOM      4  O   UNL     1       6.175   3.860  18.428  0.00  0.00    +0.000 OA
ATOM      5  C   UNL     1       4.930   3.932  18.947  0.00  0.00    +0.000 A 
ATOM      6  C   UNL     1       4.256   4.996  18.419  0.00  0.00    +0.000 A 
ATOM      7  C   UNL     1       2.904   5.305  18.793  0.00  0.00    +0.000 C 
ATOM      8  O   UNL     1       2.271   6.218  18.285  0.00  0.00    +0.000 OA
ATOM      9  C   UNL     1       2.357   4.396  19.869  0.00  0.00    +0.000 C 
ATOM     10 CL   UNL     1       0.755   4.809  20.408  0.00  0.00    +0.000 Cl
ATOM     11  C   UNL     1       3.041   3.354  20.390  0.00  0.00    +0.000 C 
ATOM     12 CL   UNL     1       2.400   2.335  21.636  0.00  0.00    +0.000 Cl
ATOM     13  C   UNL     1       4.433   3.012  19.919  0.00  0.00    +0.000 C 
ATOM     14  O   UNL     1       5.049   2.045  20.349  0.00  0.00    +0.000 OA
ENDROOT
TORSDOF 0
ENDMDL
MODEL 6
REMARK VINA RESULT:      -5.9      3.067      4.731
REMARK  Name = 
REMARK  1 active torsions:
REMARK  status: ('A' for Active; 'I' for Inactive)
REMARK    1  A    between atoms: C_1  and  C_2
REMARK                            x       y       z     vdW  Elec       q    Type
REMARK                         _______ _______ _______ _____ _____    ______ ____
ROOT
ATOM      1  C   UNL     1       5.762   4.029  15.303  0.00  0.00    +0.000 C 
ATOM      2  C   UNL     1       5.048   4.947  16.220  0.00  0.00    +0.000 A 
ATOM      3  N   UNL     1       5.193   6.277  16.107  0.00  0.00    +0.000 NA
ATOM      4  O   UNL     1       4.383   6.837  17.090  0.00  0.00    +0.000 OA
ATOM      5  C   UNL     1       3.772   5.837  17.763  0.00  0.00    +0.000 A 
ATOM      6  C   UNL     1       4.159   4.625  17.267  0.00  0.00    +0.000 A 
ATOM      7  C   UNL     1       3.665   3.388  17.803  0.00  0.00    +0.000 C 
ATOM      8  O   UNL     1       4.047   2.298  17.406  0.00  0.00    +0.000 OA
ATOM      9  C   UNL     1       2.634   3.575  18.891  0.00  0.00    +0.000 C 
ATOM     10 CL   UNL     1       1.949   2.093  19.492  0.00  0.00    +0.000 Cl
ATOM     11  C   UNL     1       2.254   4.782  19.365  0.00  0.00    +0.000 C 
ATOM     12 CL   UNL     1       1.057   4.975  20.603  0.00  0.00    +0.000 Cl
ATOM     13  C   UNL     1       2.850   6.061  18.830  0.00  0.00    +0.000 C 
ATOM     14  O   UNL     1       2.550   7.160  19.278  0.00  0.00    +0.000 OA
ENDROOT
TORSDOF 0
ENDMDL
MODEL 7
REMARK VINA RESULT:      -5.8      2.621      4.103
REMARK  Name = 
REMARK  1 active torsions:
REMARK  status: ('A' for Active; 'I' for Inactive)
REMARK    1  A    between atoms: C_1  and  C_2
REMARK                            x       y       z     vdW  Elec       q    Type
REMARK                         _______ _______ _______ _____ _____    ______ ____
ROOT
ATOM      1  C   UNL     1       7.331   7.711  17.343  0.00  0.00    +0.000 C 
ATOM      2  C   UNL     1       6.947   6.434  17.991  0.00  0.00    +0.000 A 
ATOM      3  N   UNL     1       7.874   5.653  18.566  0.00  0.00    +0.000 NA
ATOM      4  O   UNL     1       7.187   4.562  19.089  0.00  0.00    +0.000 OA
ATOM      5  C   UNL     1       5.872   4.715  18.820  0.00  0.00    +0.000 A 
ATOM      6  C   UNL     1       5.661   5.870  18.123  0.00  0.00    +0.000 A 
ATOM      7  C   UNL     1       4.351   6.278  17.701  0.00  0.00    +0.000 C 
ATOM      8  O   UNL     1       4.156   7.279  17.028  0.00  0.00    +0.000 OA
ATOM      9  C   UNL     1       3.253   5.354  18.175  0.00  0.00    +0.000 C 
ATOM     10 CL   UNL     1       1.647   5.877  17.759  0.00  0.00    +0.000 Cl
ATOM     11  C   UNL     1       3.477   4.220  18.873  0.00  0.00    +0.000 C 
ATOM     12 CL   UNL     1       2.202   3.183  19.422  0.00  0.00    +0.000 Cl
ATOM     13  C   UNL     1       4.875   3.782  19.236  0.00  0.00    +0.000 C 
ATOM     14  O   UNL     1       5.098   2.734  19.829  0.00  0.00    +0.000 OA
ENDROOT
TORSDOF 0
ENDMDL
MODEL 8
REMARK VINA RESULT:      -5.8      2.472      2.633
REMARK  Name = 
REMARK  1 active torsions:
REMARK  status: ('A' for Active; 'I' for Inactive)
REMARK    1  A    between atoms: C_1  and  C_2
REMARK                            x       y       z     vdW  Elec       q    Type
REMARK                         _______ _______ _______ _____ _____    ______ ____
ROOT
ATOM      1  C   UNL     1       2.652   1.754  18.273  0.00  0.00    +0.000 C 
ATOM      2  C   UNL     1       3.748   2.569  18.846  0.00  0.00    +0.000 A 
ATOM      3  N   UNL     1       4.246   2.289  20.061  0.00  0.00    +0.000 NA
ATOM      4  O   UNL     1       5.259   3.216  20.284  0.00  0.00    +0.000 OA
ATOM      5  C   UNL     1       5.347   4.023  19.204  0.00  0.00    +0.000 A 
ATOM      6  C   UNL     1       4.416   3.670  18.270  0.00  0.00    +0.000 A 
ATOM      7  C   UNL     1       4.285   4.366  17.021  0.00  0.00    +0.000 C 
ATOM      8  O   UNL     1       3.419   4.097  16.203  0.00  0.00    +0.000 OA
ATOM      9  C   UNL     1       5.320   5.450  16.827  0.00  0.00    +0.000 C 
ATOM     10 CL   UNL     1       5.243   6.246  15.282  0.00  0.00    +0.000 Cl
ATOM     11  C   UNL     1       6.242   5.780  17.757  0.00  0.00    +0.000 C 
ATOM     12 CL   UNL     1       7.432   7.016  17.507  0.00  0.00    +0.000 Cl
ATOM     13  C   UNL     1       6.304   5.077  19.090  0.00  0.00    +0.000 C 
ATOM     14  O   UNL     1       7.104   5.394  19.961  0.00  0.00    +0.000 OA
ENDROOT
TORSDOF 0
ENDMDL
MODEL 9
REMARK VINA RESULT:      -5.8      1.879      3.133
REMARK  Name = 
REMARK  1 active torsions:
REMARK  status: ('A' for Active; 'I' for Inactive)
REMARK    1  A    between atoms: C_1  and  C_2
REMARK                            x       y       z     vdW  Elec       q    Type
REMARK                         _______ _______ _______ _____ _____    ______ ____
ROOT
ATOM      1  C   UNL     1       2.170   2.913  21.198  0.00  0.00    +0.000 C 
ATOM      2  C   UNL     1       2.309   4.210  20.495  0.00  0.00    +0.000 A 
ATOM      3  N   UNL     1       1.730   5.318  20.984  0.00  0.00    +0.000 NA
ATOM      4  O   UNL     1       2.069   6.346  20.110  0.00  0.00    +0.000 OA
ATOM      5  C   UNL     1       2.841   5.835  19.126  0.00  0.00    +0.000 A 
ATOM      6  C   UNL     1       3.018   4.494  19.310  0.00  0.00    +0.000 A 
ATOM      7  C   UNL     1       3.796   3.696  18.404  0.00  0.00    +0.000 C 
ATOM      8  O   UNL     1       3.914   2.486  18.526  0.00  0.00    +0.000 OA
ATOM      9  C   UNL     1       4.447   4.500  17.304  0.00  0.00    +0.000 C 
ATOM     10 CL   UNL     1       5.472   3.571  16.248  0.00  0.00    +0.000 Cl
ATOM     11  C   UNL     1       4.270   5.829  17.141  0.00  0.00    +0.000 C 
ATOM     12 CL   UNL     1       5.041   6.735  15.881  0.00  0.00    +0.000 Cl
ATOM     13  C   UNL     1       3.385   6.625  18.068  0.00  0.00    +0.000 C 
ATOM     14  O   UNL     1       3.179   7.821  17.908  0.00  0.00    +0.000 OA
ENDROOT
TORSDOF 0
ENDMDL
