MODEL 1
REMARK VINA RESULT:      -6.7      0.000      0.000
REMARK  Name = 
REMARK  5 active torsions:
REMARK  status: ('A' for Active; 'I' for Inactive)
REMARK    1  A    between atoms: C_1  and  O_2
REMARK    2  A    between atoms: O_2  and  C_3
REMARK    3  A    between atoms: C_8  and  C_9
REMARK    4  A    between atoms: N_14  and  C_15
REMARK    5  A    between atoms: C_15  and  C_16
REMARK                            x       y       z     vdW  Elec       q    Type
REMARK                         _______ _______ _______ _____ _____    ______ ____
ROOT
ATOM      1  C   UNL     1       4.845   5.117  18.907  0.00  0.00    +0.000 C 
ATOM      2  O   UNL     1       5.580   5.706  19.709  0.00  0.00    +0.000 OA
ATOM      3  N   UNL     1       5.201   5.039  17.562  0.00  0.00    +0.000 N 
ATOM      4  C   UNL     1       6.548   5.460  17.159  0.00  0.00    +0.000 C 
ATOM      5  C   UNL     1       7.298   4.315  16.437  0.00  0.00    +0.000 C 
ATOM      6  N   UNL     1       6.555   3.660  15.336  0.00  0.00    +0.000 NA
ATOM      7  C   UNL     1       5.175   3.347  15.788  0.00  0.00    +0.000 C 
ATOM      8  C   UNL     1       4.417   4.521  16.445  0.00  0.00    +0.000 C 
ENDROOT
BRANCH   1  14
ATOM      9  C   UNL     1       3.290   3.220  19.772  0.00  0.00    +0.000 A 
ATOM     10  C   UNL     1       2.113   2.894  20.472  0.00  0.00    +0.000 A 
ATOM     11  C   UNL     1       1.224   3.881  20.896  0.00  0.00    +0.000 A 
ATOM     12  C   UNL     1       1.497   5.213  20.624  0.00  0.00    +0.000 A 
ATOM     13  C   UNL     1       2.657   5.550  19.925  0.00  0.00    +0.000 A 
ATOM     14  C   UNL     1       3.574   4.568  19.484  0.00  0.00    +0.000 A 
BRANCH   9  16
ATOM     15  C   UNL     1       3.766   1.260  18.530  0.00  0.00    +0.000 C 
ATOM     16  O   UNL     1       4.209   2.250  19.462  0.00  0.00    +0.000 OA
ENDBRANCH   9  16
ENDBRANCH   1  14
BRANCH   6  17
ATOM     17  C   UNL     1       6.610   4.457  14.093  0.00  0.00    +0.000 C 
BRANCH  17  18
ATOM     18  C   UNL     1       6.062   3.690  12.919  0.00  0.00    +0.000 A 
ATOM     19  N   UNL     1       4.770   3.882  12.474  0.00  0.00    +0.000 NA
ATOM     20  C   UNL     1       4.630   2.944  11.566  0.00  0.00    +0.000 A 
ATOM     21  N   UNL     1       5.788   2.244  11.453  0.00  0.00    +0.000 N 
ATOM     22  N   UNL     1       6.727   2.714  12.285  0.00  0.00    +0.000 NA
ATOM     23  H   UNL     1       5.999   1.448  10.861  0.00  0.00    +0.000 HD
ENDBRANCH  17  18
ENDBRANCH   6  17
TORSDOF 4
ENDMDL
MODEL 2
REMARK VINA RESULT:      -6.7      2.989      4.644
REMARK  Name = 
REMARK  5 active torsions:
REMARK  status: ('A' for Active; 'I' for Inactive)
REMARK    1  A    between atoms: C_1  and  O_2
REMARK    2  A    between atoms: O_2  and  C_3
REMARK    3  A    between atoms: C_8  and  C_9
REMARK    4  A    between atoms: N_14  and  C_15
REMARK    5  A    between atoms: C_15  and  C_16
REMARK                            x       y       z     vdW  Elec       q    Type
REMARK                         _______ _______ _______ _____ _____    ______ ____
ROOT
ATOM      1  C   UNL     1       3.704   2.859  17.927  0.00  0.00    +0.000 C 
ATOM      2  O   UNL     1       3.382   2.029  17.068  0.00  0.00    +0.000 OA
ATOM      3  N   UNL     1       4.740   3.757  17.675  0.00  0.00    +0.000 N 
ATOM      4  C   UNL     1       5.279   3.854  16.314  0.00  0.00    +0.000 C 
ATOM      5  C   UNL     1       5.175   5.300  15.773  0.00  0.00    +0.000 C 
ATOM      6  N   UNL     1       5.701   6.356  16.669  0.00  0.00    +0.000 NA
ATOM      7  C   UNL     1       5.186   6.139  18.044  0.00  0.00    +0.000 C 
ATOM      8  C   UNL     1       5.360   4.707  18.593  0.00  0.00    +0.000 C 
ENDROOT
BRANCH   1  14
ATOM      9  C   UNL     1       3.478   2.505  20.493  0.00  0.00    +0.000 A 
ATOM     10  C   UNL     1       2.655   2.633  21.629  0.00  0.00    +0.000 A 
ATOM     11  C   UNL     1       1.324   3.032  21.519  0.00  0.00    +0.000 A 
ATOM     12  C   UNL     1       0.792   3.308  20.269  0.00  0.00    +0.000 A 
ATOM     13  C   UNL     1       1.594   3.178  19.134  0.00  0.00    +0.000 A 
ATOM     14  C   UNL     1       2.947   2.775  19.219  0.00  0.00    +0.000 A 
BRANCH   9  16
ATOM     15  C   UNL     1       5.138   0.835  20.754  0.00  0.00    +0.000 C 
ATOM     16  O   UNL     1       4.814   2.222  20.628  0.00  0.00    +0.000 OA
ENDBRANCH   9  16
ENDBRANCH   1  14
BRANCH   6  17
ATOM     17  C   UNL     1       7.173   6.451  16.590  0.00  0.00    +0.000 C 
BRANCH  17  18
ATOM     18  C   UNL     1       7.714   7.475  17.552  0.00  0.00    +0.000 A 
ATOM     19  N   UNL     1       7.671   8.824  17.267  0.00  0.00    +0.000 NA
ATOM     20  C   UNL     1       8.362   9.354  18.249  0.00  0.00    +0.000 A 
ATOM     21  N   UNL     1       8.774   8.376  19.096  0.00  0.00    +0.000 N 
ATOM     22  N   UNL     1       8.354   7.169  18.690  0.00  0.00    +0.000 NA
ATOM     23  H   UNL     1       9.341   8.451  19.933  0.00  0.00    +0.000 HD
ENDBRANCH  17  18
ENDBRANCH   6  17
TORSDOF 4
ENDMDL
MODEL 3
REMARK VINA RESULT:      -6.5      1.013      1.979
REMARK  Name = 
REMARK  5 active torsions:
REMARK  status: ('A' for Active; 'I' for Inactive)
REMARK    1  A    between atoms: C_1  and  O_2
REMARK    2  A    between atoms: O_2  and  C_3
REMARK    3  A    between atoms: C_8  and  C_9
REMARK    4  A    between atoms: N_14  and  C_15
REMARK    5  A    between atoms: C_15  and  C_16
REMARK                            x       y       z     vdW  Elec       q    Type
REMARK                         _______ _______ _______ _____ _____    ______ ____
ROOT
ATOM      1  C   UNL     1       5.043   5.225  19.003  0.00  0.00    +0.000 C 
ATOM      2  O   UNL     1       5.873   5.752  19.754  0.00  0.00    +0.000 OA
ATOM      3  N   UNL     1       5.299   5.132  17.636  0.00  0.00    +0.000 N 
ATOM      4  C   UNL     1       6.643   5.455  17.143  0.00  0.00    +0.000 C 
ATOM      5  C   UNL     1       7.255   4.263  16.368  0.00  0.00    +0.000 C 
ATOM      6  N   UNL     1       6.392   3.673  15.319  0.00  0.00    +0.000 NA
ATOM      7  C   UNL     1       5.028   3.460  15.864  0.00  0.00    +0.000 C 
ATOM      8  C   UNL     1       4.405   4.681  16.575  0.00  0.00    +0.000 C 
ENDROOT
BRANCH   1  14
ATOM      9  C   UNL     1       2.647   5.550  19.959  0.00  0.00    +0.000 A 
ATOM     10  C   UNL     1       1.473   4.927  20.426  0.00  0.00    +0.000 A 
ATOM     11  C   UNL     1       1.404   3.544  20.593  0.00  0.00    +0.000 A 
ATOM     12  C   UNL     1       2.509   2.761  20.299  0.00  0.00    +0.000 A 
ATOM     13  C   UNL     1       3.682   3.366  19.842  0.00  0.00    +0.000 A 
ATOM     14  C   UNL     1       3.777   4.766  19.664  0.00  0.00    +0.000 A 
BRANCH   9  16
ATOM     15  C   UNL     1       2.351   7.258  18.346  0.00  0.00    +0.000 C 
ATOM     16  O   UNL     1       2.663   6.896  19.693  0.00  0.00    +0.000 OA
ENDBRANCH   9  16
ENDBRANCH   1  14
BRANCH   6  17
ATOM     17  C   UNL     1       6.421   4.474  14.077  0.00  0.00    +0.000 C 
BRANCH  17  18
ATOM     18  C   UNL     1       5.990   3.662  12.885  0.00  0.00    +0.000 A 
ATOM     19  N   UNL     1       4.719   3.771  12.361  0.00  0.00    +0.000 NA
ATOM     20  C   UNL     1       4.688   2.815  11.461  0.00  0.00    +0.000 A 
ATOM     21  N   UNL     1       5.889   2.183  11.428  0.00  0.00    +0.000 N 
ATOM     22  N   UNL     1       6.748   2.718  12.307  0.00  0.00    +0.000 NA
ATOM     23  H   UNL     1       6.181   1.394  10.863  0.00  0.00    +0.000 HD
ENDBRANCH  17  18
ENDBRANCH   6  17
TORSDOF 4
ENDMDL
MODEL 4
REMARK VINA RESULT:      -6.5      2.946      4.717
REMARK  Name = 
REMARK  5 active torsions:
REMARK  status: ('A' for Active; 'I' for Inactive)
REMARK    1  A    between atoms: C_1  and  O_2
REMARK    2  A    between atoms: O_2  and  C_3
REMARK    3  A    between atoms: C_8  and  C_9
REMARK    4  A    between atoms: N_14  and  C_15
REMARK    5  A    between atoms: C_15  and  C_16
REMARK                            x       y       z     vdW  Elec       q    Type
REMARK                         _______ _______ _______ _____ _____    ______ ____
ROOT
ATOM      1  C   UNL     1       3.765   2.796  18.133  0.00  0.00    +0.000 C 
ATOM      2  O   UNL     1       3.558   1.799  17.430  0.00  0.00    +0.000 OA
ATOM      3  N   UNL     1       4.811   3.663  17.823  0.00  0.00    +0.000 N 
ATOM      4  C   UNL     1       5.507   3.504  16.541  0.00  0.00    +0.000 C 
ATOM      5  C   UNL     1       5.448   4.808  15.709  0.00  0.00    +0.000 C 
ATOM      6  N   UNL     1       5.850   6.041  16.425  0.00  0.00    +0.000 NA
ATOM      7  C   UNL     1       5.178   6.086  17.748  0.00  0.00    +0.000 C 
ATOM      8  C   UNL     1       5.305   4.800  18.593  0.00  0.00    +0.000 C 
ENDROOT
BRANCH   1  14
ATOM      9  C   UNL     1       1.503   3.315  19.307  0.00  0.00    +0.000 A 
ATOM     10  C   UNL     1       0.752   3.240  20.496  0.00  0.00    +0.000 A 
ATOM     11  C   UNL     1       1.323   2.795  21.688  0.00  0.00    +0.000 A 
ATOM     12  C   UNL     1       2.658   2.420  21.711  0.00  0.00    +0.000 A 
ATOM     13  C   UNL     1       3.416   2.496  20.541  0.00  0.00    +0.000 A 
ATOM     14  C   UNL     1       2.860   2.944  19.320  0.00  0.00    +0.000 A 
BRANCH   9  16
ATOM     15  C   UNL     1       1.325   4.880  17.538  0.00  0.00    +0.000 C 
ATOM     16  O   UNL     1       0.900   3.646  18.120  0.00  0.00    +0.000 OA
ENDBRANCH   9  16
ENDBRANCH   1  14
BRANCH   6  17
ATOM     17  C   UNL     1       7.320   6.174  16.497  0.00  0.00    +0.000 C 
BRANCH  17  18
ATOM     18  C   UNL     1       7.732   7.249  17.466  0.00  0.00    +0.000 A 
ATOM     19  N   UNL     1       7.669   8.585  17.128  0.00  0.00    +0.000 NA
ATOM     20  C   UNL     1       8.246   9.174  18.150  0.00  0.00    +0.000 A 
ATOM     21  N   UNL     1       8.611   8.241  19.066  0.00  0.00    +0.000 N 
ATOM     22  N   UNL     1       8.274   7.007  18.668  0.00  0.00    +0.000 NA
ATOM     23  H   UNL     1       9.095   8.366  19.948  0.00  0.00    +0.000 HD
ENDBRANCH  17  18
ENDBRANCH   6  17
TORSDOF 4
ENDMDL
MODEL 5
REMARK VINA RESULT:      -6.2      2.986      5.011
REMARK  Name = 
REMARK  5 active torsions:
REMARK  status: ('A' for Active; 'I' for Inactive)
REMARK    1  A    between atoms: C_1  and  O_2
REMARK    2  A    between atoms: O_2  and  C_3
REMARK    3  A    between atoms: C_8  and  C_9
REMARK    4  A    between atoms: N_14  and  C_15
REMARK    5  A    between atoms: C_15  and  C_16
REMARK                            x       y       z     vdW  Elec       q    Type
REMARK                         _______ _______ _______ _____ _____    ______ ____
ROOT
ATOM      1  C   UNL     1       3.930   3.444  18.162  0.00  0.00    +0.000 C 
ATOM      2  O   UNL     1       3.675   2.496  17.411  0.00  0.00    +0.000 OA
ATOM      3  N   UNL     1       4.970   4.319  17.852  0.00  0.00    +0.000 N 
ATOM      4  C   UNL     1       5.596   4.235  16.528  0.00  0.00    +0.000 C 
ATOM      5  C   UNL     1       5.512   5.588  15.782  0.00  0.00    +0.000 C 
ATOM      6  N   UNL     1       5.966   6.770  16.551  0.00  0.00    +0.000 NA
ATOM      7  C   UNL     1       5.364   6.738  17.908  0.00  0.00    +0.000 C 
ATOM      8  C   UNL     1       5.517   5.401  18.664  0.00  0.00    +0.000 C 
ENDROOT
BRANCH   1  14
ATOM      9  C   UNL     1       2.216   4.569  19.761  0.00  0.00    +0.000 A 
ATOM     10  C   UNL     1       1.370   4.411  20.877  0.00  0.00    +0.000 A 
ATOM     11  C   UNL     1       1.374   3.237  21.629  0.00  0.00    +0.000 A 
ATOM     12  C   UNL     1       2.226   2.201  21.279  0.00  0.00    +0.000 A 
ATOM     13  C   UNL     1       3.075   2.346  20.180  0.00  0.00    +0.000 A 
ATOM     14  C   UNL     1       3.090   3.527  19.402  0.00  0.00    +0.000 A 
BRANCH   9  16
ATOM     15  C   UNL     1       2.184   6.935  19.652  0.00  0.00    +0.000 C 
ATOM     16  O   UNL     1       2.120   5.682  18.966  0.00  0.00    +0.000 OA
ENDBRANCH   9  16
ENDBRANCH   1  14
BRANCH   6  17
ATOM     17  C   UNL     1       7.439   6.884  16.554  0.00  0.00    +0.000 C 
BRANCH  17  18
ATOM     18  C   UNL     1       7.915   7.890  17.568  0.00  0.00    +0.000 A 
ATOM     19  N   UNL     1       7.878   9.244  17.310  0.00  0.00    +0.000 NA
ATOM     20  C   UNL     1       8.507   9.758  18.342  0.00  0.00    +0.000 A 
ATOM     21  N   UNL     1       8.877   8.763  19.189  0.00  0.00    +0.000 N 
ATOM     22  N   UNL     1       8.490   7.563  18.734  0.00  0.00    +0.000 NA
ATOM     23  H   UNL     1       9.393   8.824  20.059  0.00  0.00    +0.000 HD
ENDBRANCH  17  18
ENDBRANCH   6  17
TORSDOF 4
ENDMDL
MODEL 6
REMARK VINA RESULT:      -6.2      3.095      4.813
REMARK  Name = 
REMARK  5 active torsions:
REMARK  status: ('A' for Active; 'I' for Inactive)
REMARK    1  A    between atoms: C_1  and  O_2
REMARK    2  A    between atoms: O_2  and  C_3
REMARK    3  A    between atoms: C_8  and  C_9
REMARK    4  A    between atoms: N_14  and  C_15
REMARK    5  A    between atoms: C_15  and  C_16
REMARK                            x       y       z     vdW  Elec       q    Type
REMARK                         _______ _______ _______ _____ _____    ______ ____
ROOT
ATOM      1  C   UNL     1       2.339   6.613  19.881  0.00  0.00    +0.000 C 
ATOM      2  O   UNL     1       1.872   6.002  20.849  0.00  0.00    +0.000 OA
ATOM      3  N   UNL     1       3.392   6.063  19.151  0.00  0.00    +0.000 N 
ATOM      4  C   UNL     1       3.777   4.670  19.404  0.00  0.00    +0.000 C 
ATOM      5  C   UNL     1       3.699   3.825  18.109  0.00  0.00    +0.000 C 
ATOM      6  N   UNL     1       4.387   4.400  16.930  0.00  0.00    +0.000 NA
ATOM      7  C   UNL     1       4.020   5.832  16.793  0.00  0.00    +0.000 C 
ATOM      8  C   UNL     1       4.169   6.675  18.078  0.00  0.00    +0.000 C 
ENDROOT
BRANCH   1  14
ATOM      9  C   UNL     1       1.244   8.870  20.568  0.00  0.00    +0.000 A 
ATOM     10  C   UNL     1       0.862  10.162  20.160  0.00  0.00    +0.000 A 
ATOM     11  C   UNL     1       0.964  10.562  18.828  0.00  0.00    +0.000 A 
ATOM     12  C   UNL     1       1.448   9.674  17.880  0.00  0.00    +0.000 A 
ATOM     13  C   UNL     1       1.824   8.387  18.269  0.00  0.00    +0.000 A 
ATOM     14  C   UNL     1       1.730   7.958  19.613  0.00  0.00    +0.000 A 
BRANCH   9  16
ATOM     15  C   UNL     1       0.453   9.364  22.745  0.00  0.00    +0.000 C 
ATOM     16  O   UNL     1       1.245   8.529  21.896  0.00  0.00    +0.000 OA
ENDBRANCH   9  16
ENDBRANCH   1  14
BRANCH   6  17
ATOM     17  C   UNL     1       5.844   4.159  16.979  0.00  0.00    +0.000 C 
BRANCH  17  18
ATOM     18  C   UNL     1       6.527   4.637  15.725  0.00  0.00    +0.000 A 
ATOM     19  N   UNL     1       6.261   4.066  14.498  0.00  0.00    +0.000 NA
ATOM     20  C   UNL     1       7.146   4.635  13.711  0.00  0.00    +0.000 A 
ATOM     21  N   UNL     1       7.885   5.523  14.425  0.00  0.00    +0.000 N 
ATOM     22  N   UNL     1       7.495   5.564  15.707  0.00  0.00    +0.000 NA
ATOM     23  H   UNL     1       8.657   6.104  14.119  0.00  0.00    +0.000 HD
ENDBRANCH  17  18
ENDBRANCH   6  17
TORSDOF 4
ENDMDL
MODEL 7
REMARK VINA RESULT:      -6.0      4.808      7.749
REMARK  Name = 
REMARK  5 active torsions:
REMARK  status: ('A' for Active; 'I' for Inactive)
REMARK    1  A    between atoms: C_1  and  O_2
REMARK    2  A    between atoms: O_2  and  C_3
REMARK    3  A    between atoms: C_8  and  C_9
REMARK    4  A    between atoms: N_14  and  C_15
REMARK    5  A    between atoms: C_15  and  C_16
REMARK                            x       y       z     vdW  Elec       q    Type
REMARK                         _______ _______ _______ _____ _____    ______ ____
ROOT
ATOM      1  C   UNL     1       3.364   5.842  19.079  0.00  0.00    +0.000 C 
ATOM      2  O   UNL     1       3.537   5.168  20.102  0.00  0.00    +0.000 OA
ATOM      3  N   UNL     1       2.346   6.793  19.036  0.00  0.00    +0.000 N 
ATOM      4  C   UNL     1       1.645   7.138  20.278  0.00  0.00    +0.000 C 
ATOM      5  C   UNL     1       1.745   8.654  20.573  0.00  0.00    +0.000 C 
ATOM      6  N   UNL     1       1.385   9.549  19.450  0.00  0.00    +0.000 NA
ATOM      7  C   UNL     1       2.058   9.084  18.211  0.00  0.00    +0.000 C 
ATOM      8  C   UNL     1       1.890   7.582  17.896  0.00  0.00    +0.000 C 
ENDROOT
BRANCH   1  14
ATOM      9  C   UNL     1       4.145   4.444  17.030  0.00  0.00    +0.000 A 
ATOM     10  C   UNL     1       4.987   4.380  15.904  0.00  0.00    +0.000 A 
ATOM     11  C   UNL     1       5.943   5.365  15.656  0.00  0.00    +0.000 A 
ATOM     12  C   UNL     1       6.073   6.430  16.534  0.00  0.00    +0.000 A 
ATOM     13  C   UNL     1       5.250   6.502  17.659  0.00  0.00    +0.000 A 
ATOM     14  C   UNL     1       4.274   5.516  17.932  0.00  0.00    +0.000 A 
BRANCH   9  16
ATOM     15  C   UNL     1       3.496   2.341  17.906  0.00  0.00    +0.000 C 
ATOM     16  O   UNL     1       3.136   3.530  17.199  0.00  0.00    +0.000 OA
ENDBRANCH   9  16
ENDBRANCH   1  14
BRANCH   6  17
ATOM     17  C   UNL     1      -0.080   9.690  19.316  0.00  0.00    +0.000 C 
BRANCH  17  18
ATOM     18  C   UNL     1      -0.453  10.978  18.631  0.00  0.00    +0.000 A 
ATOM     19  N   UNL     1       0.126  12.177  18.990  0.00  0.00    +0.000 NA
ATOM     20  C   UNL     1      -0.559  13.054  18.293  0.00  0.00    +0.000 A 
ATOM     21  N   UNL     1      -1.481  12.411  17.533  0.00  0.00    +0.000 N 
ATOM     22  N   UNL     1      -1.420  11.083  17.709  0.00  0.00    +0.000 NA
ATOM     23  H   UNL     1      -2.176  12.799  16.905  0.00  0.00    +0.000 HD
ENDBRANCH  17  18
ENDBRANCH   6  17
TORSDOF 4
ENDMDL
MODEL 8
REMARK VINA RESULT:      -6.0      3.314      7.582
REMARK  Name = 
REMARK  5 active torsions:
REMARK  status: ('A' for Active; 'I' for Inactive)
REMARK    1  A    between atoms: C_1  and  O_2
REMARK    2  A    between atoms: O_2  and  C_3
REMARK    3  A    between atoms: C_8  and  C_9
REMARK    4  A    between atoms: N_14  and  C_15
REMARK    5  A    between atoms: C_15  and  C_16
REMARK                            x       y       z     vdW  Elec       q    Type
REMARK                         _______ _______ _______ _____ _____    ______ ____
ROOT
ATOM      1  C   UNL     1       3.739   3.767  17.603  0.00  0.00    +0.000 C 
ATOM      2  O   UNL     1       3.494   2.555  17.602  0.00  0.00    +0.000 OA
ATOM      3  N   UNL     1       2.899   4.648  18.282  0.00  0.00    +0.000 N 
ATOM      4  C   UNL     1       1.868   4.101  19.171  0.00  0.00    +0.000 C 
ATOM      5  C   UNL     1       2.024   4.647  20.611  0.00  0.00    +0.000 C 
ATOM      6  N   UNL     1       2.151   6.118  20.725  0.00  0.00    +0.000 NA
ATOM      7  C   UNL     1       3.143   6.608  19.735  0.00  0.00    +0.000 C 
ATOM      8  C   UNL     1       2.931   6.107  18.290  0.00  0.00    +0.000 C 
ENDROOT
BRANCH   1  14
ATOM      9  C   UNL     1       6.222   4.475  17.293  0.00  0.00    +0.000 A 
ATOM     10  C   UNL     1       7.280   4.681  16.386  0.00  0.00    +0.000 A 
ATOM     11  C   UNL     1       7.083   4.591  15.009  0.00  0.00    +0.000 A 
ATOM     12  C   UNL     1       5.823   4.295  14.514  0.00  0.00    +0.000 A 
ATOM     13  C   UNL     1       4.763   4.095  15.400  0.00  0.00    +0.000 A 
ATOM     14  C   UNL     1       4.937   4.181  16.801  0.00  0.00    +0.000 A 
BRANCH   9  16
ATOM     15  C   UNL     1       7.115   5.608  19.171  0.00  0.00    +0.000 C 
ATOM     16  O   UNL     1       6.455   4.454  18.644  0.00  0.00    +0.000 OA
ENDBRANCH   9  16
ENDBRANCH   1  14
BRANCH   6  17
ATOM     17  C   UNL     1       0.836   6.786  20.634  0.00  0.00    +0.000 C 
BRANCH  17  18
ATOM     18  C   UNL     1       0.950   8.269  20.865  0.00  0.00    +0.000 A 
ATOM     19  N   UNL     1       1.082   8.791  22.135  0.00  0.00    +0.000 NA
ATOM     20  C   UNL     1       0.992  10.085  21.932  0.00  0.00    +0.000 A 
ATOM     21  N   UNL     1       0.843  10.328  20.605  0.00  0.00    +0.000 N 
ATOM     22  N   UNL     1       0.838   9.189  19.897  0.00  0.00    +0.000 NA
ATOM     23  H   UNL     1       0.724  11.213  20.125  0.00  0.00    +0.000 HD
ENDBRANCH  17  18
ENDBRANCH   6  17
TORSDOF 4
ENDMDL
MODEL 9
REMARK VINA RESULT:      -5.9      1.761      2.924
REMARK  Name = 
REMARK  5 active torsions:
REMARK  status: ('A' for Active; 'I' for Inactive)
REMARK    1  A    between atoms: C_1  and  O_2
REMARK    2  A    between atoms: O_2  and  C_3
REMARK    3  A    between atoms: C_8  and  C_9
REMARK    4  A    between atoms: N_14  and  C_15
REMARK    5  A    between atoms: C_15  and  C_16
REMARK                            x       y       z     vdW  Elec       q    Type
REMARK                         _______ _______ _______ _____ _____    ______ ____
ROOT
ATOM      1  C   UNL     1       3.003   3.788  17.641  0.00  0.00    +0.000 C 
ATOM      2  O   UNL     1       2.039   3.623  16.884  0.00  0.00    +0.000 OA
ATOM      3  N   UNL     1       4.281   3.965  17.114  0.00  0.00    +0.000 N 
ATOM      4  C   UNL     1       4.429   4.179  15.669  0.00  0.00    +0.000 C 
ATOM      5  C   UNL     1       5.162   5.510  15.374  0.00  0.00    +0.000 C 
ATOM      6  N   UNL     1       6.429   5.718  16.112  0.00  0.00    +0.000 NA
ATOM      7  C   UNL     1       6.225   5.395  17.546  0.00  0.00    +0.000 C 
ATOM      8  C   UNL     1       5.554   4.032  17.824  0.00  0.00    +0.000 C 
ENDROOT
BRANCH   1  14
ATOM      9  C   UNL     1       2.744   4.794  20.025  0.00  0.00    +0.000 A 
ATOM     10  C   UNL     1       2.249   4.609  21.330  0.00  0.00    +0.000 A 
ATOM     11  C   UNL     1       1.695   3.393  21.730  0.00  0.00    +0.000 A 
ATOM     12  C   UNL     1       1.628   2.341  20.831  0.00  0.00    +0.000 A 
ATOM     13  C   UNL     1       2.121   2.507  19.536  0.00  0.00    +0.000 A 
ATOM     14  C   UNL     1       2.688   3.730  19.106  0.00  0.00    +0.000 A 
BRANCH   9  16
ATOM     15  C   UNL     1       2.238   7.091  19.753  0.00  0.00    +0.000 C 
ATOM     16  O   UNL     1       3.181   6.026  19.613  0.00  0.00    +0.000 OA
ENDBRANCH   9  16
ENDBRANCH   1  14
BRANCH   6  17
ATOM     17  C   UNL     1       7.549   4.983  15.488  0.00  0.00    +0.000 C 
BRANCH  17  18
ATOM     18  C   UNL     1       7.376   4.872  13.996  0.00  0.00    +0.000 A 
ATOM     19  N   UNL     1       6.700   3.813  13.428  0.00  0.00    +0.000 NA
ATOM     20  C   UNL     1       6.900   3.992  12.142  0.00  0.00    +0.000 A 
ATOM     21  N   UNL     1       7.634   5.118  11.949  0.00  0.00    +0.000 N 
ATOM     22  N   UNL     1       7.931   5.714  13.113  0.00  0.00    +0.000 NA
ATOM     23  H   UNL     1       7.974   5.519  11.083  0.00  0.00    +0.000 HD
ENDBRANCH  17  18
ENDBRANCH   6  17
TORSDOF 4
ENDMDL
