MODEL 1
REMARK VINA RESULT:      -8.1      0.000      0.000
REMARK  Name = 
REMARK  5 active torsions:
REMARK  status: ('A' for Active; 'I' for Inactive)
REMARK    1  A    between atoms: C_1  and  O_2
REMARK    2  A    between atoms: O_2  and  C_3
REMARK    3  A    between atoms: C_8  and  C_9
REMARK    4  A    between atoms: C_14  and  C_15
REMARK    5  A    between atoms: C_16  and  C_17
REMARK                            x       y       z     vdW  Elec       q    Type
REMARK                         _______ _______ _______ _____ _____    ______ ____
ROOT
ATOM      1  C   UNL     1       2.524   7.148  18.564  0.00  0.00    +0.000 A 
ATOM      2  C   UNL     1       2.134   8.243  17.769  0.00  0.00    +0.000 A 
ATOM      3  C   UNL     1       1.423   9.335  18.265  0.00  0.00    +0.000 A 
ATOM      4  C   UNL     1       1.131   9.318  19.623  0.00  0.00    +0.000 A 
ATOM      5  N   UNL     1       0.464  10.216  20.397  0.00  0.00    +0.000 N 
ATOM      6  C   UNL     1       0.361   9.741  21.676  0.00  0.00    +0.000 A 
ATOM      7  N   UNL     1       1.022   8.596  21.780  0.00  0.00    +0.000 NA
ATOM      8  C   UNL     1       1.489   8.305  20.495  0.00  0.00    +0.000 A 
ATOM      9  C   UNL     1       2.204   7.202  19.956  0.00  0.00    +0.000 A 
ATOM     10  H   UNL     1       0.057  11.074  20.057  0.00  0.00    +0.000 HD
ENDROOT
BRANCH   1  16
ATOM     11  C   UNL     1       2.748   4.697  17.764  0.00  0.00    +0.000 A 
ATOM     12  C   UNL     1       3.474   3.713  17.068  0.00  0.00    +0.000 A 
ATOM     13  C   UNL     1       4.755   3.974  16.594  0.00  0.00    +0.000 A 
ATOM     14  C   UNL     1       5.317   5.224  16.802  0.00  0.00    +0.000 A 
ATOM     15  C   UNL     1       4.591   6.228  17.455  0.00  0.00    +0.000 A 
ATOM     16  C   UNL     1       3.286   6.008  17.943  0.00  0.00    +0.000 A 
BRANCH  11  18
ATOM     17  C   UNL     1       1.290   3.194  18.914  0.00  0.00    +0.000 C 
ATOM     18  O   UNL     1       1.483   4.437  18.244  0.00  0.00    +0.000 OA
ENDBRANCH  11  18
ENDBRANCH   1  16
BRANCH   6  19
ATOM     19  C   UNL     1      -0.457  10.546  22.516  0.00  0.00    +0.000 C 
ATOM     20  C   UNL     1      -0.885  11.797  22.292  0.00  0.00    +0.000 C 
BRANCH  20  21
ATOM     21  C   UNL     1      -1.658  12.542  23.381  0.00  0.00    +0.000 C 
ATOM     22  C   UNL     1      -1.411  14.056  23.330  0.00  0.00    +0.000 C 
ATOM     23  C   UNL     1      -2.086  14.715  22.131  0.00  0.00    +0.000 C 
ATOM     24  C   UNL     1      -3.580  14.404  22.077  0.00  0.00    +0.000 C 
ATOM     25  C   UNL     1      -3.889  12.912  22.203  0.00  0.00    +0.000 C 
ATOM     26  C   UNL     1      -3.168  12.267  23.381  0.00  0.00    +0.000 C 
ENDBRANCH  20  21
ENDBRANCH   6  19
TORSDOF 4
ENDMDL
MODEL 2
REMARK VINA RESULT:      -8.0      5.726      8.206
REMARK  Name = 
REMARK  5 active torsions:
REMARK  status: ('A' for Active; 'I' for Inactive)
REMARK    1  A    between atoms: C_1  and  O_2
REMARK    2  A    between atoms: O_2  and  C_3
REMARK    3  A    between atoms: C_8  and  C_9
REMARK    4  A    between atoms: C_14  and  C_15
REMARK    5  A    between atoms: C_16  and  C_17
REMARK                            x       y       z     vdW  Elec       q    Type
REMARK                         _______ _______ _______ _____ _____    ______ ____
ROOT
ATOM      1  C   UNL     1       4.562   4.971  17.985  0.00  0.00    +0.000 A 
ATOM      2  C   UNL     1       4.338   5.683  16.791  0.00  0.00    +0.000 A 
ATOM      3  C   UNL     1       5.153   6.728  16.357  0.00  0.00    +0.000 A 
ATOM      4  C   UNL     1       6.248   7.029  17.155  0.00  0.00    +0.000 A 
ATOM      5  N   UNL     1       7.216   7.975  17.012  0.00  0.00    +0.000 N 
ATOM      6  C   UNL     1       8.059   7.945  18.090  0.00  0.00    +0.000 A 
ATOM      7  N   UNL     1       7.720   6.944  18.892  0.00  0.00    +0.000 NA
ATOM      8  C   UNL     1       6.572   6.377  18.332  0.00  0.00    +0.000 A 
ATOM      9  C   UNL     1       5.715   5.324  18.751  0.00  0.00    +0.000 A 
ATOM     10  H   UNL     1       7.263   8.636  16.251  0.00  0.00    +0.000 HD
ENDROOT
BRANCH   1  16
ATOM     11  C   UNL     1       2.357   4.072  19.000  0.00  0.00    +0.000 A 
ATOM     12  C   UNL     1       1.483   2.993  19.231  0.00  0.00    +0.000 A 
ATOM     13  C   UNL     1       1.858   1.691  18.919  0.00  0.00    +0.000 A 
ATOM     14  C   UNL     1       3.106   1.457  18.362  0.00  0.00    +0.000 A 
ATOM     15  C   UNL     1       3.971   2.524  18.086  0.00  0.00    +0.000 A 
ATOM     16  C   UNL     1       3.626   3.860  18.379  0.00  0.00    +0.000 A 
BRANCH  11  18
ATOM     17  C   UNL     1       1.810   5.657  20.700  0.00  0.00    +0.000 C 
ATOM     18  O   UNL     1       1.991   5.362  19.319  0.00  0.00    +0.000 OA
ENDBRANCH  11  18
ENDBRANCH   1  16
BRANCH   6  19
ATOM     19  C   UNL     1       9.009   9.004  18.096  0.00  0.00    +0.000 C 
ATOM     20  C   UNL     1       8.777  10.315  18.251  0.00  0.00    +0.000 C 
BRANCH  20  21
ATOM     21  C   UNL     1       9.927  11.312  18.102  0.00  0.00    +0.000 C 
ATOM     22  C   UNL     1       9.423  12.746  17.889  0.00  0.00    +0.000 C 
ATOM     23  C   UNL     1       8.815  13.343  19.154  0.00  0.00    +0.000 C 
ATOM     24  C   UNL     1       9.779  13.275  20.336  0.00  0.00    +0.000 C 
ATOM     25  C   UNL     1      10.374  11.882  20.547  0.00  0.00    +0.000 C 
ATOM     26  C   UNL     1      10.935  11.289  19.260  0.00  0.00    +0.000 C 
ENDBRANCH  20  21
ENDBRANCH   6  19
TORSDOF 4
ENDMDL
MODEL 3
REMARK VINA RESULT:      -7.9      2.743      9.613
REMARK  Name = 
REMARK  5 active torsions:
REMARK  status: ('A' for Active; 'I' for Inactive)
REMARK    1  A    between atoms: C_1  and  O_2
REMARK    2  A    between atoms: O_2  and  C_3
REMARK    3  A    between atoms: C_8  and  C_9
REMARK    4  A    between atoms: C_14  and  C_15
REMARK    5  A    between atoms: C_16  and  C_17
REMARK                            x       y       z     vdW  Elec       q    Type
REMARK                         _______ _______ _______ _____ _____    ______ ____
ROOT
ATOM      1  C   UNL     1      -1.254  12.243  22.320  0.00  0.00    +0.000 A 
ATOM      2  C   UNL     1      -1.093  12.477  20.940  0.00  0.00    +0.000 A 
ATOM      3  C   UNL     1      -0.459  11.581  20.081  0.00  0.00    +0.000 A 
ATOM      4  C   UNL     1      -0.005  10.398  20.647  0.00  0.00    +0.000 A 
ATOM      5  N   UNL     1       0.643   9.339  20.088  0.00  0.00    +0.000 N 
ATOM      6  C   UNL     1       0.955   8.422  21.055  0.00  0.00    +0.000 A 
ATOM      7  N   UNL     1       0.449   8.811  22.217  0.00  0.00    +0.000 NA
ATOM      8  C   UNL     1      -0.134  10.060  21.982  0.00  0.00    +0.000 A 
ATOM      9  C   UNL     1      -0.777  10.998  22.833  0.00  0.00    +0.000 A 
ATOM     10  H   UNL     1       0.904   9.276  19.115  0.00  0.00    +0.000 HD
ENDROOT
BRANCH   1  16
ATOM     11  C   UNL     1      -3.353  13.265  23.439  0.00  0.00    +0.000 A 
ATOM     12  C   UNL     1      -3.915  14.184  24.344  0.00  0.00    +0.000 A 
ATOM     13  C   UNL     1      -3.130  15.157  24.952  0.00  0.00    +0.000 A 
ATOM     14  C   UNL     1      -1.773  15.213  24.671  0.00  0.00    +0.000 A 
ATOM     15  C   UNL     1      -1.190  14.277  23.806  0.00  0.00    +0.000 A 
ATOM     16  C   UNL     1      -1.949  13.269  23.175  0.00  0.00    +0.000 A 
BRANCH  11  18
ATOM     17  C   UNL     1      -4.941  12.735  21.736  0.00  0.00    +0.000 C 
ATOM     18  O   UNL     1      -4.132  12.307  22.827  0.00  0.00    +0.000 OA
ENDBRANCH  11  18
ENDBRANCH   1  16
BRANCH   6  19
ATOM     19  C   UNL     1       1.770   7.356  20.582  0.00  0.00    +0.000 C 
ATOM     20  C   UNL     1       1.499   6.043  20.603  0.00  0.00    +0.000 C 
BRANCH  20  21
ATOM     21  C   UNL     1       2.566   5.041  20.159  0.00  0.00    +0.000 C 
ATOM     22  C   UNL     1       2.398   3.678  20.845  0.00  0.00    +0.000 C 
ATOM     23  C   UNL     1       1.185   2.911  20.327  0.00  0.00    +0.000 C 
ATOM     24  C   UNL     1       1.217   2.756  18.808  0.00  0.00    +0.000 C 
ATOM     25  C   UNL     1       1.460   4.074  18.074  0.00  0.00    +0.000 C 
ATOM     26  C   UNL     1       2.648   4.844  18.638  0.00  0.00    +0.000 C 
ENDBRANCH  20  21
ENDBRANCH   6  19
TORSDOF 4
ENDMDL
MODEL 4
REMARK VINA RESULT:      -7.8      1.381      1.971
REMARK  Name = 
REMARK  5 active torsions:
REMARK  status: ('A' for Active; 'I' for Inactive)
REMARK    1  A    between atoms: C_1  and  O_2
REMARK    2  A    between atoms: O_2  and  C_3
REMARK    3  A    between atoms: C_8  and  C_9
REMARK    4  A    between atoms: C_14  and  C_15
REMARK    5  A    between atoms: C_16  and  C_17
REMARK                            x       y       z     vdW  Elec       q    Type
REMARK                         _______ _______ _______ _____ _____    ______ ____
ROOT
ATOM      1  C   UNL     1       2.297   6.481  18.910  0.00  0.00    +0.000 A 
ATOM      2  C   UNL     1       2.328   7.496  17.934  0.00  0.00    +0.000 A 
ATOM      3  C   UNL     1       1.929   8.809  18.181  0.00  0.00    +0.000 A 
ATOM      4  C   UNL     1       1.516   9.096  19.475  0.00  0.00    +0.000 A 
ATOM      5  N   UNL     1       1.074  10.259  20.027  0.00  0.00    +0.000 N 
ATOM      6  C   UNL     1       0.712  10.047  21.330  0.00  0.00    +0.000 A 
ATOM      7  N   UNL     1       0.990   8.796  21.671  0.00  0.00    +0.000 NA
ATOM      8  C   UNL     1       1.471   8.180  20.512  0.00  0.00    +0.000 A 
ATOM      9  C   UNL     1       1.875   6.849  20.224  0.00  0.00    +0.000 A 
ATOM     10  H   UNL     1       0.975  11.129  19.526  0.00  0.00    +0.000 HD
ENDROOT
BRANCH   1  16
ATOM     11  C   UNL     1       4.021   4.551  18.893  0.00  0.00    +0.000 A 
ATOM     12  C   UNL     1       4.324   3.202  18.633  0.00  0.00    +0.000 A 
ATOM     13  C   UNL     1       3.412   2.378  17.982  0.00  0.00    +0.000 A 
ATOM     14  C   UNL     1       2.184   2.893  17.596  0.00  0.00    +0.000 A 
ATOM     15  C   UNL     1       1.850   4.222  17.887  0.00  0.00    +0.000 A 
ATOM     16  C   UNL     1       2.742   5.088  18.553  0.00  0.00    +0.000 A 
BRANCH  11  18
ATOM     17  C   UNL     1       6.262   5.365  19.029  0.00  0.00    +0.000 C 
ATOM     18  O   UNL     1       4.928   5.372  19.528  0.00  0.00    +0.000 OA
ENDBRANCH  11  18
ENDBRANCH   1  16
BRANCH   6  19
ATOM     19  C   UNL     1       0.093  11.175  21.937  0.00  0.00    +0.000 C 
ATOM     20  C   UNL     1      -1.084  11.221  22.578  0.00  0.00    +0.000 C 
BRANCH  20  21
ATOM     21  C   UNL     1      -1.637  12.565  23.054  0.00  0.00    +0.000 C 
ATOM     22  C   UNL     1      -1.285  13.707  22.092  0.00  0.00    +0.000 C 
ATOM     23  C   UNL     1      -2.068  13.629  20.785  0.00  0.00    +0.000 C 
ATOM     24  C   UNL     1      -3.575  13.566  21.028  0.00  0.00    +0.000 C 
ATOM     25  C   UNL     1      -3.976  12.494  22.040  0.00  0.00    +0.000 C 
ATOM     26  C   UNL     1      -3.150  12.564  23.319  0.00  0.00    +0.000 C 
ENDBRANCH  20  21
ENDBRANCH   6  19
TORSDOF 4
ENDMDL
MODEL 5
REMARK VINA RESULT:      -7.7      1.077      1.896
REMARK  Name = 
REMARK  5 active torsions:
REMARK  status: ('A' for Active; 'I' for Inactive)
REMARK    1  A    between atoms: C_1  and  O_2
REMARK    2  A    between atoms: O_2  and  C_3
REMARK    3  A    between atoms: C_8  and  C_9
REMARK    4  A    between atoms: C_14  and  C_15
REMARK    5  A    between atoms: C_16  and  C_17
REMARK                            x       y       z     vdW  Elec       q    Type
REMARK                         _______ _______ _______ _____ _____    ______ ____
ROOT
ATOM      1  C   UNL     1       2.387   6.972  18.585  0.00  0.00    +0.000 A 
ATOM      2  C   UNL     1       2.184   8.098  17.763  0.00  0.00    +0.000 A 
ATOM      3  C   UNL     1       1.590   9.277  18.212  0.00  0.00    +0.000 A 
ATOM      4  C   UNL     1       1.223   9.313  19.550  0.00  0.00    +0.000 A 
ATOM      5  N   UNL     1       0.632  10.298  20.281  0.00  0.00    +0.000 N 
ATOM      6  C   UNL     1       0.398   9.855  21.554  0.00  0.00    +0.000 A 
ATOM      7  N   UNL     1       0.902   8.637  21.702  0.00  0.00    +0.000 NA
ATOM      8  C   UNL     1       1.400   8.274  20.447  0.00  0.00    +0.000 A 
ATOM      9  C   UNL     1       1.999   7.084  19.956  0.00  0.00    +0.000 A 
ATOM     10  H   UNL     1       0.356  11.196  19.913  0.00  0.00    +0.000 HD
ENDROOT
BRANCH   1  16
ATOM     11  C   UNL     1       4.432   5.621  17.754  0.00  0.00    +0.000 A 
ATOM     12  C   UNL     1       4.983   4.396  17.334  0.00  0.00    +0.000 A 
ATOM     13  C   UNL     1       4.171   3.291  17.099  0.00  0.00    +0.000 A 
ATOM     14  C   UNL     1       2.803   3.397  17.296  0.00  0.00    +0.000 A 
ATOM     15  C   UNL     1       2.244   4.597  17.757  0.00  0.00    +0.000 A 
ATOM     16  C   UNL     1       3.033   5.737  18.014  0.00  0.00    +0.000 A 
BRANCH  11  18
ATOM     17  C   UNL     1       6.285   6.949  17.043  0.00  0.00    +0.000 C 
ATOM     18  O   UNL     1       5.234   6.720  17.976  0.00  0.00    +0.000 OA
ENDBRANCH  11  18
ENDBRANCH   1  16
BRANCH   6  19
ATOM     19  C   UNL     1      -0.358  10.767  22.342  0.00  0.00    +0.000 C 
ATOM     20  C   UNL     1      -0.587  12.066  22.101  0.00  0.00    +0.000 C 
BRANCH  20  21
ATOM     21  C   UNL     1      -1.325  12.912  23.140  0.00  0.00    +0.000 C 
ATOM     22  C   UNL     1      -1.354  14.398  22.759  0.00  0.00    +0.000 C 
ATOM     23  C   UNL     1      -2.286  14.680  21.584  0.00  0.00    +0.000 C 
ATOM     24  C   UNL     1      -3.698  14.156  21.841  0.00  0.00    +0.000 C 
ATOM     25  C   UNL     1      -3.723  12.698  22.301  0.00  0.00    +0.000 C 
ATOM     26  C   UNL     1      -2.751  12.432  23.444  0.00  0.00    +0.000 C 
ENDBRANCH  20  21
ENDBRANCH   6  19
TORSDOF 4
ENDMDL
MODEL 6
REMARK VINA RESULT:      -7.7      7.919     11.598
REMARK  Name = 
REMARK  5 active torsions:
REMARK  status: ('A' for Active; 'I' for Inactive)
REMARK    1  A    between atoms: C_1  and  O_2
REMARK    2  A    between atoms: O_2  and  C_3
REMARK    3  A    between atoms: C_8  and  C_9
REMARK    4  A    between atoms: C_14  and  C_15
REMARK    5  A    between atoms: C_16  and  C_17
REMARK                            x       y       z     vdW  Elec       q    Type
REMARK                         _______ _______ _______ _____ _____    ______ ____
ROOT
ATOM      1  C   UNL     1       9.509  13.696  18.633  0.00  0.00    +0.000 A 
ATOM      2  C   UNL     1      10.058  13.267  19.857  0.00  0.00    +0.000 A 
ATOM      3  C   UNL     1      10.041  11.939  20.280  0.00  0.00    +0.000 A 
ATOM      4  C   UNL     1       9.474  11.019  19.408  0.00  0.00    +0.000 A 
ATOM      5  N   UNL     1       9.307   9.674  19.524  0.00  0.00    +0.000 N 
ATOM      6  C   UNL     1       8.631   9.194  18.436  0.00  0.00    +0.000 A 
ATOM      7  N   UNL     1       8.430  10.176  17.568  0.00  0.00    +0.000 NA
ATOM      8  C   UNL     1       8.930  11.332  18.174  0.00  0.00    +0.000 A 
ATOM      9  C   UNL     1       8.955  12.695  17.777  0.00  0.00    +0.000 A 
ATOM     10  H   UNL     1       9.590   9.129  20.325  0.00  0.00    +0.000 HD
ENDROOT
BRANCH   1  16
ATOM     11  C   UNL     1       8.550  16.100  18.590  0.00  0.00    +0.000 A 
ATOM     12  C   UNL     1       8.726  17.468  18.313  0.00  0.00    +0.000 A 
ATOM     13  C   UNL     1       9.864  17.922  17.655  0.00  0.00    +0.000 A 
ATOM     14  C   UNL     1      10.841  17.013  17.278  0.00  0.00    +0.000 A 
ATOM     15  C   UNL     1      10.701  15.654  17.585  0.00  0.00    +0.000 A 
ATOM     16  C   UNL     1       9.567  15.154  18.259  0.00  0.00    +0.000 A 
BRANCH  11  18
ATOM     17  C   UNL     1       6.254  15.461  18.434  0.00  0.00    +0.000 C 
ATOM     18  O   UNL     1       7.418  15.647  19.233  0.00  0.00    +0.000 OA
ENDBRANCH  11  18
ENDBRANCH   1  16
BRANCH   6  19
ATOM     19  C   UNL     1       8.277   7.820  18.548  0.00  0.00    +0.000 C 
ATOM     20  C   UNL     1       7.571   7.080  17.682  0.00  0.00    +0.000 C 
BRANCH  20  21
ATOM     21  C   UNL     1       7.188   5.645  18.046  0.00  0.00    +0.000 C 
ATOM     22  C   UNL     1       5.771   5.556  18.629  0.00  0.00    +0.000 C 
ATOM     23  C   UNL     1       4.693   5.781  17.574  0.00  0.00    +0.000 C 
ATOM     24  C   UNL     1       4.853   4.835  16.386  0.00  0.00    +0.000 C 
ATOM     25  C   UNL     1       6.270   4.825  15.813  0.00  0.00    +0.000 C 
ATOM     26  C   UNL     1       7.332   4.643  16.891  0.00  0.00    +0.000 C 
ENDBRANCH  20  21
ENDBRANCH   6  19
TORSDOF 4
ENDMDL
MODEL 7
REMARK VINA RESULT:      -7.6      1.352      2.144
REMARK  Name = 
REMARK  5 active torsions:
REMARK  status: ('A' for Active; 'I' for Inactive)
REMARK    1  A    between atoms: C_1  and  O_2
REMARK    2  A    between atoms: O_2  and  C_3
REMARK    3  A    between atoms: C_8  and  C_9
REMARK    4  A    between atoms: C_14  and  C_15
REMARK    5  A    between atoms: C_16  and  C_17
REMARK                            x       y       z     vdW  Elec       q    Type
REMARK                         _______ _______ _______ _____ _____    ______ ____
ROOT
ATOM      1  C   UNL     1       2.355   6.723  18.631  0.00  0.00    +0.000 A 
ATOM      2  C   UNL     1       2.366   7.725  17.640  0.00  0.00    +0.000 A 
ATOM      3  C   UNL     1       1.928   9.029  17.865  0.00  0.00    +0.000 A 
ATOM      4  C   UNL     1       1.497   9.323  19.152  0.00  0.00    +0.000 A 
ATOM      5  N   UNL     1       1.019  10.482  19.683  0.00  0.00    +0.000 N 
ATOM      6  C   UNL     1       0.652  10.278  20.986  0.00  0.00    +0.000 A 
ATOM      7  N   UNL     1       0.962   9.040  21.348  0.00  0.00    +0.000 NA
ATOM      8  C   UNL     1       1.469   8.422  20.201  0.00  0.00    +0.000 A 
ATOM      9  C   UNL     1       1.912   7.099  19.937  0.00  0.00    +0.000 A 
ATOM     10  H   UNL     1       0.900  11.341  19.169  0.00  0.00    +0.000 HD
ENDROOT
BRANCH   1  16
ATOM     11  C   UNL     1       4.204   4.925  18.414  0.00  0.00    +0.000 A 
ATOM     12  C   UNL     1       4.566   3.582  18.201  0.00  0.00    +0.000 A 
ATOM     13  C   UNL     1       3.620   2.641  17.809  0.00  0.00    +0.000 A 
ATOM     14  C   UNL     1       2.301   3.032  17.640  0.00  0.00    +0.000 A 
ATOM     15  C   UNL     1       1.915   4.355  17.891  0.00  0.00    +0.000 A 
ATOM     16  C   UNL     1       2.842   5.338  18.297  0.00  0.00    +0.000 A 
BRANCH  11  18
ATOM     17  C   UNL     1       6.388   5.368  19.274  0.00  0.00    +0.000 C 
ATOM     18  O   UNL     1       5.142   5.861  18.791  0.00  0.00    +0.000 OA
ENDBRANCH  11  18
ENDBRANCH   1  16
BRANCH   6  19
ATOM     19  C   UNL     1      -0.003  11.397  21.572  0.00  0.00    +0.000 C 
ATOM     20  C   UNL     1      -1.142  11.983  21.175  0.00  0.00    +0.000 C 
BRANCH  20  21
ATOM     21  C   UNL     1      -1.619  13.261  21.867  0.00  0.00    +0.000 C 
ATOM     22  C   UNL     1      -2.825  13.887  21.153  0.00  0.00    +0.000 C 
ATOM     23  C   UNL     1      -4.102  13.075  21.346  0.00  0.00    +0.000 C 
ATOM     24  C   UNL     1      -4.407  12.838  22.823  0.00  0.00    +0.000 C 
ATOM     25  C   UNL     1      -3.214  12.286  23.602  0.00  0.00    +0.000 C 
ATOM     26  C   UNL     1      -1.940  13.086  23.359  0.00  0.00    +0.000 C 
ENDBRANCH  20  21
ENDBRANCH   6  19
TORSDOF 4
ENDMDL
MODEL 8
REMARK VINA RESULT:      -7.6      2.460      9.577
REMARK  Name = 
REMARK  5 active torsions:
REMARK  status: ('A' for Active; 'I' for Inactive)
REMARK    1  A    between atoms: C_1  and  O_2
REMARK    2  A    between atoms: O_2  and  C_3
REMARK    3  A    between atoms: C_8  and  C_9
REMARK    4  A    between atoms: C_14  and  C_15
REMARK    5  A    between atoms: C_16  and  C_17
REMARK                            x       y       z     vdW  Elec       q    Type
REMARK                         _______ _______ _______ _____ _____    ______ ____
ROOT
ATOM      1  C   UNL     1      -0.258  10.894  21.939  0.00  0.00    +0.000 A 
ATOM      2  C   UNL     1       0.134   9.894  22.850  0.00  0.00    +0.000 A 
ATOM      3  C   UNL     1       0.855   8.760  22.479  0.00  0.00    +0.000 A 
ATOM      4  C   UNL     1       1.212   8.665  21.141  0.00  0.00    +0.000 A 
ATOM      5  N   UNL     1       1.904   7.700  20.475  0.00  0.00    +0.000 N 
ATOM      6  C   UNL     1       1.954   8.003  19.141  0.00  0.00    +0.000 A 
ATOM      7  N   UNL     1       1.392   9.185  18.931  0.00  0.00    +0.000 NA
ATOM      8  C   UNL     1       0.899   9.601  20.171  0.00  0.00    +0.000 A 
ATOM      9  C   UNL     1       0.155  10.740  20.580  0.00  0.00    +0.000 A 
ATOM     10  H   UNL     1       2.269   6.861  20.899  0.00  0.00    +0.000 HD
ENDROOT
BRANCH   1  16
ATOM     11  C   UNL     1      -0.552  13.425  22.392  0.00  0.00    +0.000 A 
ATOM     12  C   UNL     1      -1.384  14.501  22.753  0.00  0.00    +0.000 A 
ATOM     13  C   UNL     1      -2.677  14.280  23.213  0.00  0.00    +0.000 A 
ATOM     14  C   UNL     1      -3.155  12.982  23.304  0.00  0.00    +0.000 A 
ATOM     15  C   UNL     1      -2.355  11.902  22.906  0.00  0.00    +0.000 A 
ATOM     16  C   UNL     1      -1.041  12.084  22.427  0.00  0.00    +0.000 A 
BRANCH  11  18
ATOM     17  C   UNL     1       0.904  14.599  20.906  0.00  0.00    +0.000 C 
ATOM     18  O   UNL     1       0.735  13.642  21.948  0.00  0.00    +0.000 OA
ENDBRANCH  11  18
ENDBRANCH   1  16
BRANCH   6  19
ATOM     19  C   UNL     1       2.526   6.969  18.347  0.00  0.00    +0.000 C 
ATOM     20  C   UNL     1       2.462   5.646  18.551  0.00  0.00    +0.000 C 
BRANCH  20  21
ATOM     21  C   UNL     1       3.253   4.699  17.647  0.00  0.00    +0.000 C 
ATOM     22  C   UNL     1       4.595   4.294  18.270  0.00  0.00    +0.000 C 
ATOM     23  C   UNL     1       4.425   3.338  19.447  0.00  0.00    +0.000 C 
ATOM     24  C   UNL     1       3.607   2.106  19.066  0.00  0.00    +0.000 C 
ATOM     25  C   UNL     1       2.291   2.450  18.369  0.00  0.00    +0.000 C 
ATOM     26  C   UNL     1       2.481   3.440  17.226  0.00  0.00    +0.000 C 
ENDBRANCH  20  21
ENDBRANCH   6  19
TORSDOF 4
ENDMDL
MODEL 9
REMARK VINA RESULT:      -7.5      7.996     11.796
REMARK  Name = 
REMARK  5 active torsions:
REMARK  status: ('A' for Active; 'I' for Inactive)
REMARK    1  A    between atoms: C_1  and  O_2
REMARK    2  A    between atoms: O_2  and  C_3
REMARK    3  A    between atoms: C_8  and  C_9
REMARK    4  A    between atoms: C_14  and  C_15
REMARK    5  A    between atoms: C_16  and  C_17
REMARK                            x       y       z     vdW  Elec       q    Type
REMARK                         _______ _______ _______ _____ _____    ______ ____
ROOT
ATOM      1  C   UNL     1       9.365  13.523  18.842  0.00  0.00    +0.000 A 
ATOM      2  C   UNL     1      10.084  12.978  19.924  0.00  0.00    +0.000 A 
ATOM      3  C   UNL     1      10.136  11.612  20.198  0.00  0.00    +0.000 A 
ATOM      4  C   UNL     1       9.458  10.778  19.319  0.00  0.00    +0.000 A 
ATOM      5  N   UNL     1       9.318   9.425  19.311  0.00  0.00    +0.000 N 
ATOM      6  C   UNL     1       8.498   9.049  18.282  0.00  0.00    +0.000 A 
ATOM      7  N   UNL     1       8.171  10.113  17.562  0.00  0.00    +0.000 NA
ATOM      8  C   UNL     1       8.744  11.208  18.215  0.00  0.00    +0.000 A 
ATOM      9  C   UNL     1       8.702  12.606  17.968  0.00  0.00    +0.000 A 
ATOM     10  H   UNL     1       9.714   8.804  20.001  0.00  0.00    +0.000 HD
ENDROOT
BRANCH   1  16
ATOM     11  C   UNL     1      10.138  15.671  17.622  0.00  0.00    +0.000 A 
ATOM     12  C   UNL     1       9.992  17.052  17.396  0.00  0.00    +0.000 A 
ATOM     13  C   UNL     1       9.137  17.818  18.181  0.00  0.00    +0.000 A 
ATOM     14  C   UNL     1       8.412  17.208  19.193  0.00  0.00    +0.000 A 
ATOM     15  C   UNL     1       8.512  15.826  19.403  0.00  0.00    +0.000 A 
ATOM     16  C   UNL     1       9.360  15.012  18.623  0.00  0.00    +0.000 A 
BRANCH  11  18
ATOM     17  C   UNL     1      12.328  14.769  17.323  0.00  0.00    +0.000 C 
ATOM     18  O   UNL     1      10.992  14.913  16.852  0.00  0.00    +0.000 OA
ENDBRANCH  11  18
ENDBRANCH   1  16
BRANCH   6  19
ATOM     19  C   UNL     1       8.174   7.663  18.293  0.00  0.00    +0.000 C 
ATOM     20  C   UNL     1       7.159   7.052  17.665  0.00  0.00    +0.000 C 
BRANCH  20  21
ATOM     21  C   UNL     1       6.904   5.563  17.905  0.00  0.00    +0.000 C 
ATOM     22  C   UNL     1       5.424   5.269  18.182  0.00  0.00    +0.000 C 
ATOM     23  C   UNL     1       4.558   5.413  16.934  0.00  0.00    +0.000 C 
ATOM     24  C   UNL     1       5.077   4.558  15.780  0.00  0.00    +0.000 C 
ATOM     25  C   UNL     1       6.569   4.754  15.510  0.00  0.00    +0.000 C 
ATOM     26  C   UNL     1       7.408   4.650  16.778  0.00  0.00    +0.000 C 
ENDBRANCH  20  21
ENDBRANCH   6  19
TORSDOF 4
ENDMDL
