MODEL 1
REMARK VINA RESULT:      -7.4      0.000      0.000
REMARK  Name = 
REMARK  8 active torsions:
REMARK  status: ('A' for Active; 'I' for Inactive)
REMARK    1  A    between atoms: C_4  and  O_5
REMARK    2  A    between atoms: N_9  and  C_10
REMARK    3  A    between atoms: C_14  and  C_15
REMARK    4  A    between atoms: C_14  and  C_19
REMARK    5  A    between atoms: C_15  and  C_16
REMARK    6  A    between atoms: C_16  and  O_18
REMARK    7  A    between atoms: C_19  and  O_21
REMARK    8  A    between atoms: C_24  and  O_25
REMARK                            x       y       z     vdW  Elec       q    Type
REMARK                         _______ _______ _______ _____ _____    ______ ____
ROOT
ATOM      1  C   UNL     1       1.386   7.209  19.983  0.00  0.00    +0.000 C 
ATOM      2  C   UNL     1       1.380   5.974  20.848  0.00  0.00    +0.000 C 
ATOM      3  C   UNL     1       2.455   5.228  20.585  0.00  0.00    +0.000 C 
ATOM      4  C   UNL     1       2.730   3.787  20.709  0.00  0.00    +0.000 C 
ATOM      5  C   UNL     1       3.424   3.532  19.355  0.00  0.00    +0.000 C 
ATOM      6  O   UNL     1       3.739   4.820  18.731  0.00  0.00    +0.000 OA
ATOM      7  C   UNL     1       3.434   5.859  19.679  0.00  0.00    +0.000 C 
ATOM      8  C   UNL     1       2.697   7.107  19.144  0.00  0.00    +0.000 C 
ENDROOT
BRANCH   1  16
ATOM      9  N   UNL     1      -0.840  11.475  17.694  0.00  0.00    +0.000 N 
ATOM     10  C   UNL     1      -0.342  11.112  18.929  0.00  0.00    +0.000 A 
ATOM     11  N   UNL     1      -0.382  12.049  19.891  0.00  0.00    +0.000 NA
ATOM     12  C   UNL     1       0.113  11.725  21.100  0.00  0.00    +0.000 A 
ATOM     13  C   UNL     1       0.661  10.471  21.338  0.00  0.00    +0.000 A 
ATOM     14  N   UNL     1       1.222   9.858  22.434  0.00  0.00    +0.000 NA
ATOM     15  C   UNL     1       1.529   8.646  22.025  0.00  0.00    +0.000 A 
ATOM     16  N   UNL     1       1.210   8.454  20.702  0.00  0.00    +0.000 N 
ATOM     17  C   UNL     1       0.649   9.614  20.250  0.00  0.00    +0.000 A 
ATOM     18  N   UNL     1       0.166   9.871  19.022  0.00  0.00    +0.000 NA
ATOM     19  H   UNL     1      -0.819  12.481  17.598  0.00  0.00    +0.000 HD
ATOM     20  H   UNL     1      -0.389  10.935  16.970  0.00  0.00    +0.000 HD
BRANCH  12  21
ATOM     21  O   UNL     1       0.021  12.710  22.045  0.00  0.00    +0.000 OA
ATOM     22  H   UNL     1       0.958  12.840  22.270  0.00  0.00    +0.000 HD
ENDBRANCH  12  21
ENDBRANCH   1  16
BRANCH   5  23
ATOM     23  C   UNL     1       4.748   2.804  19.615  0.00  0.00    +0.000 C 
ATOM     24  O   UNL     1       4.861   1.824  20.337  0.00  0.00    +0.000 OA
BRANCH  23  25
ATOM     25  O   UNL     1       5.789   3.347  18.940  0.00  0.00    +0.000 OA
ATOM     26  H   UNL     1       5.799   2.997  18.019  0.00  0.00    +0.000 HD
ENDBRANCH  23  25
ENDBRANCH   5  23
BRANCH   8  27
ATOM     27  O   UNL     1       2.396   7.000  17.747  0.00  0.00    +0.000 OA
ATOM     28  H   UNL     1       3.211   6.689  17.299  0.00  0.00    +0.000 HD
ENDBRANCH   8  27
BRANCH   5  29
ATOM     29  C   UNL     1       2.638   2.643  18.379  0.00  0.00    +0.000 C 
BRANCH  29  30
ATOM     30  C   UNL     1       1.225   3.104  18.159  0.00  0.00    +0.000 C 
ATOM     31  O   UNL     1       0.230   2.532  18.588  0.00  0.00    +0.000 OA
BRANCH  30  32
ATOM     32  O   UNL     1       1.137   4.261  17.466  0.00  0.00    +0.000 OA
ATOM     33  H   UNL     1       1.961   4.565  17.048  0.00  0.00    +0.000 HD
ENDBRANCH  30  32
ENDBRANCH  29  30
ENDBRANCH   5  29
TORSDOF 8
ENDMDL
MODEL 2
REMARK VINA RESULT:      -7.3      1.740      3.359
REMARK  Name = 
REMARK  8 active torsions:
REMARK  status: ('A' for Active; 'I' for Inactive)
REMARK    1  A    between atoms: C_4  and  O_5
REMARK    2  A    between atoms: N_9  and  C_10
REMARK    3  A    between atoms: C_14  and  C_15
REMARK    4  A    between atoms: C_14  and  C_19
REMARK    5  A    between atoms: C_15  and  C_16
REMARK    6  A    between atoms: C_16  and  O_18
REMARK    7  A    between atoms: C_19  and  O_21
REMARK    8  A    between atoms: C_24  and  O_25
REMARK                            x       y       z     vdW  Elec       q    Type
REMARK                         _______ _______ _______ _____ _____    ______ ____
ROOT
ATOM      1  C   UNL     1       2.375   7.511  19.494  0.00  0.00    +0.000 C 
ATOM      2  C   UNL     1       3.034   7.026  18.227  0.00  0.00    +0.000 C 
ATOM      3  C   UNL     1       2.855   5.709  18.097  0.00  0.00    +0.000 C 
ATOM      4  C   UNL     1       3.624   4.657  17.412  0.00  0.00    +0.000 C 
ATOM      5  C   UNL     1       3.615   3.567  18.504  0.00  0.00    +0.000 C 
ATOM      6  O   UNL     1       2.651   3.943  19.543  0.00  0.00    +0.000 OA
ATOM      7  C   UNL     1       1.943   5.111  19.091  0.00  0.00    +0.000 C 
ATOM      8  C   UNL     1       1.718   6.242  20.120  0.00  0.00    +0.000 C 
ENDROOT
BRANCH   1  16
ATOM      9  N   UNL     1      -0.428   9.520  23.557  0.00  0.00    +0.000 N 
ATOM     10  C   UNL     1      -0.218   9.787  22.219  0.00  0.00    +0.000 A 
ATOM     11  N   UNL     1      -0.882  10.837  21.705  0.00  0.00    +0.000 NA
ATOM     12  C   UNL     1      -0.708  11.108  20.398  0.00  0.00    +0.000 A 
ATOM     13  C   UNL     1       0.117  10.320  19.606  0.00  0.00    +0.000 A 
ATOM     14  N   UNL     1       0.491  10.345  18.282  0.00  0.00    +0.000 NA
ATOM     15  C   UNL     1       1.322   9.335  18.146  0.00  0.00    +0.000 A 
ATOM     16  N   UNL     1       1.486   8.642  19.320  0.00  0.00    +0.000 N 
ATOM     17  C   UNL     1       0.723   9.263  20.266  0.00  0.00    +0.000 A 
ATOM     18  N   UNL     1       0.598   8.942  21.566  0.00  0.00    +0.000 NA
ATOM     19  H   UNL     1      -1.310   9.915  23.851  0.00  0.00    +0.000 HD
ATOM     20  H   UNL     1      -0.281   8.538  23.738  0.00  0.00    +0.000 HD
BRANCH  12  21
ATOM     21  O   UNL     1      -1.390  12.202  19.940  0.00  0.00    +0.000 OA
ATOM     22  H   UNL     1      -2.185  12.173  20.498  0.00  0.00    +0.000 HD
ENDBRANCH  12  21
ENDBRANCH   1  16
BRANCH   5  23
ATOM     23  C   UNL     1       3.135   2.253  17.878  0.00  0.00    +0.000 C 
ATOM     24  O   UNL     1       2.123   2.146  17.201  0.00  0.00    +0.000 OA
BRANCH  23  25
ATOM     25  O   UNL     1       3.965   1.213  18.132  0.00  0.00    +0.000 OA
ATOM     26  H   UNL     1       4.891   1.475  17.917  0.00  0.00    +0.000 HD
ENDBRANCH  23  25
ENDBRANCH   5  23
BRANCH   8  27
ATOM     27  O   UNL     1       2.309   5.942  21.390  0.00  0.00    +0.000 OA
ATOM     28  H   UNL     1       2.509   4.982  21.395  0.00  0.00    +0.000 HD
ENDBRANCH   8  27
BRANCH   5  29
ATOM     29  C   UNL     1       4.983   3.263  19.129  0.00  0.00    +0.000 C 
BRANCH  29  30
ATOM     30  C   UNL     1       5.967   4.390  18.991  0.00  0.00    +0.000 C 
ATOM     31  O   UNL     1       5.959   5.410  19.670  0.00  0.00    +0.000 OA
BRANCH  30  32
ATOM     32  O   UNL     1       6.918   4.164  18.059  0.00  0.00    +0.000 OA
ATOM     33  H   UNL     1       7.677   3.630  18.352  0.00  0.00    +0.000 HD
ENDBRANCH  30  32
ENDBRANCH  29  30
ENDBRANCH   5  29
TORSDOF 8
ENDMDL
MODEL 3
REMARK VINA RESULT:      -7.2      5.249      7.451
REMARK  Name = 
REMARK  8 active torsions:
REMARK  status: ('A' for Active; 'I' for Inactive)
REMARK    1  A    between atoms: C_4  and  O_5
REMARK    2  A    between atoms: N_9  and  C_10
REMARK    3  A    between atoms: C_14  and  C_15
REMARK    4  A    between atoms: C_14  and  C_19
REMARK    5  A    between atoms: C_15  and  C_16
REMARK    6  A    between atoms: C_16  and  O_18
REMARK    7  A    between atoms: C_19  and  O_21
REMARK    8  A    between atoms: C_24  and  O_25
REMARK                            x       y       z     vdW  Elec       q    Type
REMARK                         _______ _______ _______ _____ _____    ______ ____
ROOT
ATOM      1  C   UNL     1       4.406   4.332  16.885  0.00  0.00    +0.000 C 
ATOM      2  C   UNL     1       3.701   5.314  17.787  0.00  0.00    +0.000 C 
ATOM      3  C   UNL     1       3.497   4.765  18.986  0.00  0.00    +0.000 C 
ATOM      4  C   UNL     1       2.493   4.998  20.037  0.00  0.00    +0.000 C 
ATOM      5  C   UNL     1       2.128   3.540  20.386  0.00  0.00    +0.000 C 
ATOM      6  O   UNL     1       3.103   2.643  19.759  0.00  0.00    +0.000 OA
ATOM      7  C   UNL     1       4.143   3.452  19.180  0.00  0.00    +0.000 C 
ATOM      8  C   UNL     1       4.632   3.064  17.766  0.00  0.00    +0.000 C 
ENDROOT
BRANCH   1  16
ATOM      9  N   UNL     1       5.814   2.785  11.984  0.00  0.00    +0.000 N 
ATOM     10  C   UNL     1       6.254   3.666  12.952  0.00  0.00    +0.000 A 
ATOM     11  N   UNL     1       7.358   4.375  12.661  0.00  0.00    +0.000 NA
ATOM     12  C   UNL     1       7.816   5.229  13.595  0.00  0.00    +0.000 A 
ATOM     13  C   UNL     1       7.179   5.359  14.822  0.00  0.00    +0.000 A 
ATOM     14  N   UNL     1       7.395   6.127  15.943  0.00  0.00    +0.000 NA
ATOM     15  C   UNL     1       6.420   5.809  16.765  0.00  0.00    +0.000 A 
ATOM     16  N   UNL     1       5.593   4.850  16.235  0.00  0.00    +0.000 N 
ATOM     17  C   UNL     1       6.063   4.554  14.988  0.00  0.00    +0.000 A 
ATOM     18  N   UNL     1       5.550   3.689  14.097  0.00  0.00    +0.000 NA
ATOM     19  H   UNL     1       6.579   2.540  11.370  0.00  0.00    +0.000 HD
ATOM     20  H   UNL     1       5.310   2.024  12.416  0.00  0.00    +0.000 HD
BRANCH  12  21
ATOM     21  O   UNL     1       8.927   5.940  13.232  0.00  0.00    +0.000 OA
ATOM     22  H   UNL     1       8.938   5.789  12.271  0.00  0.00    +0.000 HD
ENDBRANCH  12  21
ENDBRANCH   1  16
BRANCH   5  23
ATOM     23  C   UNL     1       2.237   3.359  21.904  0.00  0.00    +0.000 C 
ATOM     24  O   UNL     1       2.682   4.206  22.665  0.00  0.00    +0.000 OA
BRANCH  23  25
ATOM     25  O   UNL     1       1.765   2.163  22.328  0.00  0.00    +0.000 OA
ATOM     26  H   UNL     1       1.117   2.307  23.057  0.00  0.00    +0.000 HD
ENDBRANCH  23  25
ENDBRANCH   5  23
BRANCH   8  27
ATOM     27  O   UNL     1       3.914   1.945  17.233  0.00  0.00    +0.000 OA
ATOM     28  H   UNL     1       4.196   1.154  17.741  0.00  0.00    +0.000 HD
ENDBRANCH   8  27
BRANCH   5  29
ATOM     29  C   UNL     1       0.699   3.121  20.011  0.00  0.00    +0.000 C 
BRANCH  29  30
ATOM     30  C   UNL     1       0.540   2.775  18.558  0.00  0.00    +0.000 C 
ATOM     31  O   UNL     1       0.565   3.587  17.641  0.00  0.00    +0.000 OA
BRANCH  30  32
ATOM     32  O   UNL     1       0.407   1.449  18.331  0.00  0.00    +0.000 OA
ATOM     33  H   UNL     1      -0.396   1.182  17.852  0.00  0.00    +0.000 HD
ENDBRANCH  30  32
ENDBRANCH  29  30
ENDBRANCH   5  29
TORSDOF 8
ENDMDL
MODEL 4
REMARK VINA RESULT:      -7.0      5.557      7.913
REMARK  Name = 
REMARK  8 active torsions:
REMARK  status: ('A' for Active; 'I' for Inactive)
REMARK    1  A    between atoms: C_4  and  O_5
REMARK    2  A    between atoms: N_9  and  C_10
REMARK    3  A    between atoms: C_14  and  C_15
REMARK    4  A    between atoms: C_14  and  C_19
REMARK    5  A    between atoms: C_15  and  C_16
REMARK    6  A    between atoms: C_16  and  O_18
REMARK    7  A    between atoms: C_19  and  O_21
REMARK    8  A    between atoms: C_24  and  O_25
REMARK                            x       y       z     vdW  Elec       q    Type
REMARK                         _______ _______ _______ _____ _____    ______ ____
ROOT
ATOM      1  C   UNL     1       5.417   3.991  16.961  0.00  0.00    +0.000 C 
ATOM      2  C   UNL     1       3.950   4.053  16.614  0.00  0.00    +0.000 C 
ATOM      3  C   UNL     1       3.256   4.511  17.658  0.00  0.00    +0.000 C 
ATOM      4  C   UNL     1       1.861   4.328  18.091  0.00  0.00    +0.000 C 
ATOM      5  C   UNL     1       2.081   4.061  19.594  0.00  0.00    +0.000 C 
ATOM      6  O   UNL     1       3.469   4.386  19.937  0.00  0.00    +0.000 OA
ATOM      7  C   UNL     1       4.081   4.991  18.783  0.00  0.00    +0.000 C 
ATOM      8  C   UNL     1       5.511   4.531  18.421  0.00  0.00    +0.000 C 
ENDROOT
BRANCH   1  16
ATOM      9  N   UNL     1       5.673   2.421  11.875  0.00  0.00    +0.000 N 
ATOM     10  C   UNL     1       6.218   3.403  12.678  0.00  0.00    +0.000 A 
ATOM     11  N   UNL     1       7.083   4.247  12.090  0.00  0.00    +0.000 NA
ATOM     12  C   UNL     1       7.642   5.202  12.856  0.00  0.00    +0.000 A 
ATOM     13  C   UNL     1       7.346   5.301  14.210  0.00  0.00    +0.000 A 
ATOM     14  N   UNL     1       7.737   6.146  15.222  0.00  0.00    +0.000 NA
ATOM     15  C   UNL     1       7.079   5.733  16.283  0.00  0.00    +0.000 A 
ATOM     16  N   UNL     1       6.293   4.640  16.006  0.00  0.00    +0.000 N 
ATOM     17  C   UNL     1       6.450   4.354  14.681  0.00  0.00    +0.000 A 
ATOM     18  N   UNL     1       5.853   3.381  13.972  0.00  0.00    +0.000 NA
ATOM     19  H   UNL     1       6.272   2.258  11.077  0.00  0.00    +0.000 HD
ATOM     20  H   UNL     1       5.424   1.619  12.434  0.00  0.00    +0.000 HD
BRANCH  12  21
ATOM     21  O   UNL     1       8.493   6.046  12.197  0.00  0.00    +0.000 OA
ATOM     22  H   UNL     1       8.795   6.613  12.927  0.00  0.00    +0.000 HD
ENDBRANCH  12  21
ENDBRANCH   1  16
BRANCH   5  23
ATOM     23  C   UNL     1       1.172   4.999  20.395  0.00  0.00    +0.000 C 
ATOM     24  O   UNL     1       1.521   6.088  20.828  0.00  0.00    +0.000 OA
BRANCH  23  25
ATOM     25  O   UNL     1      -0.080   4.508  20.560  0.00  0.00    +0.000 OA
ATOM     26  H   UNL     1      -0.539   4.484  19.688  0.00  0.00    +0.000 HD
ENDBRANCH  23  25
ENDBRANCH   5  23
BRANCH   8  27
ATOM     27  O   UNL     1       5.991   3.512  19.306  0.00  0.00    +0.000 OA
ATOM     28  H   UNL     1       5.553   2.674  19.046  0.00  0.00    +0.000 HD
ENDBRANCH   8  27
BRANCH   5  29
ATOM     29  C   UNL     1       1.735   2.639  20.059  0.00  0.00    +0.000 C 
BRANCH  29  30
ATOM     30  C   UNL     1       2.083   2.380  21.498  0.00  0.00    +0.000 C 
ATOM     31  O   UNL     1       1.271   2.336  22.415  0.00  0.00    +0.000 OA
BRANCH  30  32
ATOM     32  O   UNL     1       3.399   2.149  21.701  0.00  0.00    +0.000 OA
ATOM     33  H   UNL     1       3.969   2.244  20.919  0.00  0.00    +0.000 HD
ENDBRANCH  30  32
ENDBRANCH  29  30
ENDBRANCH   5  29
TORSDOF 8
ENDMDL
MODEL 5
REMARK VINA RESULT:      -6.9      3.077      7.929
REMARK  Name = 
REMARK  8 active torsions:
REMARK  status: ('A' for Active; 'I' for Inactive)
REMARK    1  A    between atoms: C_4  and  O_5
REMARK    2  A    between atoms: N_9  and  C_10
REMARK    3  A    between atoms: C_14  and  C_15
REMARK    4  A    between atoms: C_14  and  C_19
REMARK    5  A    between atoms: C_15  and  C_16
REMARK    6  A    between atoms: C_16  and  O_18
REMARK    7  A    between atoms: C_19  and  O_21
REMARK    8  A    between atoms: C_24  and  O_25
REMARK                            x       y       z     vdW  Elec       q    Type
REMARK                         _______ _______ _______ _____ _____    ______ ____
ROOT
ATOM      1  C   UNL     1       2.098   8.581  19.283  0.00  0.00    +0.000 C 
ATOM      2  C   UNL     1       1.216   8.969  20.443  0.00  0.00    +0.000 C 
ATOM      3  C   UNL     1       0.183   9.692  20.007  0.00  0.00    +0.000 C 
ATOM      4  C   UNL     1      -0.667  10.712  20.644  0.00  0.00    +0.000 C 
ATOM      5  C   UNL     1      -0.705  11.768  19.520  0.00  0.00    +0.000 C 
ATOM      6  O   UNL     1      -0.156  11.178  18.294  0.00  0.00    +0.000 OA
ATOM      7  C   UNL     1       0.069   9.778  18.538  0.00  0.00    +0.000 C 
ATOM      8  C   UNL     1       1.397   9.178  18.024  0.00  0.00    +0.000 C 
ENDROOT
BRANCH   1  16
ATOM      9  N   UNL     1       5.472   6.653  15.636  0.00  0.00    +0.000 N 
ATOM     10  C   UNL     1       4.723   6.183  16.697  0.00  0.00    +0.000 A 
ATOM     11  N   UNL     1       4.801   4.865  16.949  0.00  0.00    +0.000 NA
ATOM     12  C   UNL     1       4.067   4.379  17.967  0.00  0.00    +0.000 A 
ATOM     13  C   UNL     1       3.246   5.209  18.720  0.00  0.00    +0.000 A 
ATOM     14  N   UNL     1       2.408   5.018  19.794  0.00  0.00    +0.000 NA
ATOM     15  C   UNL     1       1.931   6.212  20.068  0.00  0.00    +0.000 A 
ATOM     16  N   UNL     1       2.407   7.167  19.204  0.00  0.00    +0.000 N 
ATOM     17  C   UNL     1       3.255   6.541  18.336  0.00  0.00    +0.000 A 
ATOM     18  N   UNL     1       3.967   7.091  17.338  0.00  0.00    +0.000 NA
ATOM     19  H   UNL     1       5.670   5.898  14.995  0.00  0.00    +0.000 HD
ATOM     20  H   UNL     1       5.041   7.481  15.252  0.00  0.00    +0.000 HD
BRANCH  12  21
ATOM     21  O   UNL     1       4.207   3.037  18.190  0.00  0.00    +0.000 OA
ATOM     22  H   UNL     1       5.017   2.848  17.686  0.00  0.00    +0.000 HD
ENDBRANCH  12  21
ENDBRANCH   1  16
BRANCH   5  23
ATOM     23  C   UNL     1      -2.166  12.137  19.245  0.00  0.00    +0.000 C 
ATOM     24  O   UNL     1      -3.002  12.323  20.118  0.00  0.00    +0.000 OA
BRANCH  23  25
ATOM     25  O   UNL     1      -2.441  12.260  17.925  0.00  0.00    +0.000 OA
ATOM     26  H   UNL     1      -1.692  12.718  17.477  0.00  0.00    +0.000 HD
ENDBRANCH  23  25
ENDBRANCH   5  23
BRANCH   8  27
ATOM     27  O   UNL     1       2.230  10.163  17.402  0.00  0.00    +0.000 OA
ATOM     28  H   UNL     1       1.745  11.014  17.436  0.00  0.00    +0.000 HD
ENDBRANCH   8  27
BRANCH   5  29
ATOM     29  C   UNL     1       0.011  13.087  19.844  0.00  0.00    +0.000 C 
BRANCH  29  30
ATOM     30  C   UNL     1       1.482  12.922  20.098  0.00  0.00    +0.000 C 
ATOM     31  O   UNL     1       2.013  12.999  21.200  0.00  0.00    +0.000 OA
BRANCH  30  32
ATOM     32  O   UNL     1       2.191  12.626  18.986  0.00  0.00    +0.000 OA
ATOM     33  H   UNL     1       2.051  11.736  18.621  0.00  0.00    +0.000 HD
ENDBRANCH  30  32
ENDBRANCH  29  30
ENDBRANCH   5  29
TORSDOF 8
ENDMDL
MODEL 6
REMARK VINA RESULT:      -6.9      0.860      1.150
REMARK  Name = 
REMARK  8 active torsions:
REMARK  status: ('A' for Active; 'I' for Inactive)
REMARK    1  A    between atoms: C_4  and  O_5
REMARK    2  A    between atoms: N_9  and  C_10
REMARK    3  A    between atoms: C_14  and  C_15
REMARK    4  A    between atoms: C_14  and  C_19
REMARK    5  A    between atoms: C_15  and  C_16
REMARK    6  A    between atoms: C_16  and  O_18
REMARK    7  A    between atoms: C_19  and  O_21
REMARK    8  A    between atoms: C_24  and  O_25
REMARK                            x       y       z     vdW  Elec       q    Type
REMARK                         _______ _______ _______ _____ _____    ______ ____
ROOT
ATOM      1  C   UNL     1       1.345   7.671  19.782  0.00  0.00    +0.000 C 
ATOM      2  C   UNL     1       1.476   6.355  20.506  0.00  0.00    +0.000 C 
ATOM      3  C   UNL     1       2.599   5.738  20.131  0.00  0.00    +0.000 C 
ATOM      4  C   UNL     1       2.997   4.322  20.086  0.00  0.00    +0.000 C 
ATOM      5  C   UNL     1       3.657   4.275  18.693  0.00  0.00    +0.000 C 
ATOM      6  O   UNL     1       3.839   5.646  18.206  0.00  0.00    +0.000 OA
ATOM      7  C   UNL     1       3.486   6.546  19.271  0.00  0.00    +0.000 C 
ATOM      8  C   UNL     1       2.627   7.776  18.899  0.00  0.00    +0.000 C 
ENDROOT
BRANCH   1  16
ATOM      9  N   UNL     1      -0.789  12.176  17.897  0.00  0.00    +0.000 N 
ATOM     10  C   UNL     1      -0.375  11.661  19.109  0.00  0.00    +0.000 A 
ATOM     11  N   UNL     1      -0.503  12.466  20.177  0.00  0.00    +0.000 NA
ATOM     12  C   UNL     1      -0.091  11.994  21.368  0.00  0.00    +0.000 A 
ATOM     13  C   UNL     1       0.462  10.725  21.485  0.00  0.00    +0.000 A 
ATOM     14  N   UNL     1       0.953   9.981  22.532  0.00  0.00    +0.000 NA
ATOM     15  C   UNL     1       1.312   8.835  21.996  0.00  0.00    +0.000 A 
ATOM     16  N   UNL     1       1.094   8.812  20.640  0.00  0.00    +0.000 N 
ATOM     17  C   UNL     1       0.546  10.015  20.298  0.00  0.00    +0.000 A 
ATOM     18  N   UNL     1       0.148  10.423  19.080  0.00  0.00    +0.000 NA
ATOM     19  H   UNL     1      -0.780  13.186  17.932  0.00  0.00    +0.000 HD
ATOM     20  H   UNL     1      -0.277  11.737  17.145  0.00  0.00    +0.000 HD
BRANCH  12  21
ATOM     21  O   UNL     1      -0.270  12.848  22.422  0.00  0.00    +0.000 OA
ATOM     22  H   UNL     1       0.360  13.554  22.198  0.00  0.00    +0.000 HD
ENDBRANCH  12  21
ENDBRANCH   1  16
BRANCH   5  23
ATOM     23  C   UNL     1       5.046   3.642  18.832  0.00  0.00    +0.000 C 
ATOM     24  O   UNL     1       6.079   4.162  18.433  0.00  0.00    +0.000 OA
BRANCH  23  25
ATOM     25  O   UNL     1       5.020   2.446  19.466  0.00  0.00    +0.000 OA
ATOM     26  H   UNL     1       4.085   2.158  19.582  0.00  0.00    +0.000 HD
ENDBRANCH  23  25
ENDBRANCH   5  23
BRANCH   8  27
ATOM     27  O   UNL     1       2.281   7.793  17.509  0.00  0.00    +0.000 OA
ATOM     28  H   UNL     1       2.264   6.861  17.204  0.00  0.00    +0.000 HD
ENDBRANCH   8  27
BRANCH   5  29
ATOM     29  C   UNL     1       2.911   3.431  17.648  0.00  0.00    +0.000 C 
BRANCH  29  30
ATOM     30  C   UNL     1       1.882   2.515  18.247  0.00  0.00    +0.000 C 
ATOM     31  O   UNL     1       0.689   2.776  18.346  0.00  0.00    +0.000 OA
BRANCH  30  32
ATOM     32  O   UNL     1       2.384   1.323  18.639  0.00  0.00    +0.000 OA
ATOM     33  H   UNL     1       2.371   1.155  19.596  0.00  0.00    +0.000 HD
ENDBRANCH  30  32
ENDBRANCH  29  30
ENDBRANCH   5  29
TORSDOF 8
ENDMDL
MODEL 7
REMARK VINA RESULT:      -6.7      1.725      3.184
REMARK  Name = 
REMARK  8 active torsions:
REMARK  status: ('A' for Active; 'I' for Inactive)
REMARK    1  A    between atoms: C_4  and  O_5
REMARK    2  A    between atoms: N_9  and  C_10
REMARK    3  A    between atoms: C_14  and  C_15
REMARK    4  A    between atoms: C_14  and  C_19
REMARK    5  A    between atoms: C_15  and  C_16
REMARK    6  A    between atoms: C_16  and  O_18
REMARK    7  A    between atoms: C_19  and  O_21
REMARK    8  A    between atoms: C_24  and  O_25
REMARK                            x       y       z     vdW  Elec       q    Type
REMARK                         _______ _______ _______ _____ _____    ______ ____
ROOT
ATOM      1  C   UNL     1       2.375   7.454  19.556  0.00  0.00    +0.000 C 
ATOM      2  C   UNL     1       3.121   6.970  18.337  0.00  0.00    +0.000 C 
ATOM      3  C   UNL     1       2.911   5.663  18.165  0.00  0.00    +0.000 C 
ATOM      4  C   UNL     1       3.700   4.598  17.524  0.00  0.00    +0.000 C 
ATOM      5  C   UNL     1       3.565   3.490  18.589  0.00  0.00    +0.000 C 
ATOM      6  O   UNL     1       2.532   3.879  19.553  0.00  0.00    +0.000 OA
ATOM      7  C   UNL     1       1.901   5.078  19.068  0.00  0.00    +0.000 C 
ATOM      8  C   UNL     1       1.629   6.197  20.099  0.00  0.00    +0.000 C 
ENDROOT
BRANCH   1  16
ATOM      9  N   UNL     1      -0.479   9.648  23.485  0.00  0.00    +0.000 N 
ATOM     10  C   UNL     1      -0.213   9.883  22.151  0.00  0.00    +0.000 A 
ATOM     11  N   UNL     1      -0.815  10.949  21.597  0.00  0.00    +0.000 NA
ATOM     12  C   UNL     1      -0.585  11.190  20.293  0.00  0.00    +0.000 A 
ATOM     13  C   UNL     1       0.233  10.355  19.543  0.00  0.00    +0.000 A 
ATOM     14  N   UNL     1       0.653  10.341  18.233  0.00  0.00    +0.000 NA
ATOM     15  C   UNL     1       1.446   9.296  18.142  0.00  0.00    +0.000 A 
ATOM     16  N   UNL     1       1.541   8.618  19.332  0.00  0.00    +0.000 N 
ATOM     17  C   UNL     1       0.772   9.286  20.241  0.00  0.00    +0.000 A 
ATOM     18  N   UNL     1       0.590   8.993  21.540  0.00  0.00    +0.000 NA
ATOM     19  H   UNL     1      -1.353  10.084  23.742  0.00  0.00    +0.000 HD
ATOM     20  H   UNL     1      -0.379   8.664  23.687  0.00  0.00    +0.000 HD
BRANCH  12  21
ATOM     21  O   UNL     1      -1.204  12.303  19.793  0.00  0.00    +0.000 OA
ATOM     22  H   UNL     1      -1.703  11.920  19.051  0.00  0.00    +0.000 HD
ENDBRANCH  12  21
ENDBRANCH   1  16
BRANCH   5  23
ATOM     23  C   UNL     1       3.098   2.204  17.899  0.00  0.00    +0.000 C 
ATOM     24  O   UNL     1       1.952   2.007  17.519  0.00  0.00    +0.000 OA
BRANCH  23  25
ATOM     25  O   UNL     1       4.095   1.303  17.729  0.00  0.00    +0.000 OA
ATOM     26  H   UNL     1       4.815   1.488  18.376  0.00  0.00    +0.000 HD
ENDBRANCH  23  25
ENDBRANCH   5  23
BRANCH   8  27
ATOM     27  O   UNL     1       2.102   5.855  21.407  0.00  0.00    +0.000 OA
ATOM     28  H   UNL     1       2.755   6.539  21.665  0.00  0.00    +0.000 HD
ENDBRANCH   8  27
BRANCH   5  29
ATOM     29  C   UNL     1       4.867   3.128  19.319  0.00  0.00    +0.000 C 
BRANCH  29  30
ATOM     30  C   UNL     1       4.678   2.112  20.410  0.00  0.00    +0.000 C 
ATOM     31  O   UNL     1       5.332   1.083  20.526  0.00  0.00    +0.000 OA
BRANCH  30  32
ATOM     32  O   UNL     1       3.727   2.456  21.307  0.00  0.00    +0.000 OA
ATOM     33  H   UNL     1       3.840   2.092  22.201  0.00  0.00    +0.000 HD
ENDBRANCH  30  32
ENDBRANCH  29  30
ENDBRANCH   5  29
TORSDOF 8
ENDMDL
MODEL 8
REMARK VINA RESULT:      -6.7      1.060      1.178
REMARK  Name = 
REMARK  8 active torsions:
REMARK  status: ('A' for Active; 'I' for Inactive)
REMARK    1  A    between atoms: C_4  and  O_5
REMARK    2  A    between atoms: N_9  and  C_10
REMARK    3  A    between atoms: C_14  and  C_15
REMARK    4  A    between atoms: C_14  and  C_19
REMARK    5  A    between atoms: C_15  and  C_16
REMARK    6  A    between atoms: C_16  and  O_18
REMARK    7  A    between atoms: C_19  and  O_21
REMARK    8  A    between atoms: C_24  and  O_25
REMARK                            x       y       z     vdW  Elec       q    Type
REMARK                         _______ _______ _______ _____ _____    ______ ____
ROOT
ATOM      1  C   UNL     1       1.453   7.508  19.744  0.00  0.00    +0.000 C 
ATOM      2  C   UNL     1       2.007   6.301  20.459  0.00  0.00    +0.000 C 
ATOM      3  C   UNL     1       3.102   5.864  19.833  0.00  0.00    +0.000 C 
ATOM      4  C   UNL     1       3.743   4.542  19.742  0.00  0.00    +0.000 C 
ATOM      5  C   UNL     1       4.041   4.495  18.229  0.00  0.00    +0.000 C 
ATOM      6  O   UNL     1       3.830   5.830  17.660  0.00  0.00    +0.000 OA
ATOM      7  C   UNL     1       3.580   6.741  18.746  0.00  0.00    +0.000 C 
ATOM      8  C   UNL     1       2.436   7.762  18.560  0.00  0.00    +0.000 C 
ENDROOT
BRANCH   1  16
ATOM      9  N   UNL     1      -0.902  11.911  17.884  0.00  0.00    +0.000 N 
ATOM     10  C   UNL     1      -0.421  11.430  19.085  0.00  0.00    +0.000 A 
ATOM     11  N   UNL     1      -0.528  12.249  20.145  0.00  0.00    +0.000 NA
ATOM     12  C   UNL     1      -0.050  11.809  21.324  0.00  0.00    +0.000 A 
ATOM     13  C   UNL     1       0.547  10.560  21.436  0.00  0.00    +0.000 A 
ATOM     14  N   UNL     1       1.107   9.850  22.473  0.00  0.00    +0.000 NA
ATOM     15  C   UNL     1       1.478   8.707  21.939  0.00  0.00    +0.000 A 
ATOM     16  N   UNL     1       1.203   8.655  20.594  0.00  0.00    +0.000 N 
ATOM     17  C   UNL     1       0.602   9.834  20.258  0.00  0.00    +0.000 A 
ATOM     18  N   UNL     1       0.140  10.209  19.053  0.00  0.00    +0.000 NA
ATOM     19  H   UNL     1      -0.924  12.922  17.903  0.00  0.00    +0.000 HD
ATOM     20  H   UNL     1      -0.409  11.477  17.118  0.00  0.00    +0.000 HD
BRANCH  12  21
ATOM     21  O   UNL     1      -0.211  12.676  22.371  0.00  0.00    +0.000 OA
ATOM     22  H   UNL     1      -0.126  12.071  23.128  0.00  0.00    +0.000 HD
ENDBRANCH  12  21
ENDBRANCH   1  16
BRANCH   5  23
ATOM     23  C   UNL     1       5.517   4.133  18.032  0.00  0.00    +0.000 C 
ATOM     24  O   UNL     1       6.382   4.300  18.880  0.00  0.00    +0.000 OA
BRANCH  23  25
ATOM     25  O   UNL     1       5.769   3.582  16.821  0.00  0.00    +0.000 OA
ATOM     26  H   UNL     1       5.174   3.988  16.148  0.00  0.00    +0.000 HD
ENDBRANCH  23  25
ENDBRANCH   5  23
BRANCH   8  27
ATOM     27  O   UNL     1       1.766   7.601  17.304  0.00  0.00    +0.000 OA
ATOM     28  H   UNL     1       2.291   6.960  16.778  0.00  0.00    +0.000 HD
ENDBRANCH   8  27
BRANCH   5  29
ATOM     29  C   UNL     1       3.240   3.447  17.441  0.00  0.00    +0.000 C 
BRANCH  29  30
ATOM     30  C   UNL     1       1.776   3.439  17.778  0.00  0.00    +0.000 C 
ATOM     31  O   UNL     1       1.218   2.573  18.442  0.00  0.00    +0.000 OA
BRANCH  30  32
ATOM     32  O   UNL     1       1.110   4.519  17.313  0.00  0.00    +0.000 OA
ATOM     33  H   UNL     1       0.802   5.147  17.989  0.00  0.00    +0.000 HD
ENDBRANCH  30  32
ENDBRANCH  29  30
ENDBRANCH   5  29
TORSDOF 8
ENDMDL
MODEL 9
REMARK VINA RESULT:      -6.6      5.452      7.754
REMARK  Name = 
REMARK  8 active torsions:
REMARK  status: ('A' for Active; 'I' for Inactive)
REMARK    1  A    between atoms: C_4  and  O_5
REMARK    2  A    between atoms: N_9  and  C_10
REMARK    3  A    between atoms: C_14  and  C_15
REMARK    4  A    between atoms: C_14  and  C_19
REMARK    5  A    between atoms: C_15  and  C_16
REMARK    6  A    between atoms: C_16  and  O_18
REMARK    7  A    between atoms: C_19  and  O_21
REMARK    8  A    between atoms: C_24  and  O_25
REMARK                            x       y       z     vdW  Elec       q    Type
REMARK                         _______ _______ _______ _____ _____    ______ ____
ROOT
ATOM      1  C   UNL     1       5.114   3.996  16.962  0.00  0.00    +0.000 C 
ATOM      2  C   UNL     1       3.696   4.418  16.664  0.00  0.00    +0.000 C 
ATOM      3  C   UNL     1       3.112   4.869  17.777  0.00  0.00    +0.000 C 
ATOM      4  C   UNL     1       1.709   4.932  18.216  0.00  0.00    +0.000 C 
ATOM      5  C   UNL     1       1.860   4.423  19.665  0.00  0.00    +0.000 C 
ATOM      6  O   UNL     1       3.284   4.393  20.012  0.00  0.00    +0.000 OA
ATOM      7  C   UNL     1       4.017   5.004  18.935  0.00  0.00    +0.000 C 
ATOM      8  C   UNL     1       5.315   4.301  18.479  0.00  0.00    +0.000 C 
ENDROOT
BRANCH   1  16
ATOM      9  N   UNL     1       5.400   2.654  11.813  0.00  0.00    +0.000 N 
ATOM     10  C   UNL     1       6.032   3.512  12.690  0.00  0.00    +0.000 A 
ATOM     11  N   UNL     1       7.029   4.258  12.185  0.00  0.00    +0.000 NA
ATOM     12  C   UNL     1       7.673   5.091  13.024  0.00  0.00    +0.000 A 
ATOM     13  C   UNL     1       7.329   5.163  14.368  0.00  0.00    +0.000 A 
ATOM     14  N   UNL     1       7.781   5.898  15.439  0.00  0.00    +0.000 NA
ATOM     15  C   UNL     1       7.024   5.527  16.448  0.00  0.00    +0.000 A 
ATOM     16  N   UNL     1       6.113   4.566  16.081  0.00  0.00    +0.000 N 
ATOM     17  C   UNL     1       6.294   4.325  14.750  0.00  0.00    +0.000 A 
ATOM     18  N   UNL     1       5.606   3.478  13.965  0.00  0.00    +0.000 NA
ATOM     19  H   UNL     1       6.009   2.450  11.033  0.00  0.00    +0.000 HD
ATOM     20  H   UNL     1       5.019   1.867  12.318  0.00  0.00    +0.000 HD
BRANCH  12  21
ATOM     21  O   UNL     1       8.661   5.842  12.447  0.00  0.00    +0.000 OA
ATOM     22  H   UNL     1       9.408   5.652  13.039  0.00  0.00    +0.000 HD
ENDBRANCH  12  21
ENDBRANCH   1  16
BRANCH   5  23
ATOM     23  C   UNL     1       1.171   5.417  20.606  0.00  0.00    +0.000 C 
ATOM     24  O   UNL     1      -0.040   5.498  20.749  0.00  0.00    +0.000 OA
BRANCH  23  25
ATOM     25  O   UNL     1       2.048   6.191  21.289  0.00  0.00    +0.000 OA
ATOM     26  H   UNL     1       2.582   6.719  20.651  0.00  0.00    +0.000 HD
ENDBRANCH  23  25
ENDBRANCH   5  23
BRANCH   8  27
ATOM     27  O   UNL     1       5.561   3.092  19.208  0.00  0.00    +0.000 OA
ATOM     28  H   UNL     1       5.905   3.353  20.089  0.00  0.00    +0.000 HD
ENDBRANCH   8  27
BRANCH   5  29
ATOM     29  C   UNL     1       1.214   3.058  19.945  0.00  0.00    +0.000 C 
BRANCH  29  30
ATOM     30  C   UNL     1       1.551   2.016  18.916  0.00  0.00    +0.000 C 
ATOM     31  O   UNL     1       2.675   1.571  18.716  0.00  0.00    +0.000 OA
BRANCH  30  32
ATOM     32  O   UNL     1       0.474   1.561  18.238  0.00  0.00    +0.000 OA
ATOM     33  H   UNL     1      -0.309   1.357  18.778  0.00  0.00    +0.000 HD
ENDBRANCH  30  32
ENDBRANCH  29  30
ENDBRANCH   5  29
TORSDOF 8
ENDMDL
