MODEL 1
REMARK VINA RESULT:      -8.0      0.000      0.000
REMARK  Name = 
REMARK  9 active torsions:
REMARK  status: ('A' for Active; 'I' for Inactive)
REMARK    1  A    between atoms: C_1  and  C_2
REMARK    2  A    between atoms: C_4  and  C_5
REMARK    3  A    between atoms: C_5  and  C_7
REMARK    4  A    between atoms: C_7  and  N_8
REMARK    5  A    between atoms: N_8  and  C_9
REMARK    6  A    between atoms: N_8  and  C_16
REMARK    7  A    between atoms: C_9  and  C_10
REMARK    8  A    between atoms: C_16  and  C_17
REMARK    9  A    between atoms: C_22  and  C_23
REMARK                            x       y       z     vdW  Elec       q    Type
REMARK                         _______ _______ _______ _____ _____    ______ ____
ROOT
ATOM      1  N   UNL     1       3.339   6.076  17.841  0.00  0.00    +0.000 NA
ENDROOT
BRANCH   1   2
ATOM      2  C   UNL     1       4.174   5.597  18.978  0.00  0.00    +0.000 C 
BRANCH   2   3
ATOM      3  C   UNL     1       5.356   4.687  18.611  0.00  0.00    +0.000 C 
ATOM      4  O   UNL     1       5.818   3.843  19.375  0.00  0.00    +0.000 OA
BRANCH   3   8
ATOM      5  C   UNL     1       6.585   4.086  13.647  0.00  0.00    +0.000 C 
ATOM      6  C   UNL     1       6.417   4.561  15.043  0.00  0.00    +0.000 A 
ATOM      7  C   UNL     1       5.640   4.089  16.079  0.00  0.00    +0.000 A 
ATOM      8  C   UNL     1       5.914   4.869  17.247  0.00  0.00    +0.000 A 
ATOM      9  C   UNL     1       6.838   5.831  16.853  0.00  0.00    +0.000 A 
ATOM     10  C   UNL     1       7.527   6.923  17.594  0.00  0.00    +0.000 C 
ATOM     11  N   UNL     1       7.116   5.637  15.521  0.00  0.00    +0.000 N 
ATOM     12  H   UNL     1       7.768   6.193  14.982  0.00  0.00    +0.000 HD
ENDBRANCH   3   8
ENDBRANCH   2   3
ENDBRANCH   1   2
BRANCH   1  13
ATOM     13  C   UNL     1       1.961   5.535  17.915  0.00  0.00    +0.000 C 
BRANCH  13  14
ATOM     14  C   UNL     1       1.814   4.369  18.869  0.00  0.00    +0.000 A 
ATOM     15  C   UNL     1       1.416   4.548  20.197  0.00  0.00    +0.000 A 
ATOM     16  C   UNL     1       1.358   3.452  21.053  0.00  0.00    +0.000 A 
ATOM     17  C   UNL     1       1.691   2.206  20.547  0.00  0.00    +0.000 A 
ATOM     18  N   UNL     1       2.051   1.985  19.265  0.00  0.00    +0.000 NA
ATOM     19  C   UNL     1       2.099   3.070  18.458  0.00  0.00    +0.000 A 
ENDBRANCH  13  14
ENDBRANCH   1  13
BRANCH   1  20
ATOM     20  C   UNL     1       3.313   7.566  17.814  0.00  0.00    +0.000 C 
BRANCH  20  21
ATOM     21  C   UNL     1       1.987   8.229  18.239  0.00  0.00    +0.000 C 
ATOM     22  C   UNL     1       1.901   9.694  17.842  0.00  0.00    +0.000 C 
ATOM     23  C   UNL     1       0.799  10.173  18.753  0.00  0.00    +0.000 C 
ATOM     24  C   UNL     1       1.046   9.384  20.024  0.00  0.00    +0.000 C 
ATOM     25  O   UNL     1       1.814   8.226  19.665  0.00  0.00    +0.000 OA
ENDBRANCH  20  21
ENDBRANCH   1  20
TORSDOF 7
ENDMDL
MODEL 2
REMARK VINA RESULT:      -7.9      0.765      1.208
REMARK  Name = 
REMARK  9 active torsions:
REMARK  status: ('A' for Active; 'I' for Inactive)
REMARK    1  A    between atoms: C_1  and  C_2
REMARK    2  A    between atoms: C_4  and  C_5
REMARK    3  A    between atoms: C_5  and  C_7
REMARK    4  A    between atoms: C_7  and  N_8
REMARK    5  A    between atoms: N_8  and  C_9
REMARK    6  A    between atoms: N_8  and  C_16
REMARK    7  A    between atoms: C_9  and  C_10
REMARK    8  A    between atoms: C_16  and  C_17
REMARK    9  A    between atoms: C_22  and  C_23
REMARK                            x       y       z     vdW  Elec       q    Type
REMARK                         _______ _______ _______ _____ _____    ______ ____
ROOT
ATOM      1  N   UNL     1       3.484   6.318  17.957  0.00  0.00    +0.000 NA
ENDROOT
BRANCH   1   2
ATOM      2  C   UNL     1       4.194   5.794  19.159  0.00  0.00    +0.000 C 
BRANCH   2   3
ATOM      3  C   UNL     1       5.644   5.339  18.940  0.00  0.00    +0.000 C 
ATOM      4  O   UNL     1       6.378   4.967  19.854  0.00  0.00    +0.000 OA
BRANCH   3   8
ATOM      5  C   UNL     1       6.658   4.103  14.046  0.00  0.00    +0.000 C 
ATOM      6  C   UNL     1       6.533   4.761  15.370  0.00  0.00    +0.000 A 
ATOM      7  C   UNL     1       5.836   4.404  16.504  0.00  0.00    +0.000 A 
ATOM      8  C   UNL     1       6.123   5.354  17.535  0.00  0.00    +0.000 A 
ATOM      9  C   UNL     1       6.971   6.294  16.960  0.00  0.00    +0.000 A 
ATOM     10  C   UNL     1       7.633   7.512  17.501  0.00  0.00    +0.000 C 
ATOM     11  N   UNL     1       7.192   5.927  15.653  0.00  0.00    +0.000 N 
ATOM     12  H   UNL     1       7.785   6.433  15.007  0.00  0.00    +0.000 HD
ENDBRANCH   3   8
ENDBRANCH   2   3
ENDBRANCH   1   2
BRANCH   1  13
ATOM     13  C   UNL     1       2.133   5.722  17.824  0.00  0.00    +0.000 C 
BRANCH  13  14
ATOM     14  C   UNL     1       2.058   4.276  18.261  0.00  0.00    +0.000 A 
ATOM     15  C   UNL     1       2.615   3.244  17.499  0.00  0.00    +0.000 A 
ATOM     16  C   UNL     1       2.462   1.923  17.911  0.00  0.00    +0.000 A 
ATOM     17  C   UNL     1       1.765   1.677  19.082  0.00  0.00    +0.000 A 
ATOM     18  N   UNL     1       1.237   2.645  19.861  0.00  0.00    +0.000 NA
ATOM     19  C   UNL     1       1.401   3.918  19.435  0.00  0.00    +0.000 A 
ENDBRANCH  13  14
ENDBRANCH   1  13
BRANCH   1  20
ATOM     20  C   UNL     1       3.396   7.804  18.020  0.00  0.00    +0.000 C 
BRANCH  20  21
ATOM     21  C   UNL     1       2.006   8.387  18.348  0.00  0.00    +0.000 C 
ATOM     22  C   UNL     1       1.845   9.829  17.895  0.00  0.00    +0.000 C 
ATOM     23  C   UNL     1       0.664  10.261  18.727  0.00  0.00    +0.000 C 
ATOM     24  C   UNL     1       0.890   9.530  20.037  0.00  0.00    +0.000 C 
ATOM     25  O   UNL     1       1.753   8.417  19.761  0.00  0.00    +0.000 OA
ENDBRANCH  20  21
ENDBRANCH   1  20
TORSDOF 7
ENDMDL
MODEL 3
REMARK VINA RESULT:      -7.7      2.234      2.794
REMARK  Name = 
REMARK  9 active torsions:
REMARK  status: ('A' for Active; 'I' for Inactive)
REMARK    1  A    between atoms: C_1  and  C_2
REMARK    2  A    between atoms: C_4  and  C_5
REMARK    3  A    between atoms: C_5  and  C_7
REMARK    4  A    between atoms: C_7  and  N_8
REMARK    5  A    between atoms: N_8  and  C_9
REMARK    6  A    between atoms: N_8  and  C_16
REMARK    7  A    between atoms: C_9  and  C_10
REMARK    8  A    between atoms: C_16  and  C_17
REMARK    9  A    between atoms: C_22  and  C_23
REMARK                            x       y       z     vdW  Elec       q    Type
REMARK                         _______ _______ _______ _____ _____    ______ ____
ROOT
ATOM      1  N   UNL     1       2.540   7.031  18.130  0.00  0.00    +0.000 NA
ENDROOT
BRANCH   1   2
ATOM      2  C   UNL     1       3.914   7.308  17.620  0.00  0.00    +0.000 C 
BRANCH   2   3
ATOM      3  C   UNL     1       4.581   6.174  16.828  0.00  0.00    +0.000 C 
ATOM      4  O   UNL     1       5.053   6.326  15.704  0.00  0.00    +0.000 OA
BRANCH   3   8
ATOM      5  C   UNL     1       3.671   1.338  18.342  0.00  0.00    +0.000 C 
ATOM      6  C   UNL     1       4.204   2.707  18.136  0.00  0.00    +0.000 A 
ATOM      7  C   UNL     1       3.877   3.684  17.220  0.00  0.00    +0.000 A 
ATOM      8  C   UNL     1       4.644   4.857  17.511  0.00  0.00    +0.000 A 
ATOM      9  C   UNL     1       5.452   4.524  18.592  0.00  0.00    +0.000 A 
ATOM     10  C   UNL     1       6.456   5.300  19.371  0.00  0.00    +0.000 C 
ATOM     11  N   UNL     1       5.183   3.222  18.943  0.00  0.00    +0.000 N 
ATOM     12  H   UNL     1       5.626   2.729  19.708  0.00  0.00    +0.000 HD
ENDBRANCH   3   8
ENDBRANCH   2   3
ENDBRANCH   1   2
BRANCH   1  13
ATOM     13  C   UNL     1       2.544   6.790  19.593  0.00  0.00    +0.000 C 
BRANCH  13  14
ATOM     14  C   UNL     1       2.110   5.394  19.983  0.00  0.00    +0.000 A 
ATOM     15  C   UNL     1       1.260   4.633  19.176  0.00  0.00    +0.000 A 
ATOM     16  C   UNL     1       0.837   3.379  19.611  0.00  0.00    +0.000 A 
ATOM     17  C   UNL     1       1.291   2.922  20.837  0.00  0.00    +0.000 A 
ATOM     18  N   UNL     1       2.136   3.612  21.632  0.00  0.00    +0.000 NA
ATOM     19  C   UNL     1       2.528   4.827  21.183  0.00  0.00    +0.000 A 
ENDBRANCH  13  14
ENDBRANCH   1  13
BRANCH   1  20
ATOM     20  C   UNL     1       1.628   8.159  17.789  0.00  0.00    +0.000 C 
BRANCH  20  21
ATOM     21  C   UNL     1       1.701   9.393  18.711  0.00  0.00    +0.000 C 
ATOM     22  C   UNL     1       0.343   9.814  19.248  0.00  0.00    +0.000 C 
ATOM     23  C   UNL     1       0.633  11.230  19.680  0.00  0.00    +0.000 C 
ATOM     24  C   UNL     1       1.603  11.714  18.619  0.00  0.00    +0.000 C 
ATOM     25  O   UNL     1       2.200  10.552  18.025  0.00  0.00    +0.000 OA
ENDBRANCH  20  21
ENDBRANCH   1  20
TORSDOF 7
ENDMDL
MODEL 4
REMARK VINA RESULT:      -7.6      2.474      6.703
REMARK  Name = 
REMARK  9 active torsions:
REMARK  status: ('A' for Active; 'I' for Inactive)
REMARK    1  A    between atoms: C_1  and  C_2
REMARK    2  A    between atoms: C_4  and  C_5
REMARK    3  A    between atoms: C_5  and  C_7
REMARK    4  A    between atoms: C_7  and  N_8
REMARK    5  A    between atoms: N_8  and  C_9
REMARK    6  A    between atoms: N_8  and  C_16
REMARK    7  A    between atoms: C_9  and  C_10
REMARK    8  A    between atoms: C_16  and  C_17
REMARK    9  A    between atoms: C_22  and  C_23
REMARK                            x       y       z     vdW  Elec       q    Type
REMARK                         _______ _______ _______ _____ _____    ______ ____
ROOT
ATOM      1  N   UNL     1       4.432   4.623  16.232  0.00  0.00    +0.000 NA
ENDROOT
BRANCH   1   2
ATOM      2  C   UNL     1       3.861   3.572  17.122  0.00  0.00    +0.000 C 
BRANCH   2   3
ATOM      3  C   UNL     1       2.414   3.794  17.585  0.00  0.00    +0.000 C 
ATOM      4  O   UNL     1       1.480   3.982  16.809  0.00  0.00    +0.000 OA
BRANCH   3   8
ATOM      5  C   UNL     1       1.330   2.274  22.384  0.00  0.00    +0.000 C 
ATOM      6  C   UNL     1       1.712   3.023  21.161  0.00  0.00    +0.000 A 
ATOM      7  C   UNL     1       1.915   2.606  19.863  0.00  0.00    +0.000 A 
ATOM      8  C   UNL     1       2.190   3.753  19.053  0.00  0.00    +0.000 A 
ATOM      9  C   UNL     1       2.182   4.840  19.919  0.00  0.00    +0.000 A 
ATOM     10  C   UNL     1       2.384   6.299  19.700  0.00  0.00    +0.000 C 
ATOM     11  N   UNL     1       1.908   4.378  21.184  0.00  0.00    +0.000 N 
ATOM     12  H   UNL     1       1.831   4.963  22.007  0.00  0.00    +0.000 HD
ENDBRANCH   3   8
ENDBRANCH   2   3
ENDBRANCH   1   2
BRANCH   1  13
ATOM     13  C   UNL     1       4.554   5.921  16.937  0.00  0.00    +0.000 C 
BRANCH  13  14
ATOM     14  C   UNL     1       5.779   6.024  17.820  0.00  0.00    +0.000 A 
ATOM     15  C   UNL     1       6.858   6.849  17.491  0.00  0.00    +0.000 A 
ATOM     16  C   UNL     1       7.990   6.860  18.302  0.00  0.00    +0.000 A 
ATOM     17  C   UNL     1       8.000   6.050  19.426  0.00  0.00    +0.000 A 
ATOM     18  N   UNL     1       6.968   5.262  19.795  0.00  0.00    +0.000 NA
ATOM     19  C   UNL     1       5.883   5.273  18.987  0.00  0.00    +0.000 A 
ENDBRANCH  13  14
ENDBRANCH   1  13
BRANCH   1  20
ATOM     20  C   UNL     1       5.757   4.188  15.708  0.00  0.00    +0.000 C 
BRANCH  20  21
ATOM     21  C   UNL     1       6.151   4.736  14.320  0.00  0.00    +0.000 C 
ATOM     22  C   UNL     1       6.211   3.657  13.251  0.00  0.00    +0.000 C 
ATOM     23  C   UNL     1       7.040   4.346  12.196  0.00  0.00    +0.000 C 
ATOM     24  C   UNL     1       8.032   5.147  13.018  0.00  0.00    +0.000 C 
ATOM     25  O   UNL     1       7.462   5.322  14.323  0.00  0.00    +0.000 OA
ENDBRANCH  20  21
ENDBRANCH   1  20
TORSDOF 7
ENDMDL
MODEL 5
REMARK VINA RESULT:      -7.6      1.863      3.053
REMARK  Name = 
REMARK  9 active torsions:
REMARK  status: ('A' for Active; 'I' for Inactive)
REMARK    1  A    between atoms: C_1  and  C_2
REMARK    2  A    between atoms: C_4  and  C_5
REMARK    3  A    between atoms: C_5  and  C_7
REMARK    4  A    between atoms: C_7  and  N_8
REMARK    5  A    between atoms: N_8  and  C_9
REMARK    6  A    between atoms: N_8  and  C_16
REMARK    7  A    between atoms: C_9  and  C_10
REMARK    8  A    between atoms: C_16  and  C_17
REMARK    9  A    between atoms: C_22  and  C_23
REMARK                            x       y       z     vdW  Elec       q    Type
REMARK                         _______ _______ _______ _____ _____    ______ ____
ROOT
ATOM      1  N   UNL     1       4.242   5.529  16.995  0.00  0.00    +0.000 NA
ENDROOT
BRANCH   1   2
ATOM      2  C   UNL     1       5.284   6.124  16.111  0.00  0.00    +0.000 C 
BRANCH   2   3
ATOM      3  C   UNL     1       6.742   5.806  16.476  0.00  0.00    +0.000 C 
ATOM      4  O   UNL     1       7.347   4.829  16.039  0.00  0.00    +0.000 OA
BRANCH   3   8
ATOM      5  C   UNL     1       8.896  10.017  18.509  0.00  0.00    +0.000 C 
ATOM      6  C   UNL     1       8.339   8.667  18.246  0.00  0.00    +0.000 A 
ATOM      7  C   UNL     1       7.636   8.164  17.173  0.00  0.00    +0.000 A 
ATOM      8  C   UNL     1       7.405   6.769  17.390  0.00  0.00    +0.000 A 
ATOM      9  C   UNL     1       7.956   6.483  18.635  0.00  0.00    +0.000 A 
ATOM     10  C   UNL     1       8.058   5.223  19.421  0.00  0.00    +0.000 C 
ATOM     11  N   UNL     1       8.499   7.641  19.139  0.00  0.00    +0.000 N 
ATOM     12  H   UNL     1       8.976   7.713  20.029  0.00  0.00    +0.000 HD
ENDBRANCH   3   8
ENDBRANCH   2   3
ENDBRANCH   1   2
BRANCH   1  13
ATOM     13  C   UNL     1       4.594   4.144  17.389  0.00  0.00    +0.000 C 
BRANCH  13  14
ATOM     14  C   UNL     1       3.565   3.482  18.279  0.00  0.00    +0.000 A 
ATOM     15  C   UNL     1       3.820   3.206  19.625  0.00  0.00    +0.000 A 
ATOM     16  C   UNL     1       2.865   2.536  20.385  0.00  0.00    +0.000 A 
ATOM     17  C   UNL     1       1.676   2.174  19.773  0.00  0.00    +0.000 A 
ATOM     18  N   UNL     1       1.377   2.448  18.486  0.00  0.00    +0.000 NA
ATOM     19  C   UNL     1       2.326   3.099  17.773  0.00  0.00    +0.000 A 
ENDBRANCH  13  14
ENDBRANCH   1  13
BRANCH   1  20
ATOM     20  C   UNL     1       4.045   6.381  18.202  0.00  0.00    +0.000 C 
BRANCH  20  21
ATOM     21  C   UNL     1       2.688   7.107  18.304  0.00  0.00    +0.000 C 
ATOM     22  C   UNL     1       2.689   8.467  17.626  0.00  0.00    +0.000 C 
ATOM     23  C   UNL     1       1.484   9.108  18.267  0.00  0.00    +0.000 C 
ATOM     24  C   UNL     1       1.537   8.579  19.687  0.00  0.00    +0.000 C 
ATOM     25  O   UNL     1       2.321   7.377  19.666  0.00  0.00    +0.000 OA
ENDBRANCH  20  21
ENDBRANCH   1  20
TORSDOF 7
ENDMDL
MODEL 6
REMARK VINA RESULT:      -7.6      1.598      4.282
REMARK  Name = 
REMARK  9 active torsions:
REMARK  status: ('A' for Active; 'I' for Inactive)
REMARK    1  A    between atoms: C_1  and  C_2
REMARK    2  A    between atoms: C_4  and  C_5
REMARK    3  A    between atoms: C_5  and  C_7
REMARK    4  A    between atoms: C_7  and  N_8
REMARK    5  A    between atoms: N_8  and  C_9
REMARK    6  A    between atoms: N_8  and  C_16
REMARK    7  A    between atoms: C_9  and  C_10
REMARK    8  A    between atoms: C_16  and  C_17
REMARK    9  A    between atoms: C_22  and  C_23
REMARK                            x       y       z     vdW  Elec       q    Type
REMARK                         _______ _______ _______ _____ _____    ______ ____
ROOT
ATOM      1  N   UNL     1       3.094   5.313  18.558  0.00  0.00    +0.000 NA
ENDROOT
BRANCH   1   2
ATOM      2  C   UNL     1       3.841   4.251  17.824  0.00  0.00    +0.000 C 
BRANCH   2   3
ATOM      3  C   UNL     1       5.373   4.340  17.885  0.00  0.00    +0.000 C 
ATOM      4  O   UNL     1       6.018   4.136  18.911  0.00  0.00    +0.000 OA
BRANCH   3   8
ATOM      5  C   UNL     1       7.126   4.258  13.045  0.00  0.00    +0.000 C 
ATOM      6  C   UNL     1       6.792   4.594  14.451  0.00  0.00    +0.000 A 
ATOM      7  C   UNL     1       5.943   3.992  15.355  0.00  0.00    +0.000 A 
ATOM      8  C   UNL     1       6.053   4.674  16.608  0.00  0.00    +0.000 A 
ATOM      9  C   UNL     1       6.955   5.711  16.398  0.00  0.00    +0.000 A 
ATOM     10  C   UNL     1       7.501   6.763  17.299  0.00  0.00    +0.000 C 
ATOM     11  N   UNL     1       7.375   5.655  15.090  0.00  0.00    +0.000 N 
ATOM     12  H   UNL     1       8.045   6.289  14.674  0.00  0.00    +0.000 HD
ENDBRANCH   3   8
ENDBRANCH   2   3
ENDBRANCH   1   2
BRANCH   1  13
ATOM     13  C   UNL     1       3.256   6.635  17.909  0.00  0.00    +0.000 C 
BRANCH  13  14
ATOM     14  C   UNL     1       2.371   7.714  18.494  0.00  0.00    +0.000 A 
ATOM     15  C   UNL     1       1.839   8.740  17.707  0.00  0.00    +0.000 A 
ATOM     16  C   UNL     1       1.084   9.746  18.303  0.00  0.00    +0.000 A 
ATOM     17  C   UNL     1       0.875   9.686  19.671  0.00  0.00    +0.000 A 
ATOM     18  N   UNL     1       1.344   8.698  20.462  0.00  0.00    +0.000 NA
ATOM     19  C   UNL     1       2.075   7.736  19.854  0.00  0.00    +0.000 A 
ENDBRANCH  13  14
ENDBRANCH   1  13
BRANCH   1  20
ATOM     20  C   UNL     1       1.652   4.952  18.656  0.00  0.00    +0.000 C 
BRANCH  20  21
ATOM     21  C   UNL     1       1.252   4.079  19.864  0.00  0.00    +0.000 C 
ATOM     22  C   UNL     1       2.126   4.317  21.084  0.00  0.00    +0.000 C 
ATOM     23  C   UNL     1       1.847   3.070  21.885  0.00  0.00    +0.000 C 
ATOM     24  C   UNL     1       1.707   2.006  20.813  0.00  0.00    +0.000 C 
ATOM     25  O   UNL     1       1.386   2.677  19.585  0.00  0.00    +0.000 OA
ENDBRANCH  20  21
ENDBRANCH   1  20
TORSDOF 7
ENDMDL
MODEL 7
REMARK VINA RESULT:      -7.6      2.194      2.664
REMARK  Name = 
REMARK  9 active torsions:
REMARK  status: ('A' for Active; 'I' for Inactive)
REMARK    1  A    between atoms: C_1  and  C_2
REMARK    2  A    between atoms: C_4  and  C_5
REMARK    3  A    between atoms: C_5  and  C_7
REMARK    4  A    between atoms: C_7  and  N_8
REMARK    5  A    between atoms: N_8  and  C_9
REMARK    6  A    between atoms: N_8  and  C_16
REMARK    7  A    between atoms: C_9  and  C_10
REMARK    8  A    between atoms: C_16  and  C_17
REMARK    9  A    between atoms: C_22  and  C_23
REMARK                            x       y       z     vdW  Elec       q    Type
REMARK                         _______ _______ _______ _____ _____    ______ ____
ROOT
ATOM      1  N   UNL     1       2.581   7.159  18.072  0.00  0.00    +0.000 NA
ENDROOT
BRANCH   1   2
ATOM      2  C   UNL     1       3.959   7.479  17.601  0.00  0.00    +0.000 C 
BRANCH   2   3
ATOM      3  C   UNL     1       4.670   6.379  16.798  0.00  0.00    +0.000 C 
ATOM      4  O   UNL     1       5.198   6.577  15.706  0.00  0.00    +0.000 OA
BRANCH   3   8
ATOM      5  C   UNL     1       3.678   1.496  18.097  0.00  0.00    +0.000 C 
ATOM      6  C   UNL     1       4.229   2.867  17.958  0.00  0.00    +0.000 A 
ATOM      7  C   UNL     1       3.934   3.883  17.074  0.00  0.00    +0.000 A 
ATOM      8  C   UNL     1       4.704   5.036  17.429  0.00  0.00    +0.000 A 
ATOM      9  C   UNL     1       5.482   4.651  18.516  0.00  0.00    +0.000 A 
ATOM     10  C   UNL     1       6.474   5.386  19.349  0.00  0.00    +0.000 C 
ATOM     11  N   UNL     1       5.193   3.339  18.807  0.00  0.00    +0.000 N 
ATOM     12  H   UNL     1       5.612   2.813  19.564  0.00  0.00    +0.000 HD
ENDBRANCH   3   8
ENDBRANCH   2   3
ENDBRANCH   1   2
BRANCH   1  13
ATOM     13  C   UNL     1       2.554   6.902  19.531  0.00  0.00    +0.000 C 
BRANCH  13  14
ATOM     14  C   UNL     1       2.080   5.513  19.898  0.00  0.00    +0.000 A 
ATOM     15  C   UNL     1       2.427   4.910  21.110  0.00  0.00    +0.000 A 
ATOM     16  C   UNL     1       2.020   3.605  21.374  0.00  0.00    +0.000 A 
ATOM     17  C   UNL     1       1.264   2.948  20.417  0.00  0.00    +0.000 A 
ATOM     18  N   UNL     1       0.881   3.504  19.247  0.00  0.00    +0.000 NA
ATOM     19  C   UNL     1       1.294   4.772  19.020  0.00  0.00    +0.000 A 
ENDBRANCH  13  14
ENDBRANCH   1  13
BRANCH   1  20
ATOM     20  C   UNL     1       1.648   8.265  17.719  0.00  0.00    +0.000 C 
BRANCH  20  21
ATOM     21  C   UNL     1       1.634   9.473  18.679  0.00  0.00    +0.000 C 
ATOM     22  C   UNL     1       0.232   9.883  19.097  0.00  0.00    +0.000 C 
ATOM     23  C   UNL     1       0.480  11.285  19.594  0.00  0.00    +0.000 C 
ATOM     24  C   UNL     1       1.545  11.796  18.642  0.00  0.00    +0.000 C 
ATOM     25  O   UNL     1       2.195  10.649  18.074  0.00  0.00    +0.000 OA
ENDBRANCH  20  21
ENDBRANCH   1  20
TORSDOF 7
ENDMDL
MODEL 8
REMARK VINA RESULT:      -7.5      1.944      6.599
REMARK  Name = 
REMARK  9 active torsions:
REMARK  status: ('A' for Active; 'I' for Inactive)
REMARK    1  A    between atoms: C_1  and  C_2
REMARK    2  A    between atoms: C_4  and  C_5
REMARK    3  A    between atoms: C_5  and  C_7
REMARK    4  A    between atoms: C_7  and  N_8
REMARK    5  A    between atoms: N_8  and  C_9
REMARK    6  A    between atoms: N_8  and  C_16
REMARK    7  A    between atoms: C_9  and  C_10
REMARK    8  A    between atoms: C_16  and  C_17
REMARK    9  A    between atoms: C_22  and  C_23
REMARK                            x       y       z     vdW  Elec       q    Type
REMARK                         _______ _______ _______ _____ _____    ______ ____
ROOT
ATOM      1  N   UNL     1       4.268   4.817  18.990  0.00  0.00    +0.000 NA
ENDROOT
BRANCH   1   2
ATOM      2  C   UNL     1       3.511   5.826  19.785  0.00  0.00    +0.000 C 
BRANCH   2   3
ATOM      3  C   UNL     1       2.473   6.653  19.011  0.00  0.00    +0.000 C 
ATOM      4  O   UNL     1       2.167   6.426  17.843  0.00  0.00    +0.000 OA
BRANCH   3   8
ATOM      5  C   UNL     1       0.098   9.438  22.633  0.00  0.00    +0.000 C 
ATOM      6  C   UNL     1       0.785   8.945  21.414  0.00  0.00    +0.000 A 
ATOM      7  C   UNL     1       1.385   7.737  21.130  0.00  0.00    +0.000 A 
ATOM      8  C   UNL     1       1.828   7.754  19.769  0.00  0.00    +0.000 A 
ATOM      9  C   UNL     1       1.506   9.016  19.282  0.00  0.00    +0.000 A 
ATOM     10  C   UNL     1       1.687   9.653  17.948  0.00  0.00    +0.000 C 
ATOM     11  N   UNL     1       0.894   9.722  20.291  0.00  0.00    +0.000 N 
ATOM     12  H   UNL     1       0.547  10.668  20.202  0.00  0.00    +0.000 HD
ENDBRANCH   3   8
ENDBRANCH   2   3
ENDBRANCH   1   2
BRANCH   1  13
ATOM     13  C   UNL     1       5.654   5.268  18.722  0.00  0.00    +0.000 C 
BRANCH  13  14
ATOM     14  C   UNL     1       6.055   5.177  17.266  0.00  0.00    +0.000 A 
ATOM     15  C   UNL     1       5.173   5.510  16.235  0.00  0.00    +0.000 A 
ATOM     16  C   UNL     1       5.567   5.347  14.910  0.00  0.00    +0.000 A 
ATOM     17  C   UNL     1       6.841   4.866  14.659  0.00  0.00    +0.000 A 
ATOM     18  N   UNL     1       7.735   4.561  15.624  0.00  0.00    +0.000 NA
ATOM     19  C   UNL     1       7.322   4.729  16.901  0.00  0.00    +0.000 A 
ENDBRANCH  13  14
ENDBRANCH   1  13
BRANCH   1  20
ATOM     20  C   UNL     1       4.273   3.506  19.697  0.00  0.00    +0.000 C 
BRANCH  20  21
ATOM     21  C   UNL     1       2.965   2.691  19.624  0.00  0.00    +0.000 C 
ATOM     22  C   UNL     1       2.226   2.872  18.309  0.00  0.00    +0.000 C 
ATOM     23  C   UNL     1       0.847   2.392  18.687  0.00  0.00    +0.000 C 
ATOM     24  C   UNL     1       0.701   2.880  20.116  0.00  0.00    +0.000 C 
ATOM     25  O   UNL     1       2.023   3.091  20.632  0.00  0.00    +0.000 OA
ENDBRANCH  20  21
ENDBRANCH   1  20
TORSDOF 7
ENDMDL
MODEL 9
REMARK VINA RESULT:      -7.4      1.656      4.367
REMARK  Name = 
REMARK  9 active torsions:
REMARK  status: ('A' for Active; 'I' for Inactive)
REMARK    1  A    between atoms: C_1  and  C_2
REMARK    2  A    between atoms: C_4  and  C_5
REMARK    3  A    between atoms: C_5  and  C_7
REMARK    4  A    between atoms: C_7  and  N_8
REMARK    5  A    between atoms: N_8  and  C_9
REMARK    6  A    between atoms: N_8  and  C_16
REMARK    7  A    between atoms: C_9  and  C_10
REMARK    8  A    between atoms: C_16  and  C_17
REMARK    9  A    between atoms: C_22  and  C_23
REMARK                            x       y       z     vdW  Elec       q    Type
REMARK                         _______ _______ _______ _____ _____    ______ ____
ROOT
ATOM      1  N   UNL     1       3.361   5.361  18.942  0.00  0.00    +0.000 NA
ENDROOT
BRANCH   1   2
ATOM      2  C   UNL     1       4.523   4.471  19.221  0.00  0.00    +0.000 C 
BRANCH   2   3
ATOM      3  C   UNL     1       5.910   5.059  18.922  0.00  0.00    +0.000 C 
ATOM      4  O   UNL     1       6.694   5.414  19.799  0.00  0.00    +0.000 OA
BRANCH   3   8
ATOM      5  C   UNL     1       6.584   4.106  13.907  0.00  0.00    +0.000 C 
ATOM      6  C   UNL     1       6.535   4.695  15.268  0.00  0.00    +0.000 A 
ATOM      7  C   UNL     1       5.949   4.250  16.433  0.00  0.00    +0.000 A 
ATOM      8  C   UNL     1       6.273   5.164  17.486  0.00  0.00    +0.000 A 
ATOM      9  C   UNL     1       7.028   6.171  16.895  0.00  0.00    +0.000 A 
ATOM     10  C   UNL     1       7.674   7.394  17.444  0.00  0.00    +0.000 C 
ATOM     11  N   UNL     1       7.161   5.878  15.558  0.00  0.00    +0.000 N 
ATOM     12  H   UNL     1       7.676   6.442  14.894  0.00  0.00    +0.000 HD
ENDBRANCH   3   8
ENDBRANCH   2   3
ENDBRANCH   1   2
BRANCH   1  13
ATOM     13  C   UNL     1       3.794   6.758  18.705  0.00  0.00    +0.000 C 
BRANCH  13  14
ATOM     14  C   UNL     1       2.676   7.772  18.817  0.00  0.00    +0.000 A 
ATOM     15  C   UNL     1       2.330   8.611  17.754  0.00  0.00    +0.000 A 
ATOM     16  C   UNL     1       1.337   9.571  17.928  0.00  0.00    +0.000 A 
ATOM     17  C   UNL     1       0.712   9.653  19.161  0.00  0.00    +0.000 A 
ATOM     18  N   UNL     1       0.994   8.843  20.203  0.00  0.00    +0.000 NA
ATOM     19  C   UNL     1       1.964   7.921  20.004  0.00  0.00    +0.000 A 
ENDBRANCH  13  14
ENDBRANCH   1  13
BRANCH   1  20
ATOM     20  C   UNL     1       2.589   4.848  17.775  0.00  0.00    +0.000 C 
BRANCH  20  21
ATOM     21  C   UNL     1       1.549   3.750  18.080  0.00  0.00    +0.000 C 
ATOM     22  C   UNL     1       1.054   3.783  19.517  0.00  0.00    +0.000 C 
ATOM     23  C   UNL     1       0.472   2.398  19.651  0.00  0.00    +0.000 C 
ATOM     24  C   UNL     1       1.424   1.552  18.827  0.00  0.00    +0.000 C 
ATOM     25  O   UNL     1       2.092   2.431  17.909  0.00  0.00    +0.000 OA
ENDBRANCH  20  21
ENDBRANCH   1  20
TORSDOF 7
ENDMDL
