MODEL 1
REMARK VINA RESULT:      -8.5      0.000      0.000
REMARK  Name = 
REMARK  4 active torsions:
REMARK  status: ('A' for Active; 'I' for Inactive)
REMARK    1  A    between atoms: C_2  and  C_10
REMARK    2  A    between atoms: N_3  and  C_4
REMARK    3  A    between atoms: C_8  and  O_9
REMARK    4  A    between atoms: C_13  and  N_14
REMARK                            x       y       z     vdW  Elec       q    Type
REMARK                         _______ _______ _______ _____ _____    ______ ____
ROOT
ATOM      1  C   UNL     1       2.539   7.164  19.074  0.00  0.00    +0.000 A 
ATOM      2  C   UNL     1       2.293   8.216  18.204  0.00  0.00    +0.000 A 
ATOM      3  C   UNL     1       1.401   9.229  18.571  0.00  0.00    +0.000 A 
ATOM      4  C   UNL     1       0.730   9.242  19.809  0.00  0.00    +0.000 A 
ATOM      5  C   UNL     1       1.019   8.201  20.696  0.00  0.00    +0.000 A 
ATOM      6  C   UNL     1       1.914   7.174  20.333  0.00  0.00    +0.000 A 
ENDROOT
BRANCH   4   7
ATOM      7  N   UNL     1      -0.211  10.259  20.184  0.00  0.00    +0.000 N 
ATOM      8  C   UNL     1      -0.313  10.770  21.446  0.00  0.00    +0.000 C 
ATOM      9  O   UNL     1       0.436  10.450  22.384  0.00  0.00    +0.000 OA
ATOM     10  N   UNL     1      -1.317  11.653  21.729  0.00  0.00    +0.000 N 
ATOM     11  C   UNL     1      -1.553  11.870  23.157  0.00  0.00    +0.000 C 
ATOM     12  C   UNL     1      -2.865  12.553  23.168  0.00  0.00    +0.000 A 
ATOM     13  C   UNL     1      -3.836  12.546  24.146  0.00  0.00    +0.000 A 
ATOM     14  C   UNL     1      -4.952  13.350  23.948  0.00  0.00    +0.000 A 
ATOM     15  C   UNL     1      -5.012  14.217  22.843  0.00  0.00    +0.000 A 
ATOM     16  C   UNL     1      -4.061  14.138  21.816  0.00  0.00    +0.000 A 
ATOM     17  C   UNL     1      -3.059  13.195  21.945  0.00  0.00    +0.000 A 
ATOM     18  C   UNL     1      -2.206  12.486  20.917  0.00  0.00    +0.000 C 
ATOM     19  H   UNL     1      -0.873  10.565  19.483  0.00  0.00    +0.000 HD
ENDBRANCH   4   7
BRANCH   1  21
ATOM     20  O   UNL     1       3.497   5.040  19.410  0.00  0.00    +0.000 OA
ATOM     21  C   UNL     1       3.471   6.055  18.709  0.00  0.00    +0.000 C 
ATOM     22  N   UNL     1       4.232   6.198  17.571  0.00  0.00    +0.000 N 
ATOM     23  H   UNL     1       4.212   7.060  17.043  0.00  0.00    +0.000 HD
BRANCH  22  24
ATOM     24  C   UNL     1       5.184   5.182  17.146  0.00  0.00    +0.000 C 
ATOM     25  C   UNL     1       5.540   5.251  15.655  0.00  0.00    +0.000 C 
ATOM     26  C   UNL     1       7.005   4.825  15.536  0.00  0.00    +0.000 C 
ATOM     27  C   UNL     1       7.467   4.489  16.947  0.00  0.00    +0.000 C 
ATOM     28  C   UNL     1       6.553   5.319  17.835  0.00  0.00    +0.000 C 
BRANCH  28  29
ATOM     29  O   UNL     1       6.545   4.853  19.175  0.00  0.00    +0.000 OA
ATOM     30  H   UNL     1       5.788   5.254  19.634  0.00  0.00    +0.000 HD
ENDBRANCH  28  29
ENDBRANCH  22  24
ENDBRANCH   1  21
TORSDOF 4
ENDMDL
MODEL 2
REMARK VINA RESULT:      -8.3      0.795      1.287
REMARK  Name = 
REMARK  4 active torsions:
REMARK  status: ('A' for Active; 'I' for Inactive)
REMARK    1  A    between atoms: C_2  and  C_10
REMARK    2  A    between atoms: N_3  and  C_4
REMARK    3  A    between atoms: C_8  and  O_9
REMARK    4  A    between atoms: C_13  and  N_14
REMARK                            x       y       z     vdW  Elec       q    Type
REMARK                         _______ _______ _______ _____ _____    ______ ____
ROOT
ATOM      1  C   UNL     1       2.728   7.108  19.107  0.00  0.00    +0.000 A 
ATOM      2  C   UNL     1       2.071   7.044  20.326  0.00  0.00    +0.000 A 
ATOM      3  C   UNL     1       1.141   8.033  20.670  0.00  0.00    +0.000 A 
ATOM      4  C   UNL     1       0.826   9.109  19.819  0.00  0.00    +0.000 A 
ATOM      5  C   UNL     1       1.462   9.140  18.574  0.00  0.00    +0.000 A 
ATOM      6  C   UNL     1       2.402   8.150  18.221  0.00  0.00    +0.000 A 
ENDROOT
BRANCH   4   7
ATOM      7  N   UNL     1      -0.102  10.146  20.172  0.00  0.00    +0.000 N 
ATOM      8  C   UNL     1      -0.218  10.665  21.430  0.00  0.00    +0.000 C 
ATOM      9  O   UNL     1       0.508  10.335  22.382  0.00  0.00    +0.000 OA
ATOM     10  N   UNL     1      -1.211  11.567  21.689  0.00  0.00    +0.000 N 
ATOM     11  C   UNL     1      -1.468  11.796  23.112  0.00  0.00    +0.000 C 
ATOM     12  C   UNL     1      -2.768  12.504  23.096  0.00  0.00    +0.000 A 
ATOM     13  C   UNL     1      -3.757  12.519  24.055  0.00  0.00    +0.000 A 
ATOM     14  C   UNL     1      -4.853  13.343  23.833  0.00  0.00    +0.000 A 
ATOM     15  C   UNL     1      -4.876  14.206  22.723  0.00  0.00    +0.000 A 
ATOM     16  C   UNL     1      -3.908  14.105  21.714  0.00  0.00    +0.000 A 
ATOM     17  C   UNL     1      -2.927  13.143  21.866  0.00  0.00    +0.000 A 
ATOM     18  C   UNL     1      -2.068  12.413  20.858  0.00  0.00    +0.000 C 
ATOM     19  H   UNL     1      -0.745  10.461  19.458  0.00  0.00    +0.000 HD
ENDBRANCH   4   7
BRANCH   1  21
ATOM     20  O   UNL     1       3.946   5.126  19.468  0.00  0.00    +0.000 OA
ATOM     21  C   UNL     1       3.740   6.082  18.715  0.00  0.00    +0.000 C 
ATOM     22  N   UNL     1       4.370   6.227  17.500  0.00  0.00    +0.000 N 
ATOM     23  H   UNL     1       4.204   7.043  16.928  0.00  0.00    +0.000 HD
BRANCH  22  24
ATOM     24  C   UNL     1       5.388   5.291  17.040  0.00  0.00    +0.000 C 
ATOM     25  C   UNL     1       4.828   4.117  16.227  0.00  0.00    +0.000 C 
ATOM     26  C   UNL     1       5.884   3.774  15.173  0.00  0.00    +0.000 C 
ATOM     27  C   UNL     1       7.047   4.728  15.409  0.00  0.00    +0.000 C 
ATOM     28  C   UNL     1       6.397   5.933  16.074  0.00  0.00    +0.000 C 
BRANCH  28  29
ATOM     29  O   UNL     1       7.348   6.753  16.733  0.00  0.00    +0.000 OA
ATOM     30  H   UNL     1       7.178   6.712  17.689  0.00  0.00    +0.000 HD
ENDBRANCH  28  29
ENDBRANCH  22  24
ENDBRANCH   1  21
TORSDOF 4
ENDMDL
MODEL 3
REMARK VINA RESULT:      -8.3      7.469      9.965
REMARK  Name = 
REMARK  4 active torsions:
REMARK  status: ('A' for Active; 'I' for Inactive)
REMARK    1  A    between atoms: C_2  and  C_10
REMARK    2  A    between atoms: N_3  and  C_4
REMARK    3  A    between atoms: C_8  and  O_9
REMARK    4  A    between atoms: C_13  and  N_14
REMARK                            x       y       z     vdW  Elec       q    Type
REMARK                         _______ _______ _______ _____ _____    ______ ____
ROOT
ATOM      1  C   UNL     1       6.094   5.845  18.108  0.00  0.00    +0.000 A 
ATOM      2  C   UNL     1       7.307   5.831  18.781  0.00  0.00    +0.000 A 
ATOM      3  C   UNL     1       8.165   6.934  18.693  0.00  0.00    +0.000 A 
ATOM      4  C   UNL     1       7.850   8.085  17.947  0.00  0.00    +0.000 A 
ATOM      5  C   UNL     1       6.606   8.107  17.309  0.00  0.00    +0.000 A 
ATOM      6  C   UNL     1       5.737   6.999  17.389  0.00  0.00    +0.000 A 
ENDROOT
BRANCH   4   7
ATOM      7  N   UNL     1       8.734   9.209  17.824  0.00  0.00    +0.000 N 
ATOM      8  C   UNL     1       9.116   9.993  18.876  0.00  0.00    +0.000 C 
ATOM      9  O   UNL     1       8.785   9.778  20.053  0.00  0.00    +0.000 OA
ATOM     10  N   UNL     1       9.869  11.108  18.637  0.00  0.00    +0.000 N 
ATOM     11  C   UNL     1       9.932  12.051  19.755  0.00  0.00    +0.000 C 
ATOM     12  C   UNL     1      10.483  13.269  19.120  0.00  0.00    +0.000 A 
ATOM     13  C   UNL     1      10.294  14.588  19.470  0.00  0.00    +0.000 A 
ATOM     14  C   UNL     1      11.003  15.548  18.758  0.00  0.00    +0.000 A 
ATOM     15  C   UNL     1      11.956  15.159  17.802  0.00  0.00    +0.000 A 
ATOM     16  C   UNL     1      12.063  13.822  17.396  0.00  0.00    +0.000 A 
ATOM     17  C   UNL     1      11.212  12.907  17.986  0.00  0.00    +0.000 A 
ATOM     18  C   UNL     1      10.684  11.572  17.512  0.00  0.00    +0.000 C 
ATOM     19  H   UNL     1       9.037   9.466  16.894  0.00  0.00    +0.000 HD
ENDBRANCH   4   7
BRANCH   1  21
ATOM     20  O   UNL     1       5.268   3.787  17.317  0.00  0.00    +0.000 OA
ATOM     21  C   UNL     1       5.162   4.679  18.163  0.00  0.00    +0.000 C 
ATOM     22  N   UNL     1       4.247   4.630  19.191  0.00  0.00    +0.000 N 
ATOM     23  H   UNL     1       4.164   5.399  19.842  0.00  0.00    +0.000 HD
BRANCH  22  24
ATOM     24  C   UNL     1       3.282   3.547  19.316  0.00  0.00    +0.000 C 
ATOM     25  C   UNL     1       2.722   3.377  20.734  0.00  0.00    +0.000 C 
ATOM     26  C   UNL     1       1.270   2.918  20.576  0.00  0.00    +0.000 C 
ATOM     27  C   UNL     1       1.020   2.799  19.080  0.00  0.00    +0.000 C 
ATOM     28  C   UNL     1       2.018   3.771  18.468  0.00  0.00    +0.000 C 
BRANCH  28  29
ATOM     29  O   UNL     1       2.228   3.521  17.088  0.00  0.00    +0.000 OA
ATOM     30  H   UNL     1       2.737   4.261  16.716  0.00  0.00    +0.000 HD
ENDBRANCH  28  29
ENDBRANCH  22  24
ENDBRANCH   1  21
TORSDOF 4
ENDMDL
MODEL 4
REMARK VINA RESULT:      -8.2      2.455      3.806
REMARK  Name = 
REMARK  4 active torsions:
REMARK  status: ('A' for Active; 'I' for Inactive)
REMARK    1  A    between atoms: C_2  and  C_10
REMARK    2  A    between atoms: N_3  and  C_4
REMARK    3  A    between atoms: C_8  and  O_9
REMARK    4  A    between atoms: C_13  and  N_14
REMARK                            x       y       z     vdW  Elec       q    Type
REMARK                         _______ _______ _______ _____ _____    ______ ____
ROOT
ATOM      1  C   UNL     1       4.199   5.455  17.091  0.00  0.00    +0.000 A 
ATOM      2  C   UNL     1       4.430   6.823  17.105  0.00  0.00    +0.000 A 
ATOM      3  C   UNL     1       3.664   7.650  17.935  0.00  0.00    +0.000 A 
ATOM      4  C   UNL     1       2.653   7.154  18.780  0.00  0.00    +0.000 A 
ATOM      5  C   UNL     1       2.459   5.769  18.791  0.00  0.00    +0.000 A 
ATOM      6  C   UNL     1       3.224   4.929  17.956  0.00  0.00    +0.000 A 
ENDROOT
BRANCH   4   7
ATOM      7  N   UNL     1       1.840   7.995  19.612  0.00  0.00    +0.000 N 
ATOM      8  C   UNL     1       1.203   9.117  19.165  0.00  0.00    +0.000 C 
ATOM      9  O   UNL     1       1.214   9.492  17.981  0.00  0.00    +0.000 OA
ATOM     10  N   UNL     1       0.547   9.913  20.062  0.00  0.00    +0.000 N 
ATOM     11  C   UNL     1       0.202  11.243  19.556  0.00  0.00    +0.000 C 
ATOM     12  C   UNL     1      -0.155  11.976  20.791  0.00  0.00    +0.000 A 
ATOM     13  C   UNL     1      -0.054  13.324  21.057  0.00  0.00    +0.000 A 
ATOM     14  C   UNL     1      -0.544  13.776  22.276  0.00  0.00    +0.000 A 
ATOM     15  C   UNL     1      -1.219  12.894  23.138  0.00  0.00    +0.000 A 
ATOM     16  C   UNL     1      -1.226  11.514  22.891  0.00  0.00    +0.000 A 
ATOM     17  C   UNL     1      -0.565  11.064  21.764  0.00  0.00    +0.000 A 
ATOM     18  C   UNL     1       0.058   9.728  21.428  0.00  0.00    +0.000 C 
ATOM     19  H   UNL     1       1.792   7.772  20.597  0.00  0.00    +0.000 HD
ENDBRANCH   4   7
BRANCH   1  21
ATOM     20  O   UNL     1       5.120   3.362  16.532  0.00  0.00    +0.000 OA
ATOM     21  C   UNL     1       4.984   4.544  16.205  0.00  0.00    +0.000 C 
ATOM     22  N   UNL     1       5.486   5.058  15.031  0.00  0.00    +0.000 N 
ATOM     23  H   UNL     1       5.387   6.041  14.816  0.00  0.00    +0.000 HD
BRANCH  22  24
ATOM     24  C   UNL     1       6.282   4.255  14.114  0.00  0.00    +0.000 C 
ATOM     25  C   UNL     1       5.446   3.412  13.143  0.00  0.00    +0.000 C 
ATOM     26  C   UNL     1       6.232   3.350  11.831  0.00  0.00    +0.000 C 
ATOM     27  C   UNL     1       7.519   4.128  12.067  0.00  0.00    +0.000 C 
ATOM     28  C   UNL     1       7.151   5.107  13.173  0.00  0.00    +0.000 C 
BRANCH  28  29
ATOM     29  O   UNL     1       8.299   5.642  13.814  0.00  0.00    +0.000 OA
ATOM     30  H   UNL     1       9.031   5.012  13.705  0.00  0.00    +0.000 HD
ENDBRANCH  28  29
ENDBRANCH  22  24
ENDBRANCH   1  21
TORSDOF 4
ENDMDL
MODEL 5
REMARK VINA RESULT:      -8.2      0.948      1.334
REMARK  Name = 
REMARK  4 active torsions:
REMARK  status: ('A' for Active; 'I' for Inactive)
REMARK    1  A    between atoms: C_2  and  C_10
REMARK    2  A    between atoms: N_3  and  C_4
REMARK    3  A    between atoms: C_8  and  O_9
REMARK    4  A    between atoms: C_13  and  N_14
REMARK                            x       y       z     vdW  Elec       q    Type
REMARK                         _______ _______ _______ _____ _____    ______ ____
ROOT
ATOM      1  C   UNL     1       2.728   7.734  18.489  0.00  0.00    +0.000 A 
ATOM      2  C   UNL     1       2.184   7.552  19.752  0.00  0.00    +0.000 A 
ATOM      3  C   UNL     1       1.176   8.409  20.207  0.00  0.00    +0.000 A 
ATOM      4  C   UNL     1       0.668   9.466  19.428  0.00  0.00    +0.000 A 
ATOM      5  C   UNL     1       1.192   9.614  18.141  0.00  0.00    +0.000 A 
ATOM      6  C   UNL     1       2.210   8.757  17.676  0.00  0.00    +0.000 A 
ENDROOT
BRANCH   4   7
ATOM      7  N   UNL     1      -0.344  10.371  19.895  0.00  0.00    +0.000 N 
ATOM      8  C   UNL     1      -0.362  10.908  21.151  0.00  0.00    +0.000 C 
ATOM      9  O   UNL     1       0.526  10.715  21.997  0.00  0.00    +0.000 OA
ATOM     10  N   UNL     1      -1.431  11.668  21.535  0.00  0.00    +0.000 N 
ATOM     11  C   UNL     1      -1.524  11.902  22.977  0.00  0.00    +0.000 C 
ATOM     12  C   UNL     1      -2.902  12.418  23.134  0.00  0.00    +0.000 A 
ATOM     13  C   UNL     1      -3.743  12.323  24.221  0.00  0.00    +0.000 A 
ATOM     14  C   UNL     1      -4.967  12.975  24.143  0.00  0.00    +0.000 A 
ATOM     15  C   UNL     1      -5.266  13.791  23.037  0.00  0.00    +0.000 A 
ATOM     16  C   UNL     1      -4.439  13.796  21.905  0.00  0.00    +0.000 A 
ATOM     17  C   UNL     1      -3.317  12.989  21.930  0.00  0.00    +0.000 A 
ATOM     18  C   UNL     1      -2.507  12.357  20.821  0.00  0.00    +0.000 C 
ATOM     19  H   UNL     1      -1.117  10.569  19.274  0.00  0.00    +0.000 HD
ENDBRANCH   4   7
BRANCH   1  21
ATOM     20  O   UNL     1       4.349   7.119  16.897  0.00  0.00    +0.000 OA
ATOM     21  C   UNL     1       3.819   6.851  17.978  0.00  0.00    +0.000 C 
ATOM     22  N   UNL     1       4.217   5.794  18.765  0.00  0.00    +0.000 N 
ATOM     23  H   UNL     1       3.733   5.582  19.626  0.00  0.00    +0.000 HD
BRANCH  22  24
ATOM     24  C   UNL     1       5.255   4.864  18.342  0.00  0.00    +0.000 C 
ATOM     25  C   UNL     1       5.209   4.521  16.848  0.00  0.00    +0.000 C 
ATOM     26  C   UNL     1       6.660   4.322  16.401  0.00  0.00    +0.000 C 
ATOM     27  C   UNL     1       7.519   4.522  17.641  0.00  0.00    +0.000 C 
ATOM     28  C   UNL     1       6.674   5.429  18.524  0.00  0.00    +0.000 C 
BRANCH  28  29
ATOM     29  O   UNL     1       7.107   5.409  19.875  0.00  0.00    +0.000 OA
ATOM     30  H   UNL     1       7.701   4.649  19.995  0.00  0.00    +0.000 HD
ENDBRANCH  28  29
ENDBRANCH  22  24
ENDBRANCH   1  21
TORSDOF 4
ENDMDL
MODEL 6
REMARK VINA RESULT:      -8.1      1.362      1.643
REMARK  Name = 
REMARK  4 active torsions:
REMARK  status: ('A' for Active; 'I' for Inactive)
REMARK    1  A    between atoms: C_2  and  C_10
REMARK    2  A    between atoms: N_3  and  C_4
REMARK    3  A    between atoms: C_8  and  O_9
REMARK    4  A    between atoms: C_13  and  N_14
REMARK                            x       y       z     vdW  Elec       q    Type
REMARK                         _______ _______ _______ _____ _____    ______ ____
ROOT
ATOM      1  C   UNL     1       2.464   7.393  19.028  0.00  0.00    +0.000 A 
ATOM      2  C   UNL     1       1.900   7.537  20.287  0.00  0.00    +0.000 A 
ATOM      3  C   UNL     1       1.075   8.634  20.560  0.00  0.00    +0.000 A 
ATOM      4  C   UNL     1       0.775   9.618  19.599  0.00  0.00    +0.000 A 
ATOM      5  C   UNL     1       1.313   9.440  18.321  0.00  0.00    +0.000 A 
ATOM      6  C   UNL     1       2.148   8.340  18.038  0.00  0.00    +0.000 A 
ENDROOT
BRANCH   4   7
ATOM      7  N   UNL     1      -0.044  10.765  19.875  0.00  0.00    +0.000 N 
ATOM      8  C   UNL     1       0.337  11.791  20.692  0.00  0.00    +0.000 C 
ATOM      9  O   UNL     1       1.453  11.866  21.232  0.00  0.00    +0.000 OA
ATOM     10  N   UNL     1      -0.560  12.780  20.982  0.00  0.00    +0.000 N 
ATOM     11  C   UNL     1      -0.186  13.628  22.115  0.00  0.00    +0.000 C 
ATOM     12  C   UNL     1      -1.447  14.342  22.415  0.00  0.00    +0.000 A 
ATOM     13  C   UNL     1      -1.891  14.845  23.619  0.00  0.00    +0.000 A 
ATOM     14  C   UNL     1      -3.083  15.559  23.614  0.00  0.00    +0.000 A 
ATOM     15  C   UNL     1      -3.733  15.844  22.401  0.00  0.00    +0.000 A 
ATOM     16  C   UNL     1      -3.316  15.244  21.205  0.00  0.00    +0.000 A 
ATOM     17  C   UNL     1      -2.236  14.384  21.265  0.00  0.00    +0.000 A 
ATOM     18  C   UNL     1      -1.818  13.229  20.383  0.00  0.00    +0.000 C 
ATOM     19  H   UNL     1      -0.978  10.775  19.489  0.00  0.00    +0.000 HD
ENDBRANCH   4   7
BRANCH   1  21
ATOM     20  O   UNL     1       3.331   5.240  19.421  0.00  0.00    +0.000 OA
ATOM     21  C   UNL     1       3.364   6.246  18.706  0.00  0.00    +0.000 C 
ATOM     22  N   UNL     1       4.164   6.345  17.590  0.00  0.00    +0.000 N 
ATOM     23  H   UNL     1       4.192   7.200  17.052  0.00  0.00    +0.000 HD
BRANCH  22  24
ATOM     24  C   UNL     1       5.091   5.289  17.208  0.00  0.00    +0.000 C 
ATOM     25  C   UNL     1       5.470   5.306  15.721  0.00  0.00    +0.000 C 
ATOM     26  C   UNL     1       6.924   4.833  15.637  0.00  0.00    +0.000 C 
ATOM     27  C   UNL     1       7.354   4.521  17.063  0.00  0.00    +0.000 C 
ATOM     28  C   UNL     1       6.453   5.404  17.914  0.00  0.00    +0.000 C 
BRANCH  28  29
ATOM     29  O   UNL     1       6.411   4.975  19.266  0.00  0.00    +0.000 OA
ATOM     30  H   UNL     1       7.240   4.508  19.465  0.00  0.00    +0.000 HD
ENDBRANCH  28  29
ENDBRANCH  22  24
ENDBRANCH   1  21
TORSDOF 4
ENDMDL
MODEL 7
REMARK VINA RESULT:      -8.1      1.178      1.247
REMARK  Name = 
REMARK  4 active torsions:
REMARK  status: ('A' for Active; 'I' for Inactive)
REMARK    1  A    between atoms: C_2  and  C_10
REMARK    2  A    between atoms: N_3  and  C_4
REMARK    3  A    between atoms: C_8  and  O_9
REMARK    4  A    between atoms: C_13  and  N_14
REMARK                            x       y       z     vdW  Elec       q    Type
REMARK                         _______ _______ _______ _____ _____    ______ ____
ROOT
ATOM      1  C   UNL     1       2.642   7.350  18.772  0.00  0.00    +0.000 A 
ATOM      2  C   UNL     1       2.324   8.323  17.836  0.00  0.00    +0.000 A 
ATOM      3  C   UNL     1       1.439   9.353  18.174  0.00  0.00    +0.000 A 
ATOM      4  C   UNL     1       0.847   9.460  19.446  0.00  0.00    +0.000 A 
ATOM      5  C   UNL     1       1.208   8.500  20.396  0.00  0.00    +0.000 A 
ATOM      6  C   UNL     1       2.096   7.457  20.064  0.00  0.00    +0.000 A 
ENDROOT
BRANCH   4   7
ATOM      7  N   UNL     1      -0.086  10.493  19.795  0.00  0.00    +0.000 N 
ATOM      8  C   UNL     1       0.163  11.457  20.731  0.00  0.00    +0.000 C 
ATOM      9  O   UNL     1       1.244  11.572  21.332  0.00  0.00    +0.000 OA
ATOM     10  N   UNL     1      -0.833  12.327  21.073  0.00  0.00    +0.000 N 
ATOM     11  C   UNL     1      -0.587  13.080  22.304  0.00  0.00    +0.000 C 
ATOM     12  C   UNL     1      -1.921  13.645  22.610  0.00  0.00    +0.000 A 
ATOM     13  C   UNL     1      -2.460  13.976  23.835  0.00  0.00    +0.000 A 
ATOM     14  C   UNL     1      -3.712  14.578  23.841  0.00  0.00    +0.000 A 
ATOM     15  C   UNL     1      -4.334  14.932  22.631  0.00  0.00    +0.000 A 
ATOM     16  C   UNL     1      -3.813  14.502  21.403  0.00  0.00    +0.000 A 
ATOM     17  C   UNL     1      -2.661  13.738  21.432  0.00  0.00    +0.000 A 
ATOM     18  C   UNL     1      -2.101  12.725  20.459  0.00  0.00    +0.000 C 
ATOM     19  H   UNL     1      -1.001  10.463  19.365  0.00  0.00    +0.000 HD
ENDBRANCH   4   7
BRANCH   1  21
ATOM     20  O   UNL     1       3.467   5.165  19.064  0.00  0.00    +0.000 OA
ATOM     21  C   UNL     1       3.568   6.225  18.442  0.00  0.00    +0.000 C 
ATOM     22  N   UNL     1       4.469   6.410  17.418  0.00  0.00    +0.000 N 
ATOM     23  H   UNL     1       4.548   7.306  16.957  0.00  0.00    +0.000 HD
BRANCH  22  24
ATOM     24  C   UNL     1       5.427   5.382  17.037  0.00  0.00    +0.000 C 
ATOM     25  C   UNL     1       4.812   4.230  16.231  0.00  0.00    +0.000 C 
ATOM     26  C   UNL     1       5.886   3.769  15.241  0.00  0.00    +0.000 C 
ATOM     27  C   UNL     1       7.110   4.634  15.507  0.00  0.00    +0.000 C 
ATOM     28  C   UNL     1       6.531   5.908  16.104  0.00  0.00    +0.000 C 
BRANCH  28  29
ATOM     29  O   UNL     1       7.513   6.671  16.786  0.00  0.00    +0.000 OA
ATOM     30  H   UNL     1       7.878   7.325  16.166  0.00  0.00    +0.000 HD
ENDBRANCH  28  29
ENDBRANCH  22  24
ENDBRANCH   1  21
TORSDOF 4
ENDMDL
MODEL 8
REMARK VINA RESULT:      -8.0      1.380      1.815
REMARK  Name = 
REMARK  4 active torsions:
REMARK  status: ('A' for Active; 'I' for Inactive)
REMARK    1  A    between atoms: C_2  and  C_10
REMARK    2  A    between atoms: N_3  and  C_4
REMARK    3  A    between atoms: C_8  and  O_9
REMARK    4  A    between atoms: C_13  and  N_14
REMARK                            x       y       z     vdW  Elec       q    Type
REMARK                         _______ _______ _______ _____ _____    ______ ____
ROOT
ATOM      1  C   UNL     1       2.458   6.997  18.721  0.00  0.00    +0.000 A 
ATOM      2  C   UNL     1       2.204   8.232  18.143  0.00  0.00    +0.000 A 
ATOM      3  C   UNL     1       1.556   9.228  18.884  0.00  0.00    +0.000 A 
ATOM      4  C   UNL     1       1.146   9.039  20.217  0.00  0.00    +0.000 A 
ATOM      5  C   UNL     1       1.447   7.806  20.804  0.00  0.00    +0.000 A 
ATOM      6  C   UNL     1       2.096   6.796  20.064  0.00  0.00    +0.000 A 
ENDROOT
BRANCH   4   7
ATOM      7  N   UNL     1       0.454  10.041  20.977  0.00  0.00    +0.000 N 
ATOM      8  C   UNL     1      -0.654  10.702  20.530  0.00  0.00    +0.000 C 
ATOM      9  O   UNL     1      -1.210  10.463  19.445  0.00  0.00    +0.000 OA
ATOM     10  N   UNL     1      -1.172  11.719  21.281  0.00  0.00    +0.000 N 
ATOM     11  C   UNL     1      -2.123  12.576  20.572  0.00  0.00    +0.000 C 
ATOM     12  C   UNL     1      -2.237  13.746  21.471  0.00  0.00    +0.000 A 
ATOM     13  C   UNL     1      -2.528  15.056  21.154  0.00  0.00    +0.000 A 
ATOM     14  C   UNL     1      -2.664  15.954  22.205  0.00  0.00    +0.000 A 
ATOM     15  C   UNL     1      -2.619  15.500  23.535  0.00  0.00    +0.000 A 
ATOM     16  C   UNL     1      -2.229  14.187  23.832  0.00  0.00    +0.000 A 
ATOM     17  C   UNL     1      -1.913  13.359  22.771  0.00  0.00    +0.000 A 
ATOM     18  C   UNL     1      -1.028  12.137  22.676  0.00  0.00    +0.000 C 
ATOM     19  H   UNL     1       0.851  10.310  21.867  0.00  0.00    +0.000 HD
ENDBRANCH   4   7
BRANCH   1  21
ATOM     20  O   UNL     1       2.551   4.824  17.821  0.00  0.00    +0.000 OA
ATOM     21  C   UNL     1       3.130   5.905  17.955  0.00  0.00    +0.000 C 
ATOM     22  N   UNL     1       4.357   6.171  17.391  0.00  0.00    +0.000 N 
ATOM     23  H   UNL     1       4.818   7.056  17.555  0.00  0.00    +0.000 HD
BRANCH  22  24
ATOM     24  C   UNL     1       5.100   5.164  16.646  0.00  0.00    +0.000 C 
ATOM     25  C   UNL     1       5.438   5.580  15.208  0.00  0.00    +0.000 C 
ATOM     26  C   UNL     1       6.799   4.959  14.883  0.00  0.00    +0.000 C 
ATOM     27  C   UNL     1       7.214   4.171  16.118  0.00  0.00    +0.000 C 
ATOM     28  C   UNL     1       6.481   4.868  17.255  0.00  0.00    +0.000 C 
BRANCH  28  29
ATOM     29  O   UNL     1       6.410   4.059  18.418  0.00  0.00    +0.000 OA
ATOM     30  H   UNL     1       6.953   4.470  19.111  0.00  0.00    +0.000 HD
ENDBRANCH  28  29
ENDBRANCH  22  24
ENDBRANCH   1  21
TORSDOF 4
ENDMDL
MODEL 9
REMARK VINA RESULT:      -8.0      2.337      3.846
REMARK  Name = 
REMARK  4 active torsions:
REMARK  status: ('A' for Active; 'I' for Inactive)
REMARK    1  A    between atoms: C_2  and  C_10
REMARK    2  A    between atoms: N_3  and  C_4
REMARK    3  A    between atoms: C_8  and  O_9
REMARK    4  A    between atoms: C_13  and  N_14
REMARK                            x       y       z     vdW  Elec       q    Type
REMARK                         _______ _______ _______ _____ _____    ______ ____
ROOT
ATOM      1  C   UNL     1       4.527   5.633  17.224  0.00  0.00    +0.000 A 
ATOM      2  C   UNL     1       3.765   5.000  18.196  0.00  0.00    +0.000 A 
ATOM      3  C   UNL     1       2.899   5.749  19.000  0.00  0.00    +0.000 A 
ATOM      4  C   UNL     1       2.751   7.143  18.866  0.00  0.00    +0.000 A 
ATOM      5  C   UNL     1       3.489   7.765  17.855  0.00  0.00    +0.000 A 
ATOM      6  C   UNL     1       4.367   7.018  17.042  0.00  0.00    +0.000 A 
ENDROOT
BRANCH   4   7
ATOM      7  N   UNL     1       1.889   7.927  19.705  0.00  0.00    +0.000 N 
ATOM      8  C   UNL     1       1.181   9.009  19.265  0.00  0.00    +0.000 C 
ATOM      9  O   UNL     1       1.164   9.389  18.083  0.00  0.00    +0.000 OA
ATOM     10  N   UNL     1       0.479   9.757  20.168  0.00  0.00    +0.000 N 
ATOM     11  C   UNL     1       0.048  11.065  19.670  0.00  0.00    +0.000 C 
ATOM     12  C   UNL     1      -0.350  11.768  20.910  0.00  0.00    +0.000 A 
ATOM     13  C   UNL     1      -0.334  13.119  21.182  0.00  0.00    +0.000 A 
ATOM     14  C   UNL     1      -0.848  13.532  22.405  0.00  0.00    +0.000 A 
ATOM     15  C   UNL     1      -1.462  12.605  23.265  0.00  0.00    +0.000 A 
ATOM     16  C   UNL     1      -1.383  11.229  23.011  0.00  0.00    +0.000 A 
ATOM     17  C   UNL     1      -0.699  10.827  21.879  0.00  0.00    +0.000 A 
ATOM     18  C   UNL     1       0.006   9.534  21.535  0.00  0.00    +0.000 C 
ATOM     19  H   UNL     1       1.858   7.696  20.689  0.00  0.00    +0.000 HD
ENDBRANCH   4   7
BRANCH   1  21
ATOM     20  O   UNL     1       6.474   4.358  16.875  0.00  0.00    +0.000 OA
ATOM     21  C   UNL     1       5.476   4.869  16.361  0.00  0.00    +0.000 C 
ATOM     22  N   UNL     1       5.167   4.731  15.026  0.00  0.00    +0.000 N 
ATOM     23  H   UNL     1       4.361   5.196  14.633  0.00  0.00    +0.000 HD
BRANCH  22  24
ATOM     24  C   UNL     1       6.041   4.024  14.100  0.00  0.00    +0.000 C 
ATOM     25  C   UNL     1       5.296   3.323  12.957  0.00  0.00    +0.000 C 
ATOM     26  C   UNL     1       6.208   3.399  11.730  0.00  0.00    +0.000 C 
ATOM     27  C   UNL     1       7.474   4.112  12.184  0.00  0.00    +0.000 C 
ATOM     28  C   UNL     1       7.010   4.961  13.359  0.00  0.00    +0.000 C 
BRANCH  28  29
ATOM     29  O   UNL     1       8.095   5.386  14.169  0.00  0.00    +0.000 OA
ATOM     30  H   UNL     1       7.825   5.321  15.101  0.00  0.00    +0.000 HD
ENDBRANCH  28  29
ENDBRANCH  22  24
ENDBRANCH   1  21
TORSDOF 4
ENDMDL
