MODEL 1
REMARK VINA RESULT:      -7.1      0.000      0.000
REMARK  Name = 
REMARK  5 active torsions:
REMARK  status: ('A' for Active; 'I' for Inactive)
REMARK    1  A    between atoms: C_2  and  C_4
REMARK    2  A    between atoms: C_4  and  O_5
REMARK    3  A    between atoms: O_5  and  C_6
REMARK    4  A    between atoms: C_9  and  C_10
REMARK    5  A    between atoms: C_10  and  N_11
REMARK                            x       y       z     vdW  Elec       q    Type
REMARK                         _______ _______ _______ _____ _____    ______ ____
ROOT
ATOM      1  C   UNL     1       5.214   5.749  17.015  0.00  0.00    +0.000 A 
ATOM      2  C   UNL     1       4.304   6.393  17.858  0.00  0.00    +0.000 A 
ATOM      3  C   UNL     1       3.069   5.810  18.151  0.00  0.00    +0.000 A 
ATOM      4  C   UNL     1       2.721   4.560  17.624  0.00  0.00    +0.000 A 
ATOM      5  C   UNL     1       3.635   3.912  16.780  0.00  0.00    +0.000 A 
ATOM      6  C   UNL     1       4.880   4.488  16.502  0.00  0.00    +0.000 A 
ATOM      7 CL   UNL     1       5.980   3.601  15.505  0.00  0.00    +0.000 Cl
ENDROOT
BRANCH   1   8
ATOM      8  O   UNL     1       6.435   6.278  16.666  0.00  0.00    +0.000 OA
BRANCH   8   9
ATOM      9  C   UNL     1       7.270   6.642  17.762  0.00  0.00    +0.000 C 
BRANCH   9  11
ATOM     10  N   UNL     1       7.915   5.615  19.900  0.00  0.00    +0.000 N 
ATOM     11  C   UNL     1       7.785   5.442  18.555  0.00  0.00    +0.000 C 
ATOM     12  O   UNL     1       8.075   4.374  18.024  0.00  0.00    +0.000 OA
ATOM     13  H   UNL     1       8.224   4.832  20.460  0.00  0.00    +0.000 HD
ATOM     14  H   UNL     1       7.631   6.475  20.349  0.00  0.00    +0.000 HD
ENDBRANCH   9  11
ENDBRANCH   8   9
ENDBRANCH   1   8
BRANCH   4  15
ATOM     15  C   UNL     1       1.400   3.921  17.992  0.00  0.00    +0.000 C 
BRANCH  15  16
ATOM     16  N   UNL     1       1.405   2.976  19.112  0.00  0.00    +0.000 NA
ATOM     17  C   UNL     1       0.872   3.483  20.376  0.00  0.00    +0.000 C 
ATOM     18  C   UNL     1       2.081   3.837  21.223  0.00  0.00    +0.000 C 
ATOM     19  C   UNL     1       3.150   2.861  20.771  0.00  0.00    +0.000 C 
ATOM     20  C   UNL     1       2.700   2.361  19.405  0.00  0.00    +0.000 C 
ENDBRANCH  15  16
ENDBRANCH   4  15
TORSDOF 5
ENDMDL
MODEL 2
REMARK VINA RESULT:      -7.0      2.667      5.373
REMARK  Name = 
REMARK  5 active torsions:
REMARK  status: ('A' for Active; 'I' for Inactive)
REMARK    1  A    between atoms: C_2  and  C_4
REMARK    2  A    between atoms: C_4  and  O_5
REMARK    3  A    between atoms: O_5  and  C_6
REMARK    4  A    between atoms: C_9  and  C_10
REMARK    5  A    between atoms: C_10  and  N_11
REMARK                            x       y       z     vdW  Elec       q    Type
REMARK                         _______ _______ _______ _____ _____    ______ ____
ROOT
ATOM      1  C   UNL     1       2.590   4.700  18.576  0.00  0.00    +0.000 A 
ATOM      2  C   UNL     1       3.039   6.021  18.491  0.00  0.00    +0.000 A 
ATOM      3  C   UNL     1       4.060   6.370  17.604  0.00  0.00    +0.000 A 
ATOM      4  C   UNL     1       4.643   5.411  16.767  0.00  0.00    +0.000 A 
ATOM      5  C   UNL     1       4.191   4.086  16.850  0.00  0.00    +0.000 A 
ATOM      6  C   UNL     1       3.156   3.740  17.725  0.00  0.00    +0.000 A 
ATOM      7 CL   UNL     1       2.608   2.100  17.726  0.00  0.00    +0.000 Cl
ENDROOT
BRANCH   1   8
ATOM      8  O   UNL     1       1.607   4.284  19.444  0.00  0.00    +0.000 OA
BRANCH   8   9
ATOM      9  C   UNL     1       1.940   4.385  20.826  0.00  0.00    +0.000 C 
BRANCH   9  11
ATOM     10  N   UNL     1       1.368   2.452  22.234  0.00  0.00    +0.000 N 
ATOM     11  C   UNL     1       2.318   3.045  21.457  0.00  0.00    +0.000 C 
ATOM     12  O   UNL     1       3.415   2.521  21.288  0.00  0.00    +0.000 OA
ATOM     13  H   UNL     1       1.573   1.550  22.643  0.00  0.00    +0.000 HD
ATOM     14  H   UNL     1       0.447   2.855  22.336  0.00  0.00    +0.000 HD
ENDBRANCH   9  11
ENDBRANCH   8   9
ENDBRANCH   1   8
BRANCH   4  15
ATOM     15  C   UNL     1       5.713   5.818  15.777  0.00  0.00    +0.000 C 
BRANCH  15  16
ATOM     16  N   UNL     1       7.095   5.851  16.265  0.00  0.00    +0.000 NA
ATOM     17  C   UNL     1       7.538   4.668  17.003  0.00  0.00    +0.000 C 
ATOM     18  C   UNL     1       7.460   5.044  18.471  0.00  0.00    +0.000 C 
ATOM     19  C   UNL     1       7.724   6.537  18.487  0.00  0.00    +0.000 C 
ATOM     20  C   UNL     1       7.446   7.020  17.070  0.00  0.00    +0.000 C 
ENDBRANCH  15  16
ENDBRANCH   4  15
TORSDOF 5
ENDMDL
MODEL 3
REMARK VINA RESULT:      -6.7      2.796      5.527
REMARK  Name = 
REMARK  5 active torsions:
REMARK  status: ('A' for Active; 'I' for Inactive)
REMARK    1  A    between atoms: C_2  and  C_4
REMARK    2  A    between atoms: C_4  and  O_5
REMARK    3  A    between atoms: O_5  and  C_6
REMARK    4  A    between atoms: C_9  and  C_10
REMARK    5  A    between atoms: C_10  and  N_11
REMARK                            x       y       z     vdW  Elec       q    Type
REMARK                         _______ _______ _______ _____ _____    ______ ____
ROOT
ATOM      1  C   UNL     1       2.598   4.630  18.371  0.00  0.00    +0.000 A 
ATOM      2  C   UNL     1       3.211   3.752  17.473  0.00  0.00    +0.000 A 
ATOM      3  C   UNL     1       4.222   4.199  16.619  0.00  0.00    +0.000 A 
ATOM      4  C   UNL     1       4.657   5.530  16.654  0.00  0.00    +0.000 A 
ATOM      5  C   UNL     1       4.044   6.410  17.557  0.00  0.00    +0.000 A 
ATOM      6  C   UNL     1       3.044   5.958  18.426  0.00  0.00    +0.000 A 
ATOM      7 CL   UNL     1       2.379   7.086  19.555  0.00  0.00    +0.000 Cl
ENDROOT
BRANCH   1   8
ATOM      8  O   UNL     1       1.581   4.262  19.221  0.00  0.00    +0.000 OA
BRANCH   8   9
ATOM      9  C   UNL     1       1.628   2.911  19.670  0.00  0.00    +0.000 C 
BRANCH   9  11
ATOM     10  N   UNL     1       1.926   2.905  22.110  0.00  0.00    +0.000 N 
ATOM     11  C   UNL     1       2.516   2.712  20.898  0.00  0.00    +0.000 C 
ATOM     12  O   UNL     1       3.700   2.400  20.812  0.00  0.00    +0.000 OA
ATOM     13  H   UNL     1       2.476   2.753  22.945  0.00  0.00    +0.000 HD
ATOM     14  H   UNL     1       0.940   3.114  22.187  0.00  0.00    +0.000 HD
ENDBRANCH   9  11
ENDBRANCH   8   9
ENDBRANCH   1   8
BRANCH   4  15
ATOM     15  C   UNL     1       5.787   5.983  15.757  0.00  0.00    +0.000 C 
BRANCH  15  16
ATOM     16  N   UNL     1       7.144   5.918  16.307  0.00  0.00    +0.000 NA
ATOM     17  C   UNL     1       7.506   4.660  16.960  0.00  0.00    +0.000 C 
ATOM     18  C   UNL     1       7.371   4.913  18.451  0.00  0.00    +0.000 C 
ATOM     19  C   UNL     1       7.689   6.388  18.607  0.00  0.00    +0.000 C 
ATOM     20  C   UNL     1       7.498   7.000  17.226  0.00  0.00    +0.000 C 
ENDBRANCH  15  16
ENDBRANCH   4  15
TORSDOF 5
ENDMDL
MODEL 4
REMARK VINA RESULT:      -6.7      1.531      1.909
REMARK  Name = 
REMARK  5 active torsions:
REMARK  status: ('A' for Active; 'I' for Inactive)
REMARK    1  A    between atoms: C_2  and  C_4
REMARK    2  A    between atoms: C_4  and  O_5
REMARK    3  A    between atoms: O_5  and  C_6
REMARK    4  A    between atoms: C_9  and  C_10
REMARK    5  A    between atoms: C_10  and  N_11
REMARK                            x       y       z     vdW  Elec       q    Type
REMARK                         _______ _______ _______ _____ _____    ______ ____
ROOT
ATOM      1  C   UNL     1       5.146   4.680  17.130  0.00  0.00    +0.000 A 
ATOM      2  C   UNL     1       4.768   3.337  17.210  0.00  0.00    +0.000 A 
ATOM      3  C   UNL     1       3.474   2.984  17.600  0.00  0.00    +0.000 A 
ATOM      4  C   UNL     1       2.522   3.965  17.903  0.00  0.00    +0.000 A 
ATOM      5  C   UNL     1       2.900   5.312  17.821  0.00  0.00    +0.000 A 
ATOM      6  C   UNL     1       4.191   5.666  17.412  0.00  0.00    +0.000 A 
ATOM      7 CL   UNL     1       4.565   7.349  17.272  0.00  0.00    +0.000 Cl
ENDROOT
BRANCH   1   8
ATOM      8  O   UNL     1       6.409   5.096  16.777  0.00  0.00    +0.000 OA
BRANCH   8   9
ATOM      9  C   UNL     1       7.443   4.727  17.685  0.00  0.00    +0.000 C 
BRANCH   9  11
ATOM     10  N   UNL     1       8.023   6.969  18.509  0.00  0.00    +0.000 N 
ATOM     11  C   UNL     1       7.614   5.713  18.840  0.00  0.00    +0.000 C 
ATOM     12  O   UNL     1       7.402   5.404  20.009  0.00  0.00    +0.000 OA
ATOM     13  H   UNL     1       8.118   7.656  19.245  0.00  0.00    +0.000 HD
ATOM     14  H   UNL     1       8.151   7.243  17.544  0.00  0.00    +0.000 HD
ENDBRANCH   9  11
ENDBRANCH   8   9
ENDBRANCH   1   8
BRANCH   4  15
ATOM     15  C   UNL     1       1.112   3.563  18.276  0.00  0.00    +0.000 C 
BRANCH  15  16
ATOM     16  N   UNL     1       0.831   3.359  19.700  0.00  0.00    +0.000 NA
ATOM     17  C   UNL     1       0.984   4.537  20.554  0.00  0.00    +0.000 C 
ATOM     18  C   UNL     1       2.332   4.383  21.234  0.00  0.00    +0.000 C 
ATOM     19  C   UNL     1       2.520   2.882  21.352  0.00  0.00    +0.000 C 
ATOM     20  C   UNL     1       1.571   2.267  20.333  0.00  0.00    +0.000 C 
ENDBRANCH  15  16
ENDBRANCH   4  15
TORSDOF 5
ENDMDL
MODEL 5
REMARK VINA RESULT:      -6.6      2.858      3.430
REMARK  Name = 
REMARK  5 active torsions:
REMARK  status: ('A' for Active; 'I' for Inactive)
REMARK    1  A    between atoms: C_2  and  C_4
REMARK    2  A    between atoms: C_4  and  O_5
REMARK    3  A    between atoms: O_5  and  C_6
REMARK    4  A    between atoms: C_9  and  C_10
REMARK    5  A    between atoms: C_10  and  N_11
REMARK                            x       y       z     vdW  Elec       q    Type
REMARK                         _______ _______ _______ _____ _____    ______ ____
ROOT
ATOM      1  C   UNL     1       6.279   5.608  16.440  0.00  0.00    +0.000 A 
ATOM      2  C   UNL     1       4.995   6.147  16.318  0.00  0.00    +0.000 A 
ATOM      3  C   UNL     1       4.075   6.035  17.363  0.00  0.00    +0.000 A 
ATOM      4  C   UNL     1       4.421   5.398  18.562  0.00  0.00    +0.000 A 
ATOM      5  C   UNL     1       5.710   4.860  18.684  0.00  0.00    +0.000 A 
ATOM      6  C   UNL     1       6.638   4.988  17.645  0.00  0.00    +0.000 A 
ATOM      7 CL   UNL     1       8.228   4.355  17.894  0.00  0.00    +0.000 Cl
ENDROOT
BRANCH   1   8
ATOM      8  O   UNL     1       7.225   5.661  15.442  0.00  0.00    +0.000 OA
BRANCH   8   9
ATOM      9  C   UNL     1       6.960   4.830  14.315  0.00  0.00    +0.000 C 
BRANCH   9  11
ATOM     10  N   UNL     1       7.436   4.604  11.914  0.00  0.00    +0.000 N 
ATOM     11  C   UNL     1       7.801   5.187  13.090  0.00  0.00    +0.000 C 
ATOM     12  O   UNL     1       8.760   5.952  13.146  0.00  0.00    +0.000 OA
ATOM     13  H   UNL     1       7.952   4.841  11.077  0.00  0.00    +0.000 HD
ATOM     14  H   UNL     1       6.619   4.013  11.852  0.00  0.00    +0.000 HD
ENDBRANCH   9  11
ENDBRANCH   8   9
ENDBRANCH   1   8
BRANCH   4  15
ATOM     15  C   UNL     1       3.427   5.331  19.700  0.00  0.00    +0.000 C 
BRANCH  15  16
ATOM     16  N   UNL     1       3.055   3.998  20.182  0.00  0.00    +0.000 NA
ATOM     17  C   UNL     1       2.687   3.028  19.152  0.00  0.00    +0.000 C 
ATOM     18  C   UNL     1       1.169   2.984  19.148  0.00  0.00    +0.000 C 
ATOM     19  C   UNL     1       0.786   3.294  20.582  0.00  0.00    +0.000 C 
ATOM     20  C   UNL     1       2.002   3.972  21.198  0.00  0.00    +0.000 C 
ENDBRANCH  15  16
ENDBRANCH   4  15
TORSDOF 5
ENDMDL
MODEL 6
REMARK VINA RESULT:      -6.5      2.516      3.050
REMARK  Name = 
REMARK  5 active torsions:
REMARK  status: ('A' for Active; 'I' for Inactive)
REMARK    1  A    between atoms: C_2  and  C_4
REMARK    2  A    between atoms: C_4  and  O_5
REMARK    3  A    between atoms: O_5  and  C_6
REMARK    4  A    between atoms: C_9  and  C_10
REMARK    5  A    between atoms: C_10  and  N_11
REMARK                            x       y       z     vdW  Elec       q    Type
REMARK                         _______ _______ _______ _____ _____    ______ ____
ROOT
ATOM      1  C   UNL     1       5.481   4.553  17.360  0.00  0.00    +0.000 A 
ATOM      2  C   UNL     1       4.167   4.352  16.931  0.00  0.00    +0.000 A 
ATOM      3  C   UNL     1       3.089   4.697  17.751  0.00  0.00    +0.000 A 
ATOM      4  C   UNL     1       3.300   5.268  19.012  0.00  0.00    +0.000 A 
ATOM      5  C   UNL     1       4.619   5.472  19.442  0.00  0.00    +0.000 A 
ATOM      6  C   UNL     1       5.698   5.144  18.613  0.00  0.00    +0.000 A 
ATOM      7 CL   UNL     1       7.294   5.484  19.186  0.00  0.00    +0.000 Cl
ENDROOT
BRANCH   1   8
ATOM      8  O   UNL     1       6.586   4.214  16.614  0.00  0.00    +0.000 OA
BRANCH   8   9
ATOM      9  C   UNL     1       7.023   5.212  15.695  0.00  0.00    +0.000 C 
BRANCH   9  11
ATOM     10  N   UNL     1       6.325   3.593  13.982  0.00  0.00    +0.000 N 
ATOM     11  C   UNL     1       7.008   4.742  14.241  0.00  0.00    +0.000 C 
ATOM     12  O   UNL     1       7.581   5.354  13.344  0.00  0.00    +0.000 OA
ATOM     13  H   UNL     1       6.269   3.269  13.026  0.00  0.00    +0.000 HD
ATOM     14  H   UNL     1       5.811   3.112  14.708  0.00  0.00    +0.000 HD
ENDBRANCH   9  11
ENDBRANCH   8   9
ENDBRANCH   1   8
BRANCH   4  15
ATOM     15  C   UNL     1       2.121   5.679  19.865  0.00  0.00    +0.000 C 
BRANCH  15  16
ATOM     16  N   UNL     1       1.460   4.627  20.643  0.00  0.00    +0.000 NA
ATOM     17  C   UNL     1       2.295   3.949  21.634  0.00  0.00    +0.000 C 
ATOM     18  C   UNL     1       2.704   2.632  20.998  0.00  0.00    +0.000 C 
ATOM     19  C   UNL     1       1.544   2.285  20.085  0.00  0.00    +0.000 C 
ATOM     20  C   UNL     1       0.795   3.590  19.853  0.00  0.00    +0.000 C 
ENDBRANCH  15  16
ENDBRANCH   4  15
TORSDOF 5
ENDMDL
MODEL 7
REMARK VINA RESULT:      -6.5      2.544      3.170
REMARK  Name = 
REMARK  5 active torsions:
REMARK  status: ('A' for Active; 'I' for Inactive)
REMARK    1  A    between atoms: C_2  and  C_4
REMARK    2  A    between atoms: C_4  and  O_5
REMARK    3  A    between atoms: O_5  and  C_6
REMARK    4  A    between atoms: C_9  and  C_10
REMARK    5  A    between atoms: C_10  and  N_11
REMARK                            x       y       z     vdW  Elec       q    Type
REMARK                         _______ _______ _______ _____ _____    ______ ____
ROOT
ATOM      1  C   UNL     1       5.900   5.836  17.133  0.00  0.00    +0.000 A 
ATOM      2  C   UNL     1       4.554   5.862  16.759  0.00  0.00    +0.000 A 
ATOM      3  C   UNL     1       3.550   5.613  17.698  0.00  0.00    +0.000 A 
ATOM      4  C   UNL     1       3.866   5.350  19.036  0.00  0.00    +0.000 A 
ATOM      5  C   UNL     1       5.216   5.327  19.412  0.00  0.00    +0.000 A 
ATOM      6  C   UNL     1       6.222   5.595  18.476  0.00  0.00    +0.000 A 
ATOM      7 CL   UNL     1       7.861   5.611  19.028  0.00  0.00    +0.000 Cl
ENDROOT
BRANCH   1   8
ATOM      8  O   UNL     1       6.939   6.048  16.256  0.00  0.00    +0.000 OA
BRANCH   8   9
ATOM      9  C   UNL     1       7.424   4.879  15.601  0.00  0.00    +0.000 C 
BRANCH   9  11
ATOM     10  N   UNL     1       7.748   5.470  13.237  0.00  0.00    +0.000 N 
ATOM     11  C   UNL     1       6.993   4.782  14.138  0.00  0.00    +0.000 C 
ATOM     12  O   UNL     1       6.017   4.129  13.779  0.00  0.00    +0.000 OA
ATOM     13  H   UNL     1       7.510   5.404  12.257  0.00  0.00    +0.000 HD
ATOM     14  H   UNL     1       8.580   5.969  13.521  0.00  0.00    +0.000 HD
ENDBRANCH   9  11
ENDBRANCH   8   9
ENDBRANCH   1   8
BRANCH   4  15
ATOM     15  C   UNL     1       2.763   5.132  20.048  0.00  0.00    +0.000 C 
BRANCH  15  16
ATOM     16  N   UNL     1       2.379   3.745  20.328  0.00  0.00    +0.000 NA
ATOM     17  C   UNL     1       3.113   2.720  19.586  0.00  0.00    +0.000 C 
ATOM     18  C   UNL     1       2.198   2.296  18.451  0.00  0.00    +0.000 C 
ATOM     19  C   UNL     1       0.801   2.490  19.009  0.00  0.00    +0.000 C 
ATOM     20  C   UNL     1       0.954   3.448  20.181  0.00  0.00    +0.000 C 
ENDBRANCH  15  16
ENDBRANCH   4  15
TORSDOF 5
ENDMDL
MODEL 8
REMARK VINA RESULT:      -6.5      2.472      3.153
REMARK  Name = 
REMARK  5 active torsions:
REMARK  status: ('A' for Active; 'I' for Inactive)
REMARK    1  A    between atoms: C_2  and  C_4
REMARK    2  A    between atoms: C_4  and  O_5
REMARK    3  A    between atoms: O_5  and  C_6
REMARK    4  A    between atoms: C_9  and  C_10
REMARK    5  A    between atoms: C_10  and  N_11
REMARK                            x       y       z     vdW  Elec       q    Type
REMARK                         _______ _______ _______ _____ _____    ______ ____
ROOT
ATOM      1  C   UNL     1       5.190   5.194  17.140  0.00  0.00    +0.000 A 
ATOM      2  C   UNL     1       4.044   4.414  16.965  0.00  0.00    +0.000 A 
ATOM      3  C   UNL     1       3.624   3.533  17.964  0.00  0.00    +0.000 A 
ATOM      4  C   UNL     1       4.329   3.424  19.170  0.00  0.00    +0.000 A 
ATOM      5  C   UNL     1       5.477   4.209  19.346  0.00  0.00    +0.000 A 
ATOM      6  C   UNL     1       5.887   5.106  18.353  0.00  0.00    +0.000 A 
ATOM      7 CL   UNL     1       7.276   6.087  18.668  0.00  0.00    +0.000 Cl
ENDROOT
BRANCH   1   8
ATOM      8  O   UNL     1       5.672   6.063  16.188  0.00  0.00    +0.000 OA
BRANCH   8   9
ATOM      9  C   UNL     1       5.512   5.630  14.840  0.00  0.00    +0.000 C 
BRANCH   9  11
ATOM     10  N   UNL     1       6.434   3.557  13.894  0.00  0.00    +0.000 N 
ATOM     11  C   UNL     1       6.701   4.824  14.317  0.00  0.00    +0.000 C 
ATOM     12  O   UNL     1       7.841   5.277  14.280  0.00  0.00    +0.000 OA
ATOM     13  H   UNL     1       7.192   3.005  13.514  0.00  0.00    +0.000 HD
ATOM     14  H   UNL     1       5.490   3.197  13.876  0.00  0.00    +0.000 HD
ENDBRANCH   9  11
ENDBRANCH   8   9
ENDBRANCH   1   8
BRANCH   4  15
ATOM     15  C   UNL     1       3.830   2.501  20.260  0.00  0.00    +0.000 C 
BRANCH  15  16
ATOM     16  N   UNL     1       2.768   3.011  21.131  0.00  0.00    +0.000 NA
ATOM     17  C   UNL     1       1.442   2.430  20.924  0.00  0.00    +0.000 C 
ATOM     18  C   UNL     1       0.669   3.445  20.102  0.00  0.00    +0.000 C 
ATOM     19  C   UNL     1       1.254   4.782  20.517  0.00  0.00    +0.000 C 
ATOM     20  C   UNL     1       2.608   4.465  21.137  0.00  0.00    +0.000 C 
ENDBRANCH  15  16
ENDBRANCH   4  15
TORSDOF 5
ENDMDL
MODEL 9
REMARK VINA RESULT:      -6.4      1.690      1.988
REMARK  Name = 
REMARK  5 active torsions:
REMARK  status: ('A' for Active; 'I' for Inactive)
REMARK    1  A    between atoms: C_2  and  C_4
REMARK    2  A    between atoms: C_4  and  O_5
REMARK    3  A    between atoms: O_5  and  C_6
REMARK    4  A    between atoms: C_9  and  C_10
REMARK    5  A    between atoms: C_10  and  N_11
REMARK                            x       y       z     vdW  Elec       q    Type
REMARK                         _______ _______ _______ _____ _____    ______ ____
ROOT
ATOM      1  C   UNL     1       4.735   6.035  17.489  0.00  0.00    +0.000 A 
ATOM      2  C   UNL     1       4.863   4.644  17.441  0.00  0.00    +0.000 A 
ATOM      3  C   UNL     1       3.761   3.819  17.676  0.00  0.00    +0.000 A 
ATOM      4  C   UNL     1       2.499   4.365  17.947  0.00  0.00    +0.000 A 
ATOM      5  C   UNL     1       2.370   5.760  17.992  0.00  0.00    +0.000 A 
ATOM      6  C   UNL     1       3.471   6.586  17.738  0.00  0.00    +0.000 A 
ATOM      7 CL   UNL     1       3.220   8.298  17.749  0.00  0.00    +0.000 Cl
ENDROOT
BRANCH   1   8
ATOM      8  O   UNL     1       5.784   6.903  17.292  0.00  0.00    +0.000 OA
BRANCH   8   9
ATOM      9  C   UNL     1       7.071   6.295  17.244  0.00  0.00    +0.000 C 
BRANCH   9  11
ATOM     10  N   UNL     1       8.450   7.482  18.896  0.00  0.00    +0.000 N 
ATOM     11  C   UNL     1       7.805   6.324  18.584  0.00  0.00    +0.000 C 
ATOM     12  O   UNL     1       7.826   5.362  19.347  0.00  0.00    +0.000 OA
ATOM     13  H   UNL     1       8.921   7.547  19.789  0.00  0.00    +0.000 HD
ATOM     14  H   UNL     1       8.395   8.293  18.295  0.00  0.00    +0.000 HD
ENDBRANCH   9  11
ENDBRANCH   8   9
ENDBRANCH   1   8
BRANCH   4  15
ATOM     15  C   UNL     1       1.307   3.456  18.150  0.00  0.00    +0.000 C 
BRANCH  15  16
ATOM     16  N   UNL     1       0.982   3.081  19.529  0.00  0.00    +0.000 NA
ATOM     17  C   UNL     1       0.876   4.186  20.481  0.00  0.00    +0.000 C 
ATOM     18  C   UNL     1       2.187   4.201  21.245  0.00  0.00    +0.000 C 
ATOM     19  C   UNL     1       2.625   2.749  21.259  0.00  0.00    +0.000 C 
ATOM     20  C   UNL     1       1.861   2.076  20.128  0.00  0.00    +0.000 C 
ENDBRANCH  15  16
ENDBRANCH   4  15
TORSDOF 5
ENDMDL
