MODEL 1
REMARK VINA RESULT:      -9.9      0.000      0.000
REMARK  Name = 
REMARK  6 active torsions:
REMARK  status: ('A' for Active; 'I' for Inactive)
REMARK    1  A    between atoms: C_1  and  N_2
REMARK    2  A    between atoms: C_8  and  C_9
REMARK    3  A    between atoms: C_11  and  N_12
REMARK    4  A    between atoms: N_12  and  C_13
REMARK    5  A    between atoms: C_13  and  C_14
REMARK    6  A    between atoms: C_13  and  C_20
REMARK                            x       y       z     vdW  Elec       q    Type
REMARK                         _______ _______ _______ _____ _____    ______ ____
ROOT
ATOM      1  C   UNL     1       2.593   5.722  18.654  0.00  0.00    +0.000 A 
ATOM      2  C   UNL     1       3.154   5.373  17.399  0.00  0.00    +0.000 A 
ATOM      3  C   UNL     1       3.842   4.181  17.181  0.00  0.00    +0.000 A 
ATOM      4  C   UNL     1       3.808   3.242  18.208  0.00  0.00    +0.000 A 
ATOM      5  C   UNL     1       3.176   3.482  19.421  0.00  0.00    +0.000 A 
ATOM      6  N   UNL     1       3.173   2.485  20.331  0.00  0.00    +0.000 NA
ATOM      7  C   UNL     1       2.581   2.738  21.516  0.00  0.00    +0.000 A 
ATOM      8  C   UNL     1       2.032   3.965  21.802  0.00  0.00    +0.000 A 
ATOM      9  N   UNL     1       2.033   4.972  20.907  0.00  0.00    +0.000 NA
ATOM     10  C   UNL     1       2.585   4.747  19.681  0.00  0.00    +0.000 A 
ENDROOT
BRANCH   1  18
ATOM     11  C   UNL     1       0.760   9.182  22.658  0.00  0.00    +0.000 C 
ATOM     12  N   UNL     1       0.944   9.718  21.329  0.00  0.00    +0.000 N 
ATOM     13  C   UNL     1       0.751  11.030  20.982  0.00  0.00    +0.000 A 
ATOM     14  C   UNL     1       1.002  11.149  19.634  0.00  0.00    +0.000 A 
ATOM     15  C   UNL     1       1.380   9.868  19.152  0.00  0.00    +0.000 A 
ATOM     16  C   UNL     1       1.765   9.382  17.895  0.00  0.00    +0.000 A 
ATOM     17  C   UNL     1       2.144   8.038  17.772  0.00  0.00    +0.000 A 
ATOM     18  C   UNL     1       2.120   7.131  18.851  0.00  0.00    +0.000 A 
ATOM     19  C   UNL     1       1.682   7.623  20.096  0.00  0.00    +0.000 A 
ATOM     20  C   UNL     1       1.343   8.985  20.230  0.00  0.00    +0.000 A 
ENDBRANCH   1  18
BRANCH   3  21
ATOM     21  N   UNL     1       4.521   3.993  15.978  0.00  0.00    +0.000 N 
ATOM     22  H   UNL     1       3.975   3.593  15.224  0.00  0.00    +0.000 HD
BRANCH  21  23
ATOM     23  C   UNL     1       5.522   4.966  15.518  0.00  0.00    +0.000 C 
BRANCH  23  24
ATOM     24  C   UNL     1       6.481   5.190  16.685  0.00  0.00    +0.000 A 
ATOM     25  C   UNL     1       6.658   6.518  17.265  0.00  0.00    +0.000 A 
ATOM     26  C   UNL     1       7.388   6.700  18.377  0.00  0.00    +0.000 A 
ATOM     27  C   UNL     1       8.055   5.539  19.015  0.00  0.00    +0.000 A 
ATOM     28  O   UNL     1       8.694   5.661  20.055  0.00  0.00    +0.000 OA
ATOM     29  N   UNL     1       7.905   4.339  18.370  0.00  0.00    +0.000 N 
ATOM     30  C   UNL     1       7.138   4.160  17.247  0.00  0.00    +0.000 A 
ATOM     31  H   UNL     1       8.373   3.548  18.798  0.00  0.00    +0.000 HD
ENDBRANCH  23  24
BRANCH  23  32
ATOM     32  C   UNL     1       6.208   4.579  14.206  0.00  0.00    +0.000 A 
ATOM     33  C   UNL     1       5.681   3.646  13.303  0.00  0.00    +0.000 A 
ATOM     34  C   UNL     1       6.279   3.451  12.055  0.00  0.00    +0.000 A 
ATOM     35  C   UNL     1       7.395   4.202  11.732  0.00  0.00    +0.000 A 
ATOM     36  N   UNL     1       7.941   5.108  12.564  0.00  0.00    +0.000 NA
ATOM     37  C   UNL     1       7.335   5.282  13.762  0.00  0.00    +0.000 A 
ENDBRANCH  23  32
ENDBRANCH  21  23
ENDBRANCH   3  21
TORSDOF 5
ENDMDL
MODEL 2
REMARK VINA RESULT:      -9.8      0.884      1.084
REMARK  Name = 
REMARK  6 active torsions:
REMARK  status: ('A' for Active; 'I' for Inactive)
REMARK    1  A    between atoms: C_1  and  N_2
REMARK    2  A    between atoms: C_8  and  C_9
REMARK    3  A    between atoms: C_11  and  N_12
REMARK    4  A    between atoms: N_12  and  C_13
REMARK    5  A    between atoms: C_13  and  C_14
REMARK    6  A    between atoms: C_13  and  C_20
REMARK                            x       y       z     vdW  Elec       q    Type
REMARK                         _______ _______ _______ _____ _____    ______ ____
ROOT
ATOM      1  C   UNL     1       2.663   5.493  18.763  0.00  0.00    +0.000 A 
ATOM      2  C   UNL     1       3.348   5.138  17.573  0.00  0.00    +0.000 A 
ATOM      3  C   UNL     1       4.075   3.957  17.440  0.00  0.00    +0.000 A 
ATOM      4  C   UNL     1       3.960   3.032  18.473  0.00  0.00    +0.000 A 
ATOM      5  C   UNL     1       3.210   3.276  19.617  0.00  0.00    +0.000 A 
ATOM      6  N   UNL     1       3.137   2.291  20.537  0.00  0.00    +0.000 NA
ATOM      7  C   UNL     1       2.429   2.549  21.655  0.00  0.00    +0.000 A 
ATOM      8  C   UNL     1       1.834   3.768  21.869  0.00  0.00    +0.000 A 
ATOM      9  N   UNL     1       1.902   4.763  20.964  0.00  0.00    +0.000 NA
ATOM     10  C   UNL     1       2.573   4.533  19.799  0.00  0.00    +0.000 A 
ENDROOT
BRANCH   1  18
ATOM     11  C   UNL     1       0.823   9.121  22.613  0.00  0.00    +0.000 C 
ATOM     12  N   UNL     1       0.953   9.584  21.250  0.00  0.00    +0.000 N 
ATOM     13  C   UNL     1       0.706  10.866  20.834  0.00  0.00    +0.000 A 
ATOM     14  C   UNL     1       0.916  10.914  19.475  0.00  0.00    +0.000 A 
ATOM     15  C   UNL     1       1.325   9.620  19.056  0.00  0.00    +0.000 A 
ATOM     16  C   UNL     1       1.691   9.074  17.819  0.00  0.00    +0.000 A 
ATOM     17  C   UNL     1       2.112   7.738  17.762  0.00  0.00    +0.000 A 
ATOM     18  C   UNL     1       2.148   6.895  18.893  0.00  0.00    +0.000 A 
ATOM     19  C   UNL     1       1.727   7.445  20.119  0.00  0.00    +0.000 A 
ATOM     20  C   UNL     1       1.347   8.801  20.185  0.00  0.00    +0.000 A 
ENDBRANCH   1  18
BRANCH   3  21
ATOM     21  N   UNL     1       4.870   3.767  16.310  0.00  0.00    +0.000 N 
ATOM     22  H   UNL     1       4.619   2.978  15.726  0.00  0.00    +0.000 HD
BRANCH  21  23
ATOM     23  C   UNL     1       5.385   4.913  15.550  0.00  0.00    +0.000 C 
BRANCH  23  24
ATOM     24  C   UNL     1       6.206   5.752  16.527  0.00  0.00    +0.000 A 
ATOM     25  C   UNL     1       7.090   5.116  17.500  0.00  0.00    +0.000 A 
ATOM     26  C   UNL     1       7.919   5.845  18.266  0.00  0.00    +0.000 A 
ATOM     27  C   UNL     1       7.919   7.323  18.148  0.00  0.00    +0.000 A 
ATOM     28  O   UNL     1       8.692   8.016  18.800  0.00  0.00    +0.000 OA
ATOM     29  N   UNL     1       7.008   7.849  17.269  0.00  0.00    +0.000 N 
ATOM     30  C   UNL     1       6.182   7.095  16.475  0.00  0.00    +0.000 A 
ATOM     31  H   UNL     1       6.998   8.860  17.199  0.00  0.00    +0.000 HD
ENDBRANCH  23  24
BRANCH  23  32
ATOM     32  C   UNL     1       6.132   4.527  14.271  0.00  0.00    +0.000 A 
ATOM     33  C   UNL     1       5.645   3.598  13.342  0.00  0.00    +0.000 A 
ATOM     34  C   UNL     1       6.302   3.404  12.124  0.00  0.00    +0.000 A 
ATOM     35  C   UNL     1       7.436   4.150  11.857  0.00  0.00    +0.000 A 
ATOM     36  N   UNL     1       7.945   5.051  12.717  0.00  0.00    +0.000 NA
ATOM     37  C   UNL     1       7.282   5.225  13.884  0.00  0.00    +0.000 A 
ENDBRANCH  23  32
ENDBRANCH  21  23
ENDBRANCH   3  21
TORSDOF 5
ENDMDL
MODEL 3
REMARK VINA RESULT:      -9.8      1.754      3.576
REMARK  Name = 
REMARK  6 active torsions:
REMARK  status: ('A' for Active; 'I' for Inactive)
REMARK    1  A    between atoms: C_1  and  N_2
REMARK    2  A    between atoms: C_8  and  C_9
REMARK    3  A    between atoms: C_11  and  N_12
REMARK    4  A    between atoms: N_12  and  C_13
REMARK    5  A    between atoms: C_13  and  C_14
REMARK    6  A    between atoms: C_13  and  C_20
REMARK                            x       y       z     vdW  Elec       q    Type
REMARK                         _______ _______ _______ _____ _____    ______ ____
ROOT
ATOM      1  C   UNL     1       2.718   5.714  18.655  0.00  0.00    +0.000 A 
ATOM      2  C   UNL     1       3.339   5.379  17.425  0.00  0.00    +0.000 A 
ATOM      3  C   UNL     1       4.064   4.204  17.237  0.00  0.00    +0.000 A 
ATOM      4  C   UNL     1       4.010   3.265  18.262  0.00  0.00    +0.000 A 
ATOM      5  C   UNL     1       3.323   3.489  19.448  0.00  0.00    +0.000 A 
ATOM      6  N   UNL     1       3.305   2.492  20.357  0.00  0.00    +0.000 NA
ATOM      7  C   UNL     1       2.658   2.730  21.516  0.00  0.00    +0.000 A 
ATOM      8  C   UNL     1       2.069   3.943  21.778  0.00  0.00    +0.000 A 
ATOM      9  N   UNL     1       2.083   4.950  20.883  0.00  0.00    +0.000 NA
ATOM     10  C   UNL     1       2.690   4.739  19.681  0.00  0.00    +0.000 A 
ENDROOT
BRANCH   1  18
ATOM     11  C   UNL     1       0.793   9.182  22.609  0.00  0.00    +0.000 C 
ATOM     12  N   UNL     1       0.956   9.702  21.271  0.00  0.00    +0.000 N 
ATOM     13  C   UNL     1       0.723  11.001  20.903  0.00  0.00    +0.000 A 
ATOM     14  C   UNL     1       0.966  11.105  19.552  0.00  0.00    +0.000 A 
ATOM     15  C   UNL     1       1.382   9.829  19.090  0.00  0.00    +0.000 A 
ATOM     16  C   UNL     1       1.777   9.334  17.840  0.00  0.00    +0.000 A 
ATOM     17  C   UNL     1       2.197   8.001  17.737  0.00  0.00    +0.000 A 
ATOM     18  C   UNL     1       2.203   7.111  18.831  0.00  0.00    +0.000 A 
ATOM     19  C   UNL     1       1.754   7.610  20.069  0.00  0.00    +0.000 A 
ATOM     20  C   UNL     1       1.375   8.963  20.182  0.00  0.00    +0.000 A 
ENDBRANCH   1  18
BRANCH   3  21
ATOM     21  N   UNL     1       4.797   4.033  16.063  0.00  0.00    +0.000 N 
ATOM     22  H   UNL     1       4.360   4.385  15.218  0.00  0.00    +0.000 HD
BRANCH  21  23
ATOM     23  C   UNL     1       6.260   4.168  16.061  0.00  0.00    +0.000 C 
BRANCH  23  24
ATOM     24  C   UNL     1       6.681   4.345  14.604  0.00  0.00    +0.000 A 
ATOM     25  C   UNL     1       6.018   3.602  13.537  0.00  0.00    +0.000 A 
ATOM     26  C   UNL     1       6.283   3.854  12.245  0.00  0.00    +0.000 A 
ATOM     27  C   UNL     1       7.289   4.884  11.890  0.00  0.00    +0.000 A 
ATOM     28  O   UNL     1       7.525   5.169  10.720  0.00  0.00    +0.000 OA
ATOM     29  N   UNL     1       7.923   5.484  12.946  0.00  0.00    +0.000 N 
ATOM     30  C   UNL     1       7.629   5.235  14.262  0.00  0.00    +0.000 A 
ATOM     31  H   UNL     1       8.622   6.177  12.703  0.00  0.00    +0.000 HD
ENDBRANCH  23  24
BRANCH  23  32
ATOM     32  C   UNL     1       6.786   5.253  17.004  0.00  0.00    +0.000 A 
ATOM     33  C   UNL     1       7.475   4.977  18.193  0.00  0.00    +0.000 A 
ATOM     34  C   UNL     1       8.059   6.011  18.929  0.00  0.00    +0.000 A 
ATOM     35  C   UNL     1       7.945   7.306  18.457  0.00  0.00    +0.000 A 
ATOM     36  N   UNL     1       7.292   7.624  17.324  0.00  0.00    +0.000 NA
ATOM     37  C   UNL     1       6.745   6.600  16.627  0.00  0.00    +0.000 A 
ENDBRANCH  23  32
ENDBRANCH  21  23
ENDBRANCH   3  21
TORSDOF 5
ENDMDL
MODEL 4
REMARK VINA RESULT:      -9.2      3.194      5.999
REMARK  Name = 
REMARK  6 active torsions:
REMARK  status: ('A' for Active; 'I' for Inactive)
REMARK    1  A    between atoms: C_1  and  N_2
REMARK    2  A    between atoms: C_8  and  C_9
REMARK    3  A    between atoms: C_11  and  N_12
REMARK    4  A    between atoms: N_12  and  C_13
REMARK    5  A    between atoms: C_13  and  C_14
REMARK    6  A    between atoms: C_13  and  C_20
REMARK                            x       y       z     vdW  Elec       q    Type
REMARK                         _______ _______ _______ _____ _____    ______ ____
ROOT
ATOM      1  C   UNL     1       1.270  10.832  19.486  0.00  0.00    +0.000 A 
ATOM      2  C   UNL     1       1.767   9.788  18.664  0.00  0.00    +0.000 A 
ATOM      3  C   UNL     1       1.818   8.458  19.077  0.00  0.00    +0.000 A 
ATOM      4  C   UNL     1       1.189   8.152  20.280  0.00  0.00    +0.000 A 
ATOM      5  C   UNL     1       0.585   9.116  21.076  0.00  0.00    +0.000 A 
ATOM      6  N   UNL     1      -0.029   8.699  22.204  0.00  0.00    +0.000 NA
ATOM      7  C   UNL     1      -0.588   9.647  22.983  0.00  0.00    +0.000 A 
ATOM      8  C   UNL     1      -0.512  10.981  22.666  0.00  0.00    +0.000 A 
ATOM      9  N   UNL     1       0.102  11.414  21.548  0.00  0.00    +0.000 NA
ATOM     10  C   UNL     1       0.646  10.487  20.708  0.00  0.00    +0.000 A 
ENDROOT
BRANCH   1  18
ATOM     11  C   UNL     1      -1.010  15.937  19.817  0.00  0.00    +0.000 C 
ATOM     12  N   UNL     1       0.280  15.809  19.179  0.00  0.00    +0.000 N 
ATOM     13  C   UNL     1       1.016  16.856  18.690  0.00  0.00    +0.000 A 
ATOM     14  C   UNL     1       2.167  16.339  18.141  0.00  0.00    +0.000 A 
ATOM     15  C   UNL     1       2.137  14.932  18.322  0.00  0.00    +0.000 A 
ATOM     16  C   UNL     1       3.021  13.894  17.997  0.00  0.00    +0.000 A 
ATOM     17  C   UNL     1       2.706  12.584  18.384  0.00  0.00    +0.000 A 
ATOM     18  C   UNL     1       1.512  12.248  19.055  0.00  0.00    +0.000 A 
ATOM     19  C   UNL     1       0.610  13.295  19.329  0.00  0.00    +0.000 A 
ATOM     20  C   UNL     1       0.948  14.619  18.980  0.00  0.00    +0.000 A 
ENDBRANCH   1  18
BRANCH   3  21
ATOM     21  N   UNL     1       2.486   7.523  18.288  0.00  0.00    +0.000 N 
ATOM     22  H   UNL     1       2.827   7.865  17.397  0.00  0.00    +0.000 HD
BRANCH  21  23
ATOM     23  C   UNL     1       3.361   6.511  18.897  0.00  0.00    +0.000 C 
BRANCH  23  24
ATOM     24  C   UNL     1       2.564   5.210  18.934  0.00  0.00    +0.000 A 
ATOM     25  C   UNL     1       1.954   4.740  20.176  0.00  0.00    +0.000 A 
ATOM     26  C   UNL     1       1.136   3.675  20.189  0.00  0.00    +0.000 A 
ATOM     27  C   UNL     1       0.867   2.940  18.929  0.00  0.00    +0.000 A 
ATOM     28  O   UNL     1       0.092   1.990  18.896  0.00  0.00    +0.000 OA
ATOM     29  N   UNL     1       1.534   3.395  17.822  0.00  0.00    +0.000 N 
ATOM     30  C   UNL     1       2.351   4.497  17.814  0.00  0.00    +0.000 A 
ATOM     31  H   UNL     1       1.362   2.884  16.964  0.00  0.00    +0.000 HD
ENDBRANCH  23  24
BRANCH  23  32
ATOM     32  C   UNL     1       4.732   6.390  18.227  0.00  0.00    +0.000 A 
ATOM     33  C   UNL     1       5.790   5.641  18.761  0.00  0.00    +0.000 A 
ATOM     34  C   UNL     1       6.963   5.449  18.026  0.00  0.00    +0.000 A 
ATOM     35  C   UNL     1       7.052   6.008  16.763  0.00  0.00    +0.000 A 
ATOM     36  N   UNL     1       6.066   6.736  16.208  0.00  0.00    +0.000 NA
ATOM     37  C   UNL     1       4.939   6.898  16.940  0.00  0.00    +0.000 A 
ENDBRANCH  23  32
ENDBRANCH  21  23
ENDBRANCH   3  21
TORSDOF 5
ENDMDL
MODEL 5
REMARK VINA RESULT:      -9.1      3.257      6.206
REMARK  Name = 
REMARK  6 active torsions:
REMARK  status: ('A' for Active; 'I' for Inactive)
REMARK    1  A    between atoms: C_1  and  N_2
REMARK    2  A    between atoms: C_8  and  C_9
REMARK    3  A    between atoms: C_11  and  N_12
REMARK    4  A    between atoms: N_12  and  C_13
REMARK    5  A    between atoms: C_13  and  C_14
REMARK    6  A    between atoms: C_13  and  C_20
REMARK                            x       y       z     vdW  Elec       q    Type
REMARK                         _______ _______ _______ _____ _____    ______ ____
ROOT
ATOM      1  C   UNL     1       1.146  11.049  19.673  0.00  0.00    +0.000 A 
ATOM      2  C   UNL     1       1.671  10.047  18.817  0.00  0.00    +0.000 A 
ATOM      3  C   UNL     1       1.755   8.705  19.184  0.00  0.00    +0.000 A 
ATOM      4  C   UNL     1       1.132   8.341  20.373  0.00  0.00    +0.000 A 
ATOM      5  C   UNL     1       0.501   9.262  21.201  0.00  0.00    +0.000 A 
ATOM      6  N   UNL     1      -0.104   8.790  22.311  0.00  0.00    +0.000 NA
ATOM      7  C   UNL     1      -0.689   9.696  23.121  0.00  0.00    +0.000 A 
ATOM      8  C   UNL     1      -0.647  11.042  22.850  0.00  0.00    +0.000 A 
ATOM      9  N   UNL     1      -0.041  11.528  21.750  0.00  0.00    +0.000 NA
ATOM     10  C   UNL     1       0.528  10.645  20.881  0.00  0.00    +0.000 A 
ENDROOT
BRANCH   1  18
ATOM     11  C   UNL     1       5.161  14.582  18.012  0.00  0.00    +0.000 C 
ATOM     12  N   UNL     1       3.806  15.078  18.080  0.00  0.00    +0.000 N 
ATOM     13  C   UNL     1       3.417  16.341  17.718  0.00  0.00    +0.000 A 
ATOM     14  C   UNL     1       2.064  16.444  17.943  0.00  0.00    +0.000 A 
ATOM     15  C   UNL     1       1.613  15.192  18.438  0.00  0.00    +0.000 A 
ATOM     16  C   UNL     1       0.359  14.697  18.819  0.00  0.00    +0.000 A 
ATOM     17  C   UNL     1       0.247  13.358  19.217  0.00  0.00    +0.000 A 
ATOM     18  C   UNL     1       1.352  12.484  19.292  0.00  0.00    +0.000 A 
ATOM     19  C   UNL     1       2.614  13.012  18.955  0.00  0.00    +0.000 A 
ATOM     20  C   UNL     1       2.719  14.347  18.512  0.00  0.00    +0.000 A 
ENDBRANCH   1  18
BRANCH   3  21
ATOM     21  N   UNL     1       2.449   7.815  18.365  0.00  0.00    +0.000 N 
ATOM     22  H   UNL     1       2.875   8.220  17.540  0.00  0.00    +0.000 HD
BRANCH  21  23
ATOM     23  C   UNL     1       3.231   6.713  18.942  0.00  0.00    +0.000 C 
BRANCH  23  24
ATOM     24  C   UNL     1       2.318   5.489  18.951  0.00  0.00    +0.000 A 
ATOM     25  C   UNL     1       1.961   4.811  17.708  0.00  0.00    +0.000 A 
ATOM     26  C   UNL     1       1.277   3.655  17.719  0.00  0.00    +0.000 A 
ATOM     27  C   UNL     1       0.847   3.068  19.010  0.00  0.00    +0.000 A 
ATOM     28  O   UNL     1       0.258   1.993  19.059  0.00  0.00    +0.000 OA
ATOM     29  N   UNL     1       1.152   3.801  20.127  0.00  0.00    +0.000 N 
ATOM     30  C   UNL     1       1.871   4.969  20.108  0.00  0.00    +0.000 A 
ATOM     31  H   UNL     1       0.845   3.407  21.009  0.00  0.00    +0.000 HD
ENDBRANCH  23  24
BRANCH  23  32
ATOM     32  C   UNL     1       4.582   6.485  18.261  0.00  0.00    +0.000 A 
ATOM     33  C   UNL     1       5.564   5.618  18.762  0.00  0.00    +0.000 A 
ATOM     34  C   UNL     1       6.711   5.341  18.013  0.00  0.00    +0.000 A 
ATOM     35  C   UNL     1       6.851   5.936  16.772  0.00  0.00    +0.000 A 
ATOM     36  N   UNL     1       5.940   6.776  16.249  0.00  0.00    +0.000 NA
ATOM     37  C   UNL     1       4.834   7.018  16.992  0.00  0.00    +0.000 A 
ENDBRANCH  23  32
ENDBRANCH  21  23
ENDBRANCH   3  21
TORSDOF 5
ENDMDL
MODEL 6
REMARK VINA RESULT:      -9.1      3.194      6.257
REMARK  Name = 
REMARK  6 active torsions:
REMARK  status: ('A' for Active; 'I' for Inactive)
REMARK    1  A    between atoms: C_1  and  N_2
REMARK    2  A    between atoms: C_8  and  C_9
REMARK    3  A    between atoms: C_11  and  N_12
REMARK    4  A    between atoms: N_12  and  C_13
REMARK    5  A    between atoms: C_13  and  C_14
REMARK    6  A    between atoms: C_13  and  C_20
REMARK                            x       y       z     vdW  Elec       q    Type
REMARK                         _______ _______ _______ _____ _____    ______ ____
ROOT
ATOM      1  C   UNL     1       1.219  10.947  19.586  0.00  0.00    +0.000 A 
ATOM      2  C   UNL     1       1.718   9.879  18.797  0.00  0.00    +0.000 A 
ATOM      3  C   UNL     1       1.752   8.559  19.242  0.00  0.00    +0.000 A 
ATOM      4  C   UNL     1       1.105   8.287  20.443  0.00  0.00    +0.000 A 
ATOM      5  C   UNL     1       0.498   9.275  21.208  0.00  0.00    +0.000 A 
ATOM      6  N   UNL     1      -0.135   8.890  22.337  0.00  0.00    +0.000 NA
ATOM      7  C   UNL     1      -0.696   9.861  23.085  0.00  0.00    +0.000 A 
ATOM      8  C   UNL     1      -0.605  11.187  22.737  0.00  0.00    +0.000 A 
ATOM      9  N   UNL     1       0.028  11.587  21.617  0.00  0.00    +0.000 NA
ATOM     10  C   UNL     1       0.576  10.636  20.808  0.00  0.00    +0.000 A 
ENDROOT
BRANCH   1  18
ATOM     11  C   UNL     1      -1.020  16.077  19.769  0.00  0.00    +0.000 C 
ATOM     12  N   UNL     1       0.276  15.923  19.150  0.00  0.00    +0.000 N 
ATOM     13  C   UNL     1       1.028  16.952  18.645  0.00  0.00    +0.000 A 
ATOM     14  C   UNL     1       2.180  16.412  18.121  0.00  0.00    +0.000 A 
ATOM     15  C   UNL     1       2.135  15.010  18.336  0.00  0.00    +0.000 A 
ATOM     16  C   UNL     1       3.013  13.957  18.046  0.00  0.00    +0.000 A 
ATOM     17  C   UNL     1       2.682  12.659  18.460  0.00  0.00    +0.000 A 
ATOM     18  C   UNL     1       1.478  12.349  19.125  0.00  0.00    +0.000 A 
ATOM     19  C   UNL     1       0.582  13.410  19.363  0.00  0.00    +0.000 A 
ATOM     20  C   UNL     1       0.936  14.723  18.987  0.00  0.00    +0.000 A 
ENDBRANCH   1  18
BRANCH   3  21
ATOM     21  N   UNL     1       2.423   7.600  18.485  0.00  0.00    +0.000 N 
ATOM     22  H   UNL     1       2.891   7.945  17.655  0.00  0.00    +0.000 HD
BRANCH  21  23
ATOM     23  C   UNL     1       3.135   6.489  19.134  0.00  0.00    +0.000 C 
BRANCH  23  24
ATOM     24  C   UNL     1       2.219   5.271  19.042  0.00  0.00    +0.000 A 
ATOM     25  C   UNL     1       2.066   4.542  17.787  0.00  0.00    +0.000 A 
ATOM     26  C   UNL     1       1.376   3.391  17.731  0.00  0.00    +0.000 A 
ATOM     27  C   UNL     1       0.731   2.862  18.956  0.00  0.00    +0.000 A 
ATOM     28  O   UNL     1       0.129   1.792  18.951  0.00  0.00    +0.000 OA
ATOM     29  N   UNL     1       0.855   3.641  20.077  0.00  0.00    +0.000 N 
ATOM     30  C   UNL     1       1.580   4.803  20.129  0.00  0.00    +0.000 A 
ATOM     31  H   UNL     1       0.401   3.286  20.911  0.00  0.00    +0.000 HD
ENDBRANCH  23  24
BRANCH  23  32
ATOM     32  C   UNL     1       4.548   6.257  18.596  0.00  0.00    +0.000 A 
ATOM     33  C   UNL     1       5.090   6.965  17.514  0.00  0.00    +0.000 A 
ATOM     34  C   UNL     1       6.436   6.810  17.171  0.00  0.00    +0.000 A 
ATOM     35  C   UNL     1       7.217   5.951  17.923  0.00  0.00    +0.000 A 
ATOM     36  N   UNL     1       6.744   5.246  18.967  0.00  0.00    +0.000 NA
ATOM     37  C   UNL     1       5.439   5.423  19.282  0.00  0.00    +0.000 A 
ENDBRANCH  23  32
ENDBRANCH  21  23
ENDBRANCH   3  21
TORSDOF 5
ENDMDL
MODEL 7
REMARK VINA RESULT:      -9.1      3.784      6.630
REMARK  Name = 
REMARK  6 active torsions:
REMARK  status: ('A' for Active; 'I' for Inactive)
REMARK    1  A    between atoms: C_1  and  N_2
REMARK    2  A    between atoms: C_8  and  C_9
REMARK    3  A    between atoms: C_11  and  N_12
REMARK    4  A    between atoms: N_12  and  C_13
REMARK    5  A    between atoms: C_13  and  C_14
REMARK    6  A    between atoms: C_13  and  C_20
REMARK                            x       y       z     vdW  Elec       q    Type
REMARK                         _______ _______ _______ _____ _____    ______ ____
ROOT
ATOM      1  C   UNL     1      -0.175  10.616  18.178  0.00  0.00    +0.000 A 
ATOM      2  C   UNL     1       0.431   9.348  17.984  0.00  0.00    +0.000 A 
ATOM      3  C   UNL     1       1.799   9.186  17.774  0.00  0.00    +0.000 A 
ATOM      4  C   UNL     1       2.596  10.315  17.939  0.00  0.00    +0.000 A 
ATOM      5  C   UNL     1       2.070  11.565  18.242  0.00  0.00    +0.000 A 
ATOM      6  N   UNL     1       2.941  12.581  18.418  0.00  0.00    +0.000 NA
ATOM      7  C   UNL     1       2.419  13.795  18.684  0.00  0.00    +0.000 A 
ATOM      8  C   UNL     1       1.062  14.002  18.743  0.00  0.00    +0.000 A 
ATOM      9  N   UNL     1       0.180  12.999  18.563  0.00  0.00    +0.000 NA
ATOM     10  C   UNL     1       0.664  11.745  18.332  0.00  0.00    +0.000 A 
ENDROOT
BRANCH   1  18
ATOM     11  C   UNL     1      -4.478  13.293  20.563  0.00  0.00    +0.000 C 
ATOM     12  N   UNL     1      -4.759  12.398  19.465  0.00  0.00    +0.000 N 
ATOM     13  C   UNL     1      -6.002  12.190  18.925  0.00  0.00    +0.000 A 
ATOM     14  C   UNL     1      -5.873  11.259  17.919  0.00  0.00    +0.000 A 
ATOM     15  C   UNL     1      -4.500  10.907  17.833  0.00  0.00    +0.000 A 
ATOM     16  C   UNL     1      -3.773  10.041  17.004  0.00  0.00    +0.000 A 
ATOM     17  C   UNL     1      -2.381   9.970  17.148  0.00  0.00    +0.000 A 
ATOM     18  C   UNL     1      -1.671  10.702  18.122  0.00  0.00    +0.000 A 
ATOM     19  C   UNL     1      -2.422  11.528  18.980  0.00  0.00    +0.000 A 
ATOM     20  C   UNL     1      -3.817  11.634  18.807  0.00  0.00    +0.000 A 
ENDBRANCH   1  18
BRANCH   3  21
ATOM     21  N   UNL     1       2.290   7.933  17.409  0.00  0.00    +0.000 N 
ATOM     22  H   UNL     1       2.485   7.809  16.422  0.00  0.00    +0.000 HD
BRANCH  21  23
ATOM     23  C   UNL     1       3.221   7.205  18.282  0.00  0.00    +0.000 C 
BRANCH  23  24
ATOM     24  C   UNL     1       2.426   6.064  18.913  0.00  0.00    +0.000 A 
ATOM     25  C   UNL     1       1.984   4.927  18.111  0.00  0.00    +0.000 A 
ATOM     26  C   UNL     1       1.409   3.855  18.682  0.00  0.00    +0.000 A 
ATOM     27  C   UNL     1       1.189   3.834  20.148  0.00  0.00    +0.000 A 
ATOM     28  O   UNL     1       0.706   2.855  20.708  0.00  0.00    +0.000 OA
ATOM     29  N   UNL     1       1.561   4.969  20.821  0.00  0.00    +0.000 N 
ATOM     30  C   UNL     1       2.167   6.048  20.233  0.00  0.00    +0.000 A 
ATOM     31  H   UNL     1       1.397   4.960  21.822  0.00  0.00    +0.000 HD
ENDBRANCH  23  24
BRANCH  23  32
ATOM     32  C   UNL     1       4.511   6.765  17.587  0.00  0.00    +0.000 A 
ATOM     33  C   UNL     1       5.518   6.025  18.222  0.00  0.00    +0.000 A 
ATOM     34  C   UNL     1       6.599   5.526  17.490  0.00  0.00    +0.000 A 
ATOM     35  C   UNL     1       6.648   5.774  16.130  0.00  0.00    +0.000 A 
ATOM     36  N   UNL     1       5.709   6.481  15.474  0.00  0.00    +0.000 NA
ATOM     37  C   UNL     1       4.669   6.943  16.208  0.00  0.00    +0.000 A 
ENDBRANCH  23  32
ENDBRANCH  21  23
ENDBRANCH   3  21
TORSDOF 5
ENDMDL
MODEL 8
REMARK VINA RESULT:      -9.0      1.832      3.929
REMARK  Name = 
REMARK  6 active torsions:
REMARK  status: ('A' for Active; 'I' for Inactive)
REMARK    1  A    between atoms: C_1  and  N_2
REMARK    2  A    between atoms: C_8  and  C_9
REMARK    3  A    between atoms: C_11  and  N_12
REMARK    4  A    between atoms: N_12  and  C_13
REMARK    5  A    between atoms: C_13  and  C_14
REMARK    6  A    between atoms: C_13  and  C_20
REMARK                            x       y       z     vdW  Elec       q    Type
REMARK                         _______ _______ _______ _____ _____    ______ ____
ROOT
ATOM      1  C   UNL     1       2.455   5.804  19.132  0.00  0.00    +0.000 A 
ATOM      2  C   UNL     1       3.121   5.797  17.879  0.00  0.00    +0.000 A 
ATOM      3  C   UNL     1       3.833   4.697  17.406  0.00  0.00    +0.000 A 
ATOM      4  C   UNL     1       3.721   3.517  18.136  0.00  0.00    +0.000 A 
ATOM      5  C   UNL     1       2.988   3.432  19.313  0.00  0.00    +0.000 A 
ATOM      6  N   UNL     1       2.916   2.227  19.918  0.00  0.00    +0.000 NA
ATOM      7  C   UNL     1       2.226   2.162  21.074  0.00  0.00    +0.000 A 
ATOM      8  C   UNL     1       1.647   3.275  21.634  0.00  0.00    +0.000 A 
ATOM      9  N   UNL     1       1.715   4.485  21.046  0.00  0.00    +0.000 NA
ATOM     10  C   UNL     1       2.368   4.590  19.854  0.00  0.00    +0.000 A 
ENDROOT
BRANCH   1  18
ATOM     11  C   UNL     1       2.081  11.212  17.724  0.00  0.00    +0.000 C 
ATOM     12  N   UNL     1       1.477  10.791  18.967  0.00  0.00    +0.000 N 
ATOM     13  C   UNL     1       0.771  11.609  19.810  0.00  0.00    +0.000 A 
ATOM     14  C   UNL     1       0.376  10.856  20.892  0.00  0.00    +0.000 A 
ATOM     15  C   UNL     1       0.840   9.530  20.687  0.00  0.00    +0.000 A 
ATOM     16  C   UNL     1       0.730   8.342  21.421  0.00  0.00    +0.000 A 
ATOM     17  C   UNL     1       1.267   7.161  20.891  0.00  0.00    +0.000 A 
ATOM     18  C   UNL     1       1.956   7.115  19.661  0.00  0.00    +0.000 A 
ATOM     19  C   UNL     1       2.104   8.328  18.960  0.00  0.00    +0.000 A 
ATOM     20  C   UNL     1       1.524   9.508  19.472  0.00  0.00    +0.000 A 
ENDBRANCH   1  18
BRANCH   3  21
ATOM     21  N   UNL     1       4.610   4.829  16.256  0.00  0.00    +0.000 N 
ATOM     22  H   UNL     1       4.418   5.646  15.688  0.00  0.00    +0.000 HD
BRANCH  21  23
ATOM     23  C   UNL     1       6.028   4.441  16.256  0.00  0.00    +0.000 C 
BRANCH  23  24
ATOM     24  C   UNL     1       6.475   4.418  14.797  0.00  0.00    +0.000 A 
ATOM     25  C   UNL     1       5.786   3.584  13.816  0.00  0.00    +0.000 A 
ATOM     26  C   UNL     1       6.080   3.664  12.507  0.00  0.00    +0.000 A 
ATOM     27  C   UNL     1       7.142   4.591  12.048  0.00  0.00    +0.000 A 
ATOM     28  O   UNL     1       7.407   4.720  10.857  0.00  0.00    +0.000 OA
ATOM     29  N   UNL     1       7.794   5.283  13.035  0.00  0.00    +0.000 N 
ATOM     30  C   UNL     1       7.472   5.211  14.366  0.00  0.00    +0.000 A 
ATOM     31  H   UNL     1       8.531   5.905  12.723  0.00  0.00    +0.000 HD
ENDBRANCH  23  24
BRANCH  23  32
ATOM     32  C   UNL     1       6.907   5.298  17.170  0.00  0.00    +0.000 A 
ATOM     33  C   UNL     1       7.031   6.689  17.042  0.00  0.00    +0.000 A 
ATOM     34  C   UNL     1       7.729   7.428  18.001  0.00  0.00    +0.000 A 
ATOM     35  C   UNL     1       8.287   6.759  19.076  0.00  0.00    +0.000 A 
ATOM     36  N   UNL     1       8.198   5.427  19.243  0.00  0.00    +0.000 NA
ATOM     37  C   UNL     1       7.508   4.738  18.303  0.00  0.00    +0.000 A 
ENDBRANCH  23  32
ENDBRANCH  21  23
ENDBRANCH   3  21
TORSDOF 5
ENDMDL
MODEL 9
REMARK VINA RESULT:      -8.9      2.105      3.738
REMARK  Name = 
REMARK  6 active torsions:
REMARK  status: ('A' for Active; 'I' for Inactive)
REMARK    1  A    between atoms: C_1  and  N_2
REMARK    2  A    between atoms: C_8  and  C_9
REMARK    3  A    between atoms: C_11  and  N_12
REMARK    4  A    between atoms: N_12  and  C_13
REMARK    5  A    between atoms: C_13  and  C_14
REMARK    6  A    between atoms: C_13  and  C_20
REMARK                            x       y       z     vdW  Elec       q    Type
REMARK                         _______ _______ _______ _____ _____    ______ ____
ROOT
ATOM      1  C   UNL     1       3.156   5.881  19.100  0.00  0.00    +0.000 A 
ATOM      2  C   UNL     1       4.569   5.977  19.018  0.00  0.00    +0.000 A 
ATOM      3  C   UNL     1       5.415   4.887  19.213  0.00  0.00    +0.000 A 
ATOM      4  C   UNL     1       4.812   3.637  19.319  0.00  0.00    +0.000 A 
ATOM      5  C   UNL     1       3.434   3.467  19.292  0.00  0.00    +0.000 A 
ATOM      6  N   UNL     1       2.960   2.204  19.363  0.00  0.00    +0.000 NA
ATOM      7  C   UNL     1       1.620   2.052  19.365  0.00  0.00    +0.000 A 
ATOM      8  C   UNL     1       0.770   3.130  19.328  0.00  0.00    +0.000 A 
ATOM      9  N   UNL     1       1.227   4.396  19.263  0.00  0.00    +0.000 NA
ATOM     10  C   UNL     1       2.575   4.596  19.218  0.00  0.00    +0.000 A 
ENDROOT
BRANCH   1  18
ATOM     11  C   UNL     1       0.527   9.248  22.722  0.00  0.00    +0.000 C 
ATOM     12  N   UNL     1       0.589   9.656  21.338  0.00  0.00    +0.000 N 
ATOM     13  C   UNL     1       0.094  10.837  20.848  0.00  0.00    +0.000 A 
ATOM     14  C   UNL     1       0.320  10.856  19.491  0.00  0.00    +0.000 A 
ATOM     15  C   UNL     1       0.994   9.654  19.149  0.00  0.00    +0.000 A 
ATOM     16  C   UNL     1       1.492   9.131  17.949  0.00  0.00    +0.000 A 
ATOM     17  C   UNL     1       2.179   7.909  17.970  0.00  0.00    +0.000 A 
ATOM     18  C   UNL     1       2.362   7.152  19.146  0.00  0.00    +0.000 A 
ATOM     19  C   UNL     1       1.811   7.666  20.335  0.00  0.00    +0.000 A 
ATOM     20  C   UNL     1       1.159   8.917  20.321  0.00  0.00    +0.000 A 
ENDBRANCH   1  18
BRANCH   3  21
ATOM     21  N   UNL     1       6.791   5.097  19.299  0.00  0.00    +0.000 N 
ATOM     22  H   UNL     1       7.307   4.406  19.831  0.00  0.00    +0.000 HD
BRANCH  21  23
ATOM     23  C   UNL     1       7.544   5.634  18.157  0.00  0.00    +0.000 C 
BRANCH  23  24
ATOM     24  C   UNL     1       6.820   5.165  16.898  0.00  0.00    +0.000 A 
ATOM     25  C   UNL     1       5.798   5.995  16.267  0.00  0.00    +0.000 A 
ATOM     26  C   UNL     1       5.258   5.656  15.085  0.00  0.00    +0.000 A 
ATOM     27  C   UNL     1       5.682   4.402  14.417  0.00  0.00    +0.000 A 
ATOM     28  O   UNL     1       5.241   4.083  13.318  0.00  0.00    +0.000 OA
ATOM     29  N   UNL     1       6.588   3.639  15.106  0.00  0.00    +0.000 N 
ATOM     30  C   UNL     1       7.150   4.004  16.302  0.00  0.00    +0.000 A 
ATOM     31  H   UNL     1       6.866   2.774  14.657  0.00  0.00    +0.000 HD
ENDBRANCH  23  24
BRANCH  23  32
ATOM     32  C   UNL     1       7.779   7.145  18.222  0.00  0.00    +0.000 A 
ATOM     33  C   UNL     1       8.665   7.751  19.123  0.00  0.00    +0.000 A 
ATOM     34  C   UNL     1       8.945   9.117  19.028  0.00  0.00    +0.000 A 
ATOM     35  C   UNL     1       8.335   9.851  18.026  0.00  0.00    +0.000 A 
ATOM     36  N   UNL     1       7.476   9.316  17.140  0.00  0.00    +0.000 NA
ATOM     37  C   UNL     1       7.231   7.989  17.250  0.00  0.00    +0.000 A 
ENDBRANCH  23  32
ENDBRANCH  21  23
ENDBRANCH   3  21
TORSDOF 5
ENDMDL
