MODEL 1
REMARK VINA RESULT:      -7.8      0.000      0.000
REMARK  Name = 
REMARK  4 active torsions:
REMARK  status: ('A' for Active; 'I' for Inactive)
REMARK    1  A    between atoms: N_1  and  C_2
REMARK    2  A    between atoms: C_7  and  C_8
REMARK    3  A    between atoms: C_14  and  C_15
REMARK    4  A    between atoms: C_15  and  C_16
REMARK                            x       y       z     vdW  Elec       q    Type
REMARK                         _______ _______ _______ _____ _____    ______ ____
ROOT
ATOM      1  C   UNL     1       8.693   9.874  18.335  0.00  0.00    +0.000 C 
ATOM      2  O   UNL     1       8.088  10.326  17.370  0.00  0.00    +0.000 OA
ATOM      3  N   UNL     1       8.691   8.559  18.766  0.00  0.00    +0.000 N 
ATOM      4  C   UNL     1       7.908   7.601  18.186  0.00  0.00    +0.000 A 
ATOM      5  N   UNL     1       7.191   7.680  17.096  0.00  0.00    +0.000 NA
ATOM      6  C   UNL     1       6.476   6.515  16.927  0.00  0.00    +0.000 A 
ATOM      7  C   UNL     1       6.649   5.557  17.906  0.00  0.00    +0.000 A 
ATOM      8  S   UNL     1       7.834   6.112  19.025  0.00  0.00    +0.000 S 
ATOM      9  H   UNL     1       9.227   8.319  19.592  0.00  0.00    +0.000 HD
ENDROOT
BRANCH   1  15
ATOM     10  C   UNL     1      10.686  11.414  18.665  0.00  0.00    +0.000 A 
ATOM     11  N   UNL     1      11.454  12.199  19.460  0.00  0.00    +0.000 NA
ATOM     12  C   UNL     1      11.063  12.314  20.751  0.00  0.00    +0.000 A 
ATOM     13  C   UNL     1       9.938  11.681  21.251  0.00  0.00    +0.000 A 
ATOM     14  N   UNL     1       9.142  10.899  20.488  0.00  0.00    +0.000 NA
ATOM     15  C   UNL     1       9.542  10.775  19.181  0.00  0.00    +0.000 A 
BRANCH  10  16
ATOM     16  N   UNL     1      11.070  11.413  17.331  0.00  0.00    +0.000 N 
ATOM     17  H   UNL     1      11.960  11.890  17.229  0.00  0.00    +0.000 HD
ATOM     18  H   UNL     1      11.034  10.483  16.915  0.00  0.00    +0.000 HD
ENDBRANCH  10  16
ENDBRANCH   1  15
BRANCH   7  19
ATOM     19  C   UNL     1       5.960   4.236  18.052  0.00  0.00    +0.000 C 
BRANCH  19  20
ATOM     20  C   UNL     1       4.526   4.384  18.519  0.00  0.00    +0.000 A 
ATOM     21  C   UNL     1       3.616   3.317  18.409  0.00  0.00    +0.000 A 
ATOM     22  C   UNL     1       2.286   3.482  18.797  0.00  0.00    +0.000 A 
ATOM     23 CL   UNL     1       1.189   2.164  18.651  0.00  0.00    +0.000 Cl
ATOM     24  C   UNL     1       1.837   4.697  19.299  0.00  0.00    +0.000 A 
ATOM     25  C   UNL     1       2.733   5.757  19.413  0.00  0.00    +0.000 A 
ATOM     26 CL   UNL     1       2.191   7.269  20.032  0.00  0.00    +0.000 Cl
ATOM     27  C   UNL     1       4.067   5.609  19.027  0.00  0.00    +0.000 A 
ENDBRANCH  19  20
ENDBRANCH   7  19
TORSDOF 4
ENDMDL
MODEL 2
REMARK VINA RESULT:      -7.8      0.033      1.839
REMARK  Name = 
REMARK  4 active torsions:
REMARK  status: ('A' for Active; 'I' for Inactive)
REMARK    1  A    between atoms: N_1  and  C_2
REMARK    2  A    between atoms: C_7  and  C_8
REMARK    3  A    between atoms: C_14  and  C_15
REMARK    4  A    between atoms: C_15  and  C_16
REMARK                            x       y       z     vdW  Elec       q    Type
REMARK                         _______ _______ _______ _____ _____    ______ ____
ROOT
ATOM      1  C   UNL     1       8.703   9.887  18.327  0.00  0.00    +0.000 C 
ATOM      2  O   UNL     1       8.105  10.338  17.357  0.00  0.00    +0.000 OA
ATOM      3  N   UNL     1       8.694   8.574  18.763  0.00  0.00    +0.000 N 
ATOM      4  C   UNL     1       7.910   7.617  18.182  0.00  0.00    +0.000 A 
ATOM      5  N   UNL     1       7.200   7.694  17.087  0.00  0.00    +0.000 NA
ATOM      6  C   UNL     1       6.482   6.531  16.918  0.00  0.00    +0.000 A 
ATOM      7  C   UNL     1       6.645   5.576  17.902  0.00  0.00    +0.000 A 
ATOM      8  S   UNL     1       7.826   6.131  19.026  0.00  0.00    +0.000 S 
ATOM      9  H   UNL     1       9.224   8.335  19.593  0.00  0.00    +0.000 HD
ENDROOT
BRANCH   1  15
ATOM     10  C   UNL     1      10.696  11.426  18.661  0.00  0.00    +0.000 A 
ATOM     11  N   UNL     1      11.463  12.211  19.458  0.00  0.00    +0.000 NA
ATOM     12  C   UNL     1      11.068  12.327  20.747  0.00  0.00    +0.000 A 
ATOM     13  C   UNL     1       9.942  11.696  21.245  0.00  0.00    +0.000 A 
ATOM     14  N   UNL     1       9.147  10.914  20.481  0.00  0.00    +0.000 NA
ATOM     15  C   UNL     1       9.551  10.788  19.175  0.00  0.00    +0.000 A 
BRANCH  10  16
ATOM     16  N   UNL     1      11.084  11.424  17.329  0.00  0.00    +0.000 N 
ATOM     17  H   UNL     1      10.264  11.439  16.731  0.00  0.00    +0.000 HD
ATOM     18  H   UNL     1      11.777  12.143  17.122  0.00  0.00    +0.000 HD
ENDBRANCH  10  16
ENDBRANCH   1  15
BRANCH   7  19
ATOM     19  C   UNL     1       5.951   4.259  18.049  0.00  0.00    +0.000 C 
BRANCH  19  20
ATOM     20  C   UNL     1       4.503   4.415  18.468  0.00  0.00    +0.000 A 
ATOM     21  C   UNL     1       4.032   5.625  19.007  0.00  0.00    +0.000 A 
ATOM     22  C   UNL     1       2.709   5.740  19.433  0.00  0.00    +0.000 A 
ATOM     23 CL   UNL     1       2.154   7.230  20.093  0.00  0.00    +0.000 Cl
ATOM     24  C   UNL     1       1.833   4.666  19.331  0.00  0.00    +0.000 A 
ATOM     25  C   UNL     1       2.292   3.465  18.796  0.00  0.00    +0.000 A 
ATOM     26 CL   UNL     1       1.219   2.124  18.665  0.00  0.00    +0.000 Cl
ATOM     27  C   UNL     1       3.614   3.333  18.367  0.00  0.00    +0.000 A 
ENDBRANCH  19  20
ENDBRANCH   7  19
TORSDOF 4
ENDMDL
MODEL 3
REMARK VINA RESULT:      -7.4      6.771      9.525
REMARK  Name = 
REMARK  4 active torsions:
REMARK  status: ('A' for Active; 'I' for Inactive)
REMARK    1  A    between atoms: N_1  and  C_2
REMARK    2  A    between atoms: C_7  and  C_8
REMARK    3  A    between atoms: C_14  and  C_15
REMARK    4  A    between atoms: C_15  and  C_16
REMARK                            x       y       z     vdW  Elec       q    Type
REMARK                         _______ _______ _______ _____ _____    ______ ____
ROOT
ATOM      1  C   UNL     1       2.188   5.496  19.926  0.00  0.00    +0.000 C 
ATOM      2  O   UNL     1       1.796   5.483  21.087  0.00  0.00    +0.000 OA
ATOM      3  N   UNL     1       2.280   6.603  19.101  0.00  0.00    +0.000 N 
ATOM      4  C   UNL     1       1.840   7.839  19.484  0.00  0.00    +0.000 A 
ATOM      5  N   UNL     1       1.434   8.234  20.663  0.00  0.00    +0.000 NA
ATOM      6  C   UNL     1       0.983   9.533  20.585  0.00  0.00    +0.000 A 
ATOM      7  C   UNL     1       1.040  10.115  19.334  0.00  0.00    +0.000 A 
ATOM      8  S   UNL     1       1.783   9.012  18.240  0.00  0.00    +0.000 S 
ATOM      9  H   UNL     1       2.609   6.473  18.152  0.00  0.00    +0.000 HD
ENDROOT
BRANCH   1  15
ATOM     10  C   UNL     1       1.938   3.013  19.452  0.00  0.00    +0.000 A 
ATOM     11  N   UNL     1       2.377   1.871  18.868  0.00  0.00    +0.000 NA
ATOM     12  C   UNL     1       3.502   1.971  18.122  0.00  0.00    +0.000 A 
ATOM     13  C   UNL     1       4.177   3.166  17.943  0.00  0.00    +0.000 A 
ATOM     14  N   UNL     1       3.766   4.326  18.501  0.00  0.00    +0.000 NA
ATOM     15  C   UNL     1       2.630   4.225  19.265  0.00  0.00    +0.000 A 
BRANCH  10  16
ATOM     16  N   UNL     1       0.728   2.877  20.119  0.00  0.00    +0.000 N 
ATOM     17  H   UNL     1       0.889   2.519  21.055  0.00  0.00    +0.000 HD
ATOM     18  H   UNL     1       0.161   3.724  20.078  0.00  0.00    +0.000 HD
ENDBRANCH  10  16
ENDBRANCH   1  15
BRANCH   7  19
ATOM     19  C   UNL     1       0.554  11.465  18.910  0.00  0.00    +0.000 C 
BRANCH  19  20
ATOM     20  C   UNL     1      -0.932  11.476  18.613  0.00  0.00    +0.000 A 
ATOM     21  C   UNL     1      -1.840  12.096  19.490  0.00  0.00    +0.000 A 
ATOM     22  C   UNL     1      -3.210  12.056  19.229  0.00  0.00    +0.000 A 
ATOM     23 CL   UNL     1      -4.304  12.820  20.317  0.00  0.00    +0.000 Cl
ATOM     24  C   UNL     1      -3.702  11.408  18.103  0.00  0.00    +0.000 A 
ATOM     25  C   UNL     1      -2.808  10.794  17.230  0.00  0.00    +0.000 A 
ATOM     26 CL   UNL     1      -3.402   9.985  15.831  0.00  0.00    +0.000 Cl
ATOM     27  C   UNL     1      -1.434  10.823  17.477  0.00  0.00    +0.000 A 
ENDBRANCH  19  20
ENDBRANCH   7  19
TORSDOF 4
ENDMDL
MODEL 4
REMARK VINA RESULT:      -7.4      6.782      9.416
REMARK  Name = 
REMARK  4 active torsions:
REMARK  status: ('A' for Active; 'I' for Inactive)
REMARK    1  A    between atoms: N_1  and  C_2
REMARK    2  A    between atoms: C_7  and  C_8
REMARK    3  A    between atoms: C_14  and  C_15
REMARK    4  A    between atoms: C_15  and  C_16
REMARK                            x       y       z     vdW  Elec       q    Type
REMARK                         _______ _______ _______ _____ _____    ______ ____
ROOT
ATOM      1  C   UNL     1       2.212   5.543  20.001  0.00  0.00    +0.000 C 
ATOM      2  O   UNL     1       1.876   5.541  21.180  0.00  0.00    +0.000 OA
ATOM      3  N   UNL     1       2.240   6.637  19.155  0.00  0.00    +0.000 N 
ATOM      4  C   UNL     1       1.790   7.870  19.539  0.00  0.00    +0.000 A 
ATOM      5  N   UNL     1       1.432   8.276  20.729  0.00  0.00    +0.000 NA
ATOM      6  C   UNL     1       0.948   9.563  20.652  0.00  0.00    +0.000 A 
ATOM      7  C   UNL     1       0.932  10.125  19.390  0.00  0.00    +0.000 A 
ATOM      8  S   UNL     1       1.648   9.020  18.280  0.00  0.00    +0.000 S 
ATOM      9  H   UNL     1       2.527   6.499  18.194  0.00  0.00    +0.000 HD
ENDROOT
BRANCH   1  15
ATOM     10  C   UNL     1       1.935   3.068  19.498  0.00  0.00    +0.000 A 
ATOM     11  N   UNL     1       2.371   1.925  18.915  0.00  0.00    +0.000 NA
ATOM     12  C   UNL     1       3.517   2.013  18.200  0.00  0.00    +0.000 A 
ATOM     13  C   UNL     1       4.216   3.198  18.051  0.00  0.00    +0.000 A 
ATOM     14  N   UNL     1       3.809   4.360  18.608  0.00  0.00    +0.000 NA
ATOM     15  C   UNL     1       2.651   4.270  19.341  0.00  0.00    +0.000 A 
BRANCH  10  16
ATOM     16  N   UNL     1       0.706   2.946  20.131  0.00  0.00    +0.000 N 
ATOM     17  H   UNL     1       0.466   1.966  20.232  0.00  0.00    +0.000 HD
ATOM     18  H   UNL     1       0.654   3.490  20.993  0.00  0.00    +0.000 HD
ENDBRANCH  10  16
ENDBRANCH   1  15
BRANCH   7  19
ATOM     19  C   UNL     1       0.397  11.457  18.968  0.00  0.00    +0.000 C 
BRANCH  19  20
ATOM     20  C   UNL     1      -1.072  11.397  18.601  0.00  0.00    +0.000 A 
ATOM     21  C   UNL     1      -1.497  10.764  17.419  0.00  0.00    +0.000 A 
ATOM     22  C   UNL     1      -2.848  10.759  17.070  0.00  0.00    +0.000 A 
ATOM     23 CL   UNL     1      -3.346   9.981  15.616  0.00  0.00    +0.000 Cl
ATOM     24  C   UNL     1      -3.795  11.374  17.879  0.00  0.00    +0.000 A 
ATOM     25  C   UNL     1      -3.381  11.999  19.052  0.00  0.00    +0.000 A 
ATOM     26 CL   UNL     1      -4.542  12.767  20.064  0.00  0.00    +0.000 Cl
ATOM     27  C   UNL     1      -2.033  12.016  19.415  0.00  0.00    +0.000 A 
ENDBRANCH  19  20
ENDBRANCH   7  19
TORSDOF 4
ENDMDL
MODEL 5
REMARK VINA RESULT:      -7.2      5.927      7.663
REMARK  Name = 
REMARK  4 active torsions:
REMARK  status: ('A' for Active; 'I' for Inactive)
REMARK    1  A    between atoms: N_1  and  C_2
REMARK    2  A    between atoms: C_7  and  C_8
REMARK    3  A    between atoms: C_14  and  C_15
REMARK    4  A    between atoms: C_15  and  C_16
REMARK                            x       y       z     vdW  Elec       q    Type
REMARK                         _______ _______ _______ _____ _____    ______ ____
ROOT
ATOM      1  C   UNL     1       0.612  10.584  20.041  0.00  0.00    +0.000 C 
ATOM      2  O   UNL     1       0.718  11.105  18.936  0.00  0.00    +0.000 OA
ATOM      3  N   UNL     1       1.115   9.352  20.422  0.00  0.00    +0.000 N 
ATOM      4  C   UNL     1       1.735   8.511  19.540  0.00  0.00    +0.000 A 
ATOM      5  N   UNL     1       2.100   8.744  18.307  0.00  0.00    +0.000 NA
ATOM      6  C   UNL     1       2.600   7.589  17.746  0.00  0.00    +0.000 A 
ATOM      7  C   UNL     1       2.599   6.476  18.564  0.00  0.00    +0.000 A 
ATOM      8  S   UNL     1       2.039   6.933  20.127  0.00  0.00    +0.000 S 
ATOM      9  H   UNL     1       0.944   9.031  21.367  0.00  0.00    +0.000 HD
ENDROOT
BRANCH   1  15
ATOM     10  C   UNL     1      -0.185  12.697  21.204  0.00  0.00    +0.000 A 
ATOM     11  N   UNL     1      -0.828  13.312  22.227  0.00  0.00    +0.000 NA
ATOM     12  C   UNL     1      -1.380  12.505  23.162  0.00  0.00    +0.000 A 
ATOM     13  C   UNL     1      -1.313  11.124  23.094  0.00  0.00    +0.000 A 
ATOM     14  N   UNL     1      -0.690  10.474  22.086  0.00  0.00    +0.000 NA
ATOM     15  C   UNL     1      -0.121  11.292  21.140  0.00  0.00    +0.000 A 
BRANCH  10  16
ATOM     16  N   UNL     1       0.273  13.564  20.222  0.00  0.00    +0.000 N 
ATOM     17  H   UNL     1       1.257  13.393  20.042  0.00  0.00    +0.000 HD
ATOM     18  H   UNL     1      -0.319  13.561  19.391  0.00  0.00    +0.000 HD
ENDBRANCH  10  16
ENDBRANCH   1  15
BRANCH   7  19
ATOM     19  C   UNL     1       2.994   5.072  18.230  0.00  0.00    +0.000 C 
BRANCH  19  20
ATOM     20  C   UNL     1       4.421   4.979  17.728  0.00  0.00    +0.000 A 
ATOM     21  C   UNL     1       4.704   4.500  16.437  0.00  0.00    +0.000 A 
ATOM     22  C   UNL     1       6.025   4.374  16.006  0.00  0.00    +0.000 A 
ATOM     23 CL   UNL     1       6.350   3.783  14.422  0.00  0.00    +0.000 Cl
ATOM     24  C   UNL     1       7.082   4.720  16.840  0.00  0.00    +0.000 A 
ATOM     25  C   UNL     1       6.808   5.197  18.119  0.00  0.00    +0.000 A 
ATOM     26 CL   UNL     1       8.106   5.627  19.164  0.00  0.00    +0.000 Cl
ATOM     27  C   UNL     1       5.492   5.327  18.566  0.00  0.00    +0.000 A 
ENDBRANCH  19  20
ENDBRANCH   7  19
TORSDOF 4
ENDMDL
MODEL 6
REMARK VINA RESULT:      -7.2      6.049      7.959
REMARK  Name = 
REMARK  4 active torsions:
REMARK  status: ('A' for Active; 'I' for Inactive)
REMARK    1  A    between atoms: N_1  and  C_2
REMARK    2  A    between atoms: C_7  and  C_8
REMARK    3  A    between atoms: C_14  and  C_15
REMARK    4  A    between atoms: C_15  and  C_16
REMARK                            x       y       z     vdW  Elec       q    Type
REMARK                         _______ _______ _______ _____ _____    ______ ____
ROOT
ATOM      1  C   UNL     1       0.589  10.705  19.627  0.00  0.00    +0.000 C 
ATOM      2  O   UNL     1       0.928  11.183  18.550  0.00  0.00    +0.000 OA
ATOM      3  N   UNL     1       0.957   9.470  20.132  0.00  0.00    +0.000 N 
ATOM      4  C   UNL     1       1.700   8.577  19.411  0.00  0.00    +0.000 A 
ATOM      5  N   UNL     1       2.306   8.753  18.266  0.00  0.00    +0.000 NA
ATOM      6  C   UNL     1       2.856   7.562  17.846  0.00  0.00    +0.000 A 
ATOM      7  C   UNL     1       2.650   6.479  18.677  0.00  0.00    +0.000 A 
ATOM      8  S   UNL     1       1.819   7.011  20.088  0.00  0.00    +0.000 S 
ATOM      9  H   UNL     1       0.594   9.188  21.034  0.00  0.00    +0.000 HD
ENDROOT
BRANCH   1  15
ATOM     10  C   UNL     1      -1.312  12.335  20.049  0.00  0.00    +0.000 A 
ATOM     11  N   UNL     1      -2.093  13.046  20.900  0.00  0.00    +0.000 NA
ATOM     12  C   UNL     1      -1.845  12.884  22.221  0.00  0.00    +0.000 A 
ATOM     13  C   UNL     1      -0.860  12.039  22.699  0.00  0.00    +0.000 A 
ATOM     14  N   UNL     1      -0.068  11.307  21.884  0.00  0.00    +0.000 NA
ATOM     15  C   UNL     1      -0.312  11.476  20.544  0.00  0.00    +0.000 A 
BRANCH  10  16
ATOM     16  N   UNL     1      -1.674  12.458  18.715  0.00  0.00    +0.000 N 
ATOM     17  H   UNL     1      -0.958  12.967  18.209  0.00  0.00    +0.000 HD
ATOM     18  H   UNL     1      -1.938  11.565  18.298  0.00  0.00    +0.000 HD
ENDBRANCH  10  16
ENDBRANCH   1  15
BRANCH   7  19
ATOM     19  C   UNL     1       3.043   5.051  18.465  0.00  0.00    +0.000 C 
BRANCH  19  20
ATOM     20  C   UNL     1       4.468   4.914  17.967  0.00  0.00    +0.000 A 
ATOM     21  C   UNL     1       5.556   5.288  18.776  0.00  0.00    +0.000 A 
ATOM     22  C   UNL     1       6.860   5.202  18.287  0.00  0.00    +0.000 A 
ATOM     23 CL   UNL     1       8.177   5.668  19.294  0.00  0.00    +0.000 Cl
ATOM     24  C   UNL     1       7.109   4.746  16.999  0.00  0.00    +0.000 A 
ATOM     25  C   UNL     1       6.036   4.372  16.193  0.00  0.00    +0.000 A 
ATOM     26 CL   UNL     1       6.327   3.806  14.594  0.00  0.00    +0.000 Cl
ATOM     27  C   UNL     1       4.725   4.454  16.666  0.00  0.00    +0.000 A 
ENDBRANCH  19  20
ENDBRANCH   7  19
TORSDOF 4
ENDMDL
MODEL 7
REMARK VINA RESULT:      -7.2      6.221      8.800
REMARK  Name = 
REMARK  4 active torsions:
REMARK  status: ('A' for Active; 'I' for Inactive)
REMARK    1  A    between atoms: N_1  and  C_2
REMARK    2  A    between atoms: C_7  and  C_8
REMARK    3  A    between atoms: C_14  and  C_15
REMARK    4  A    between atoms: C_15  and  C_16
REMARK                            x       y       z     vdW  Elec       q    Type
REMARK                         _______ _______ _______ _____ _____    ______ ____
ROOT
ATOM      1  C   UNL     1       3.317   5.742  18.805  0.00  0.00    +0.000 C 
ATOM      2  O   UNL     1       3.911   5.984  17.761  0.00  0.00    +0.000 OA
ATOM      3  N   UNL     1       2.398   6.560  19.439  0.00  0.00    +0.000 N 
ATOM      4  C   UNL     1       2.110   7.819  18.992  0.00  0.00    +0.000 A 
ATOM      5  N   UNL     1       2.480   8.396  17.879  0.00  0.00    +0.000 NA
ATOM      6  C   UNL     1       2.051   9.705  17.872  0.00  0.00    +0.000 A 
ATOM      7  C   UNL     1       1.363  10.117  18.996  0.00  0.00    +0.000 A 
ATOM      8  S   UNL     1       1.166   8.772  20.053  0.00  0.00    +0.000 S 
ATOM      9  H   UNL     1       1.988   6.244  20.309  0.00  0.00    +0.000 HD
ENDROOT
BRANCH   1  15
ATOM     10  C   UNL     1       4.728   3.693  19.321  0.00  0.00    +0.000 A 
ATOM     11  N   UNL     1       4.905   2.512  19.962  0.00  0.00    +0.000 NA
ATOM     12  C   UNL     1       3.904   2.115  20.782  0.00  0.00    +0.000 A 
ATOM     13  C   UNL     1       2.757   2.863  20.977  0.00  0.00    +0.000 A 
ATOM     14  N   UNL     1       2.547   4.050  20.364  0.00  0.00    +0.000 NA
ATOM     15  C   UNL     1       3.558   4.449  19.526  0.00  0.00    +0.000 A 
BRANCH  10  16
ATOM     16  N   UNL     1       5.825   4.102  18.576  0.00  0.00    +0.000 N 
ATOM     17  H   UNL     1       6.336   4.820  19.080  0.00  0.00    +0.000 HD
ATOM     18  H   UNL     1       6.394   3.318  18.255  0.00  0.00    +0.000 HD
ENDBRANCH  10  16
ENDBRANCH   1  15
BRANCH   7  19
ATOM     19  C   UNL     1       0.846  11.482  19.326  0.00  0.00    +0.000 C 
BRANCH  19  20
ATOM     20  C   UNL     1      -0.653  11.592  19.133  0.00  0.00    +0.000 A 
ATOM     21  C   UNL     1      -1.443  12.345  20.020  0.00  0.00    +0.000 A 
ATOM     22  C   UNL     1      -2.828  12.398  19.858  0.00  0.00    +0.000 A 
ATOM     23 CL   UNL     1      -3.778  13.322  20.957  0.00  0.00    +0.000 Cl
ATOM     24  C   UNL     1      -3.451  11.713  18.821  0.00  0.00    +0.000 A 
ATOM     25  C   UNL     1      -2.673  10.968  17.938  0.00  0.00    +0.000 A 
ATOM     26 CL   UNL     1      -3.430  10.112  16.650  0.00  0.00    +0.000 Cl
ATOM     27  C   UNL     1      -1.287  10.902  18.087  0.00  0.00    +0.000 A 
ENDBRANCH  19  20
ENDBRANCH   7  19
TORSDOF 4
ENDMDL
MODEL 8
REMARK VINA RESULT:      -7.2      7.189      8.960
REMARK  Name = 
REMARK  4 active torsions:
REMARK  status: ('A' for Active; 'I' for Inactive)
REMARK    1  A    between atoms: N_1  and  C_2
REMARK    2  A    between atoms: C_7  and  C_8
REMARK    3  A    between atoms: C_14  and  C_15
REMARK    4  A    between atoms: C_15  and  C_16
REMARK                            x       y       z     vdW  Elec       q    Type
REMARK                         _______ _______ _______ _____ _____    ______ ____
ROOT
ATOM      1  C   UNL     1      -0.714  10.912  22.598  0.00  0.00    +0.000 C 
ATOM      2  O   UNL     1      -0.167  10.248  23.470  0.00  0.00    +0.000 OA
ATOM      3  N   UNL     1      -0.598  10.732  21.231  0.00  0.00    +0.000 N 
ATOM      4  C   UNL     1       0.249   9.808  20.685  0.00  0.00    +0.000 A 
ATOM      5  N   UNL     1       0.935   8.871  21.286  0.00  0.00    +0.000 NA
ATOM      6  C   UNL     1       1.739   8.227  20.371  0.00  0.00    +0.000 A 
ATOM      7  C   UNL     1       1.664   8.693  19.073  0.00  0.00    +0.000 A 
ATOM      8  S   UNL     1       0.460   9.922  18.991  0.00  0.00    +0.000 S 
ATOM      9  H   UNL     1      -1.095  11.364  20.615  0.00  0.00    +0.000 HD
ENDROOT
BRANCH   1  15
ATOM     10  C   UNL     1      -1.199  13.390  22.873  0.00  0.00    +0.000 A 
ATOM     11  N   UNL     1      -2.024  14.398  23.248  0.00  0.00    +0.000 NA
ATOM     12  C   UNL     1      -3.240  14.037  23.721  0.00  0.00    +0.000 A 
ATOM     13  C   UNL     1      -3.643  12.717  23.816  0.00  0.00    +0.000 A 
ATOM     14  N   UNL     1      -2.853  11.685  23.443  0.00  0.00    +0.000 NA
ATOM     15  C   UNL     1      -1.617  12.049  22.972  0.00  0.00    +0.000 A 
BRANCH  10  16
ATOM     16  N   UNL     1      -0.009  13.818  22.302  0.00  0.00    +0.000 N 
ATOM     17  H   UNL     1       0.755  13.225  22.610  0.00  0.00    +0.000 HD
ATOM     18  H   UNL     1      -0.079  13.931  21.290  0.00  0.00    +0.000 HD
ENDBRANCH  10  16
ENDBRANCH   1  15
BRANCH   7  19
ATOM     19  C   UNL     1       2.460   8.266  17.880  0.00  0.00    +0.000 C 
BRANCH  19  20
ATOM     20  C   UNL     1       2.936   6.831  17.990  0.00  0.00    +0.000 A 
ATOM     21  C   UNL     1       4.305   6.517  17.927  0.00  0.00    +0.000 A 
ATOM     22  C   UNL     1       4.726   5.188  17.981  0.00  0.00    +0.000 A 
ATOM     23 CL   UNL     1       6.407   4.825  17.899  0.00  0.00    +0.000 Cl
ATOM     24  C   UNL     1       3.805   4.153  18.098  0.00  0.00    +0.000 A 
ATOM     25  C   UNL     1       2.448   4.458  18.163  0.00  0.00    +0.000 A 
ATOM     26 CL   UNL     1       1.294   3.188  18.307  0.00  0.00    +0.000 Cl
ATOM     27  C   UNL     1       2.010   5.783  18.109  0.00  0.00    +0.000 A 
ENDBRANCH  19  20
ENDBRANCH   7  19
TORSDOF 4
ENDMDL
MODEL 9
REMARK VINA RESULT:      -7.2      5.844      7.676
REMARK  Name = 
REMARK  4 active torsions:
REMARK  status: ('A' for Active; 'I' for Inactive)
REMARK    1  A    between atoms: N_1  and  C_2
REMARK    2  A    between atoms: C_7  and  C_8
REMARK    3  A    between atoms: C_14  and  C_15
REMARK    4  A    between atoms: C_15  and  C_16
REMARK                            x       y       z     vdW  Elec       q    Type
REMARK                         _______ _______ _______ _____ _____    ______ ____
ROOT
ATOM      1  C   UNL     1       0.690  10.667  19.965  0.00  0.00    +0.000 C 
ATOM      2  O   UNL     1       0.761  11.167  18.848  0.00  0.00    +0.000 OA
ATOM      3  N   UNL     1       1.191   9.436  20.349  0.00  0.00    +0.000 N 
ATOM      4  C   UNL     1       1.765   8.570  19.460  0.00  0.00    +0.000 A 
ATOM      5  N   UNL     1       2.086   8.775  18.210  0.00  0.00    +0.000 NA
ATOM      6  C   UNL     1       2.548   7.603  17.653  0.00  0.00    +0.000 A 
ATOM      7  C   UNL     1       2.563   6.506  18.490  0.00  0.00    +0.000 A 
ATOM      8  S   UNL     1       2.070   6.999  20.064  0.00  0.00    +0.000 S 
ATOM      9  H   UNL     1       1.052   9.134  21.306  0.00  0.00    +0.000 HD
ENDROOT
BRANCH   1  15
ATOM     10  C   UNL     1       0.296  12.756  21.356  0.00  0.00    +0.000 A 
ATOM     11  N   UNL     1      -0.311  13.390  22.389  0.00  0.00    +0.000 NA
ATOM     12  C   UNL     1      -1.180  12.654  23.121  0.00  0.00    +0.000 A 
ATOM     13  C   UNL     1      -1.456  11.327  22.842  0.00  0.00    +0.000 A 
ATOM     14  N   UNL     1      -0.879  10.662  21.816  0.00  0.00    +0.000 NA
ATOM     15  C   UNL     1       0.010  11.405  21.078  0.00  0.00    +0.000 A 
BRANCH  10  16
ATOM     16  N   UNL     1       1.096  13.581  20.578  0.00  0.00    +0.000 N 
ATOM     17  H   UNL     1       0.515  14.166  19.987  0.00  0.00    +0.000 HD
ATOM     18  H   UNL     1       1.790  14.086  21.129  0.00  0.00    +0.000 HD
ENDBRANCH  10  16
ENDBRANCH   1  15
BRANCH   7  19
ATOM     19  C   UNL     1       2.926   5.090  18.167  0.00  0.00    +0.000 C 
BRANCH  19  20
ATOM     20  C   UNL     1       4.375   4.949  17.746  0.00  0.00    +0.000 A 
ATOM     21  C   UNL     1       5.419   5.316  18.613  0.00  0.00    +0.000 A 
ATOM     22  C   UNL     1       6.747   5.226  18.193  0.00  0.00    +0.000 A 
ATOM     23 CL   UNL     1       8.010   5.684  19.270  0.00  0.00    +0.000 Cl
ATOM     24  C   UNL     1       7.062   4.773  16.918  0.00  0.00    +0.000 A 
ATOM     25  C   UNL     1       6.032   4.406  16.056  0.00  0.00    +0.000 A 
ATOM     26 CL   UNL     1       6.406   3.844  14.472  0.00  0.00    +0.000 Cl
ATOM     27  C   UNL     1       4.698   4.492  16.458  0.00  0.00    +0.000 A 
ENDBRANCH  19  20
ENDBRANCH   7  19
TORSDOF 4
ENDMDL
