MODEL 1
REMARK VINA RESULT:      -7.7      0.000      0.000
REMARK  Name = 
REMARK  1 active torsions:
REMARK  status: ('A' for Active; 'I' for Inactive)
REMARK    1  A    between atoms: C_7  and  O_8
REMARK                            x       y       z     vdW  Elec       q    Type
REMARK                         _______ _______ _______ _____ _____    ______ ____
ROOT
ATOM      1  O   UNL     1       1.830   2.230  22.319  0.00  0.00    +0.000 OA
ATOM      2  C   UNL     1       1.872   2.812  21.244  0.00  0.00    +0.000 C 
ATOM      3  C   UNL     1       1.685   4.318  21.142  0.00  0.00    +0.000 C 
ATOM      4  C   UNL     1       1.081   4.620  19.791  0.00  0.00    +0.000 C 
ATOM      5  C   UNL     1       2.172   4.226  18.845  0.00  0.00    +0.000 A 
ATOM      6  C   UNL     1       2.556   2.888  18.935  0.00  0.00    +0.000 A 
ATOM      7  C   UNL     1       3.506   2.341  18.086  0.00  0.00    +0.000 A 
ATOM      8  C   UNL     1       4.239   3.186  17.269  0.00  0.00    +0.000 A 
ATOM      9  C   UNL     1       4.025   4.576  17.314  0.00  0.00    +0.000 A 
ATOM     10  C   UNL     1       4.897   5.453  16.657  0.00  0.00    +0.000 A 
ATOM     11  C   UNL     1       4.749   6.836  16.786  0.00  0.00    +0.000 A 
ATOM     12  C   UNL     1       3.695   7.359  17.515  0.00  0.00    +0.000 A 
ATOM     13  C   UNL     1       2.792   6.507  18.134  0.00  0.00    +0.000 A 
ATOM     14  C   UNL     1       2.956   5.107  18.083  0.00  0.00    +0.000 A 
ATOM     15  O   UNL     1       2.106   2.130  20.039  0.00  0.00    +0.000 OA
ENDROOT
BRANCH   7  16
ATOM     16  O   UNL     1       3.779   1.008  18.063  0.00  0.00    +0.000 OA
ATOM     17  H   UNL     1       3.008   0.561  17.668  0.00  0.00    +0.000 HD
ENDBRANCH   7  16
TORSDOF 1
ENDMDL
MODEL 2
REMARK VINA RESULT:      -7.4      3.065      5.479
REMARK  Name = 
REMARK  1 active torsions:
REMARK  status: ('A' for Active; 'I' for Inactive)
REMARK    1  A    between atoms: C_7  and  O_8
REMARK                            x       y       z     vdW  Elec       q    Type
REMARK                         _______ _______ _______ _____ _____    ______ ____
ROOT
ATOM      1  O   UNL     1       7.763   6.840  16.887  0.00  0.00    +0.000 OA
ATOM      2  C   UNL     1       6.719   6.206  16.828  0.00  0.00    +0.000 C 
ATOM      3  C   UNL     1       6.703   4.685  16.858  0.00  0.00    +0.000 C 
ATOM      4  C   UNL     1       5.498   4.217  16.080  0.00  0.00    +0.000 C 
ATOM      5  C   UNL     1       4.355   4.706  16.913  0.00  0.00    +0.000 A 
ATOM      6  C   UNL     1       4.328   6.089  17.097  0.00  0.00    +0.000 A 
ATOM      7  C   UNL     1       3.301   6.715  17.787  0.00  0.00    +0.000 A 
ATOM      8  C   UNL     1       2.392   5.937  18.485  0.00  0.00    +0.000 A 
ATOM      9  C   UNL     1       2.522   4.535  18.498  0.00  0.00    +0.000 A 
ATOM     10  C   UNL     1       1.746   3.756  19.364  0.00  0.00    +0.000 A 
ATOM     11  C   UNL     1       1.946   2.376  19.455  0.00  0.00    +0.000 A 
ATOM     12  C   UNL     1       2.873   1.752  18.639  0.00  0.00    +0.000 A 
ATOM     13  C   UNL     1       3.619   2.501  17.740  0.00  0.00    +0.000 A 
ATOM     14  C   UNL     1       3.492   3.903  17.675  0.00  0.00    +0.000 A 
ATOM     15  O   UNL     1       5.470   6.840  16.739  0.00  0.00    +0.000 OA
ENDROOT
BRANCH   7  16
ATOM     16  O   UNL     1       3.183   8.070  17.844  0.00  0.00    +0.000 OA
ATOM     17  H   UNL     1       2.971   8.380  16.945  0.00  0.00    +0.000 HD
ENDBRANCH   7  16
TORSDOF 1
ENDMDL
MODEL 3
REMARK VINA RESULT:      -7.2      1.843      3.315
REMARK  Name = 
REMARK  1 active torsions:
REMARK  status: ('A' for Active; 'I' for Inactive)
REMARK    1  A    between atoms: C_7  and  O_8
REMARK                            x       y       z     vdW  Elec       q    Type
REMARK                         _______ _______ _______ _____ _____    ______ ____
ROOT
ATOM      1  O   UNL     1       0.191   2.504  19.242  0.00  0.00    +0.000 OA
ATOM      2  C   UNL     1       1.318   2.893  18.971  0.00  0.00    +0.000 C 
ATOM      3  C   UNL     1       2.217   2.134  18.006  0.00  0.00    +0.000 C 
ATOM      4  C   UNL     1       3.649   2.382  18.412  0.00  0.00    +0.000 C 
ATOM      5  C   UNL     1       3.820   3.845  18.147  0.00  0.00    +0.000 A 
ATOM      6  C   UNL     1       2.947   4.664  18.862  0.00  0.00    +0.000 A 
ATOM      7  C   UNL     1       3.014   6.047  18.785  0.00  0.00    +0.000 A 
ATOM      8  C   UNL     1       3.826   6.626  17.823  0.00  0.00    +0.000 A 
ATOM      9  C   UNL     1       4.559   5.817  16.935  0.00  0.00    +0.000 A 
ATOM     10  C   UNL     1       5.211   6.379  15.831  0.00  0.00    +0.000 A 
ATOM     11  C   UNL     1       5.851   5.568  14.891  0.00  0.00    +0.000 A 
ATOM     12  C   UNL     1       5.904   4.197  15.075  0.00  0.00    +0.000 A 
ATOM     13  C   UNL     1       5.304   3.625  16.187  0.00  0.00    +0.000 A 
ATOM     14  C   UNL     1       4.589   4.408  17.116  0.00  0.00    +0.000 A 
ATOM     15  O   UNL     1       1.851   4.068  19.524  0.00  0.00    +0.000 OA
ENDROOT
BRANCH   7  16
ATOM     16  O   UNL     1       2.271   6.857  19.588  0.00  0.00    +0.000 OA
ATOM     17  H   UNL     1       1.673   6.285  20.103  0.00  0.00    +0.000 HD
ENDBRANCH   7  16
TORSDOF 1
ENDMDL
MODEL 4
REMARK VINA RESULT:      -7.2      1.187      1.187
REMARK  Name = 
REMARK  1 active torsions:
REMARK  status: ('A' for Active; 'I' for Inactive)
REMARK    1  A    between atoms: C_7  and  O_8
REMARK                            x       y       z     vdW  Elec       q    Type
REMARK                         _______ _______ _______ _____ _____    ______ ____
ROOT
ATOM      1  O   UNL     1       1.114   2.507  22.358  0.00  0.00    +0.000 OA
ATOM      2  C   UNL     1       1.522   2.918  21.281  0.00  0.00    +0.000 C 
ATOM      3  C   UNL     1       0.948   4.169  20.632  0.00  0.00    +0.000 C 
ATOM      4  C   UNL     1       1.077   4.017  19.136  0.00  0.00    +0.000 C 
ATOM      5  C   UNL     1       2.559   4.029  18.928  0.00  0.00    +0.000 A 
ATOM      6  C   UNL     1       3.241   3.013  19.596  0.00  0.00    +0.000 A 
ATOM      7  C   UNL     1       4.611   2.839  19.460  0.00  0.00    +0.000 A 
ATOM      8  C   UNL     1       5.348   3.816  18.811  0.00  0.00    +0.000 A 
ATOM      9  C   UNL     1       4.714   4.969  18.313  0.00  0.00    +0.000 A 
ATOM     10  C   UNL     1       5.467   6.054  17.850  0.00  0.00    +0.000 A 
ATOM     11  C   UNL     1       4.843   7.239  17.453  0.00  0.00    +0.000 A 
ATOM     12  C   UNL     1       3.462   7.332  17.452  0.00  0.00    +0.000 A 
ATOM     13  C   UNL     1       2.695   6.251  17.862  0.00  0.00    +0.000 A 
ATOM     14  C   UNL     1       3.296   5.067  18.337  0.00  0.00    +0.000 A 
ATOM     15  O   UNL     1       2.552   2.270  20.581  0.00  0.00    +0.000 OA
ENDROOT
BRANCH   7  16
ATOM     16  O   UNL     1       5.263   1.765  19.983  0.00  0.00    +0.000 OA
ATOM     17  H   UNL     1       5.420   1.138  19.254  0.00  0.00    +0.000 HD
ENDBRANCH   7  16
TORSDOF 1
ENDMDL
MODEL 5
REMARK VINA RESULT:      -7.2      2.812      3.888
REMARK  Name = 
REMARK  1 active torsions:
REMARK  status: ('A' for Active; 'I' for Inactive)
REMARK    1  A    between atoms: C_7  and  O_8
REMARK                            x       y       z     vdW  Elec       q    Type
REMARK                         _______ _______ _______ _____ _____    ______ ____
ROOT
ATOM      1  O   UNL     1       2.249   6.161  20.058  0.00  0.00    +0.000 OA
ATOM      2  C   UNL     1       2.974   5.502  19.327  0.00  0.00    +0.000 C 
ATOM      3  C   UNL     1       2.539   5.086  17.929  0.00  0.00    +0.000 C 
ATOM      4  C   UNL     1       3.228   3.785  17.596  0.00  0.00    +0.000 C 
ATOM      5  C   UNL     1       4.670   4.181  17.531  0.00  0.00    +0.000 A 
ATOM      6  C   UNL     1       5.170   4.725  18.713  0.00  0.00    +0.000 A 
ATOM      7  C   UNL     1       6.504   5.084  18.846  0.00  0.00    +0.000 A 
ATOM      8  C   UNL     1       7.309   5.095  17.719  0.00  0.00    +0.000 A 
ATOM      9  C   UNL     1       6.774   4.758  16.462  0.00  0.00    +0.000 A 
ATOM     10  C   UNL     1       7.514   4.970  15.293  0.00  0.00    +0.000 A 
ATOM     11  C   UNL     1       6.947   4.734  14.038  0.00  0.00    +0.000 A 
ATOM     12  C   UNL     1       5.664   4.227  13.937  0.00  0.00    +0.000 A 
ATOM     13  C   UNL     1       4.931   3.966  15.086  0.00  0.00    +0.000 A 
ATOM     14  C   UNL     1       5.447   4.260  16.365  0.00  0.00    +0.000 A 
ATOM     15  O   UNL     1       4.258   5.096  19.726  0.00  0.00    +0.000 OA
ENDROOT
BRANCH   7  16
ATOM     16  O   UNL     1       7.037   5.473  20.037  0.00  0.00    +0.000 OA
ATOM     17  H   UNL     1       7.840   4.941  20.182  0.00  0.00    +0.000 HD
ENDBRANCH   7  16
TORSDOF 1
ENDMDL
MODEL 6
REMARK VINA RESULT:      -7.1      3.062      5.404
REMARK  Name = 
REMARK  1 active torsions:
REMARK  status: ('A' for Active; 'I' for Inactive)
REMARK    1  A    between atoms: C_7  and  O_8
REMARK                            x       y       z     vdW  Elec       q    Type
REMARK                         _______ _______ _______ _____ _____    ______ ____
ROOT
ATOM      1  O   UNL     1       7.299   6.220  16.099  0.00  0.00    +0.000 OA
ATOM      2  C   UNL     1       6.240   5.762  16.503  0.00  0.00    +0.000 C 
ATOM      3  C   UNL     1       6.136   4.345  17.048  0.00  0.00    +0.000 C 
ATOM      4  C   UNL     1       4.738   3.845  16.778  0.00  0.00    +0.000 C 
ATOM      5  C   UNL     1       3.897   4.733  17.641  0.00  0.00    +0.000 A 
ATOM      6  C   UNL     1       4.009   6.092  17.349  0.00  0.00    +0.000 A 
ATOM      7  C   UNL     1       3.249   7.047  18.008  0.00  0.00    +0.000 A 
ATOM      8  C   UNL     1       2.515   6.668  19.120  0.00  0.00    +0.000 A 
ATOM      9  C   UNL     1       2.554   5.336  19.574  0.00  0.00    +0.000 A 
ATOM     10  C   UNL     1       1.994   4.988  20.809  0.00  0.00    +0.000 A 
ATOM     11  C   UNL     1       2.123   3.690  21.310  0.00  0.00    +0.000 A 
ATOM     12  C   UNL     1       2.753   2.713  20.559  0.00  0.00    +0.000 A 
ATOM     13  C   UNL     1       3.273   3.027  19.312  0.00  0.00    +0.000 A 
ATOM     14  C   UNL     1       3.223   4.343  18.809  0.00  0.00    +0.000 A 
ATOM     15  O   UNL     1       5.056   6.516  16.501  0.00  0.00    +0.000 OA
ENDROOT
BRANCH   7  16
ATOM     16  O   UNL     1       3.238   8.355  17.631  0.00  0.00    +0.000 OA
ATOM     17  H   UNL     1       2.588   8.813  18.194  0.00  0.00    +0.000 HD
ENDBRANCH   7  16
TORSDOF 1
ENDMDL
MODEL 7
REMARK VINA RESULT:      -7.0      3.759      5.943
REMARK  Name = 
REMARK  1 active torsions:
REMARK  status: ('A' for Active; 'I' for Inactive)
REMARK    1  A    between atoms: C_7  and  O_8
REMARK                            x       y       z     vdW  Elec       q    Type
REMARK                         _______ _______ _______ _____ _____    ______ ____
ROOT
ATOM      1  O   UNL     1       8.207   5.166  13.910  0.00  0.00    +0.000 OA
ATOM      2  C   UNL     1       7.252   5.122  14.673  0.00  0.00    +0.000 C 
ATOM      3  C   UNL     1       6.063   4.207  14.417  0.00  0.00    +0.000 C 
ATOM      4  C   UNL     1       4.842   4.853  15.024  0.00  0.00    +0.000 C 
ATOM      5  C   UNL     1       5.142   4.818  16.490  0.00  0.00    +0.000 A 
ATOM      6  C   UNL     1       6.303   5.499  16.855  0.00  0.00    +0.000 A 
ATOM      7  C   UNL     1       6.693   5.622  18.180  0.00  0.00    +0.000 A 
ATOM      8  C   UNL     1       6.030   4.880  19.144  0.00  0.00    +0.000 A 
ATOM      9  C   UNL     1       4.988   4.009  18.776  0.00  0.00    +0.000 A 
ATOM     10  C   UNL     1       4.457   3.102  19.700  0.00  0.00    +0.000 A 
ATOM     11  C   UNL     1       3.495   2.167  19.310  0.00  0.00    +0.000 A 
ATOM     12  C   UNL     1       3.008   2.168  18.014  0.00  0.00    +0.000 A 
ATOM     13  C   UNL     1       3.487   3.090  17.096  0.00  0.00    +0.000 A 
ATOM     14  C   UNL     1       4.509   4.000  17.438  0.00  0.00    +0.000 A 
ATOM     15  O   UNL     1       7.197   5.903  15.838  0.00  0.00    +0.000 OA
ENDROOT
BRANCH   7  16
ATOM     16  O   UNL     1       7.737   6.408  18.561  0.00  0.00    +0.000 OA
ATOM     17  H   UNL     1       8.378   6.414  17.828  0.00  0.00    +0.000 HD
ENDBRANCH   7  16
TORSDOF 1
ENDMDL
MODEL 8
REMARK VINA RESULT:      -6.9      3.133      4.731
REMARK  Name = 
REMARK  1 active torsions:
REMARK  status: ('A' for Active; 'I' for Inactive)
REMARK    1  A    between atoms: C_7  and  O_8
REMARK                            x       y       z     vdW  Elec       q    Type
REMARK                         _______ _______ _______ _____ _____    ______ ____
ROOT
ATOM      1  O   UNL     1       2.233   9.707  17.402  0.00  0.00    +0.000 OA
ATOM      2  C   UNL     1       2.446   8.632  17.943  0.00  0.00    +0.000 C 
ATOM      3  C   UNL     1       1.479   8.041  18.958  0.00  0.00    +0.000 C 
ATOM      4  C   UNL     1       2.276   7.195  19.921  0.00  0.00    +0.000 C 
ATOM      5  C   UNL     1       2.769   6.080  19.053  0.00  0.00    +0.000 A 
ATOM      6  C   UNL     1       3.556   6.494  17.978  0.00  0.00    +0.000 A 
ATOM      7  C   UNL     1       4.149   5.586  17.113  0.00  0.00    +0.000 A 
ATOM      8  C   UNL     1       3.786   4.252  17.192  0.00  0.00    +0.000 A 
ATOM      9  C   UNL     1       2.823   3.834  18.129  0.00  0.00    +0.000 A 
ATOM     10  C   UNL     1       2.293   2.539  18.077  0.00  0.00    +0.000 A 
ATOM     11  C   UNL     1       1.263   2.154  18.939  0.00  0.00    +0.000 A 
ATOM     12  C   UNL     1       0.795   3.032  19.901  0.00  0.00    +0.000 A 
ATOM     13  C   UNL     1       1.339   4.305  19.999  0.00  0.00    +0.000 A 
ATOM     14  C   UNL     1       2.330   4.748  19.098  0.00  0.00    +0.000 A 
ATOM     15  O   UNL     1       3.589   7.869  17.655  0.00  0.00    +0.000 OA
ENDROOT
BRANCH   7  16
ATOM     16  O   UNL     1       5.038   5.968  16.156  0.00  0.00    +0.000 OA
ATOM     17  H   UNL     1       5.912   5.626  16.419  0.00  0.00    +0.000 HD
ENDBRANCH   7  16
TORSDOF 1
ENDMDL
MODEL 9
REMARK VINA RESULT:      -6.8      1.926      3.246
REMARK  Name = 
REMARK  1 active torsions:
REMARK  status: ('A' for Active; 'I' for Inactive)
REMARK    1  A    between atoms: C_7  and  O_8
REMARK                            x       y       z     vdW  Elec       q    Type
REMARK                         _______ _______ _______ _____ _____    ______ ____
ROOT
ATOM      1  O   UNL     1       1.074   2.767  20.839  0.00  0.00    +0.000 OA
ATOM      2  C   UNL     1       2.065   3.277  20.337  0.00  0.00    +0.000 C 
ATOM      3  C   UNL     1       3.033   2.472  19.482  0.00  0.00    +0.000 C 
ATOM      4  C   UNL     1       4.403   3.090  19.625  0.00  0.00    +0.000 C 
ATOM      5  C   UNL     1       4.229   4.431  18.984  0.00  0.00    +0.000 A 
ATOM      6  C   UNL     1       3.254   5.231  19.580  0.00  0.00    +0.000 A 
ATOM      7  C   UNL     1       3.011   6.528  19.154  0.00  0.00    +0.000 A 
ATOM      8  C   UNL     1       3.603   6.969  17.982  0.00  0.00    +0.000 A 
ATOM      9  C   UNL     1       4.426   6.106  17.235  0.00  0.00    +0.000 A 
ATOM     10  C   UNL     1       4.855   6.463  15.952  0.00  0.00    +0.000 A 
ATOM     11  C   UNL     1       5.585   5.567  15.168  0.00  0.00    +0.000 A 
ATOM     12  C   UNL     1       5.950   4.333  15.678  0.00  0.00    +0.000 A 
ATOM     13  C   UNL     1       5.575   3.978  16.966  0.00  0.00    +0.000 A 
ATOM     14  C   UNL     1       4.777   4.832  17.755  0.00  0.00    +0.000 A 
ATOM     15  O   UNL     1       2.368   4.637  20.506  0.00  0.00    +0.000 OA
ENDROOT
BRANCH   7  16
ATOM     16  O   UNL     1       2.171   7.367  19.820  0.00  0.00    +0.000 OA
ATOM     17  H   UNL     1       1.266   7.028  19.698  0.00  0.00    +0.000 HD
ENDBRANCH   7  16
TORSDOF 1
ENDMDL
