MODEL 1
REMARK VINA RESULT:      -7.2      0.000      0.000
REMARK  Name = 
REMARK  10 active torsions:
REMARK  status: ('A' for Active; 'I' for Inactive)
REMARK    1  A    between atoms: C_1  and  C_2
REMARK    2  A    between atoms: C_2  and  N_3
REMARK    3  A    between atoms: N_3  and  C_4
REMARK    4  A    between atoms: C_4  and  C_5
REMARK    5  A    between atoms: C_6  and  C_8
REMARK    6  A    between atoms: N_11  and  C_12
REMARK    7  A    between atoms: C_12  and  C_13
REMARK    8  A    between atoms: C_16  and  O_17
REMARK    9  A    between atoms: O_17  and  C_18
REMARK   10  A    between atoms: C_18  and  C_19
REMARK                            x       y       z     vdW  Elec       q    Type
REMARK                         _______ _______ _______ _____ _____    ______ ____
ROOT
ATOM      1  C   UNL     1       0.757  10.033  19.980  0.00  0.00    +0.000 C 
ENDROOT
BRANCH   1   5
ATOM      2  C   UNL     1      -2.498  12.009  18.013  0.00  0.00    +0.000 C 
ATOM      3  C   UNL     1      -2.254  10.533  17.744  0.00  0.00    +0.000 C 
ATOM      4  C   UNL     1      -1.353   9.908  18.797  0.00  0.00    +0.000 C 
ATOM      5  N   UNL     1      -0.059  10.616  18.893  0.00  0.00    +0.000 NA
ATOM      6  C   UNL     1      -0.234  12.051  19.160  0.00  0.00    +0.000 C 
ATOM      7  C   UNL     1      -1.162  12.736  18.157  0.00  0.00    +0.000 C 
BRANCH   2   9
ATOM      8  N   UNL     1      -4.814  12.173  19.052  0.00  0.00    +0.000 N 
ATOM      9  C   UNL     1      -3.428  12.198  19.241  0.00  0.00    +0.000 C 
ATOM     10  O   UNL     1      -2.960  12.365  20.378  0.00  0.00    +0.000 OA
BRANCH   8  12
ATOM     11  C   UNL     1      -6.850  11.263  20.359  0.00  0.00    +0.000 C 
ATOM     12  C   UNL     1      -5.680  12.246  20.253  0.00  0.00    +0.000 C 
ENDBRANCH   8  12
BRANCH   8  13
ATOM     13  C   UNL     1      -5.337  12.064  17.683  0.00  0.00    +0.000 C 
ATOM     14  C   UNL     1      -6.385  12.997  17.119  0.00  0.00    +0.000 C 
ENDBRANCH   8  13
ENDBRANCH   2   9
ENDBRANCH   1   5
BRANCH   1  15
ATOM     15  C   UNL     1       1.468   8.751  19.601  0.00  0.00    +0.000 A 
ATOM     16  C   UNL     1       2.006   8.591  18.319  0.00  0.00    +0.000 A 
ATOM     17  C   UNL     1       2.614   7.400  17.946  0.00  0.00    +0.000 A 
ATOM     18  C   UNL     1       2.791   6.385  18.884  0.00  0.00    +0.000 A 
ATOM     19  C   UNL     1       2.264   6.530  20.168  0.00  0.00    +0.000 A 
ATOM     20  C   UNL     1       1.604   7.708  20.528  0.00  0.00    +0.000 A 
BRANCH  18  21
ATOM     21  O   UNL     1       3.478   5.225  18.638  0.00  0.00    +0.000 OA
BRANCH  21  22
ATOM     22  C   UNL     1       4.335   5.291  17.496  0.00  0.00    +0.000 C 
BRANCH  22  23
ATOM     23  C   UNL     1       5.666   5.858  17.893  0.00  0.00    +0.000 A 
ATOM     24  C   UNL     1       6.378   5.328  18.980  0.00  0.00    +0.000 A 
ATOM     25  C   UNL     1       7.626   5.849  19.320  0.00  0.00    +0.000 A 
ATOM     26  C   UNL     1       8.169   6.896  18.577  0.00  0.00    +0.000 A 
ATOM     27  C   UNL     1       7.465   7.435  17.500  0.00  0.00    +0.000 A 
ATOM     28  C   UNL     1       6.220   6.917  17.158  0.00  0.00    +0.000 A 
ENDBRANCH  22  23
ENDBRANCH  21  22
ENDBRANCH  18  21
ENDBRANCH   1  15
TORSDOF 8
ENDMDL
MODEL 2
REMARK VINA RESULT:      -6.9      3.228      4.851
REMARK  Name = 
REMARK  10 active torsions:
REMARK  status: ('A' for Active; 'I' for Inactive)
REMARK    1  A    between atoms: C_1  and  C_2
REMARK    2  A    between atoms: C_2  and  N_3
REMARK    3  A    between atoms: N_3  and  C_4
REMARK    4  A    between atoms: C_4  and  C_5
REMARK    5  A    between atoms: C_6  and  C_8
REMARK    6  A    between atoms: N_11  and  C_12
REMARK    7  A    between atoms: C_12  and  C_13
REMARK    8  A    between atoms: C_16  and  O_17
REMARK    9  A    between atoms: O_17  and  C_18
REMARK   10  A    between atoms: C_18  and  C_19
REMARK                            x       y       z     vdW  Elec       q    Type
REMARK                         _______ _______ _______ _____ _____    ______ ____
ROOT
ATOM      1  C   UNL     1       0.469  10.899  18.868  0.00  0.00    +0.000 C 
ENDROOT
BRANCH   1   5
ATOM      2  C   UNL     1       1.621  14.868  20.003  0.00  0.00    +0.000 C 
ATOM      3  C   UNL     1       2.586  14.019  19.192  0.00  0.00    +0.000 C 
ATOM      4  C   UNL     1       1.887  12.835  18.541  0.00  0.00    +0.000 C 
ATOM      5  N   UNL     1       1.203  11.992  19.543  0.00  0.00    +0.000 NA
ATOM      6  C   UNL     1       0.250  12.762  20.355  0.00  0.00    +0.000 C 
ATOM      7  C   UNL     1       0.880  13.991  21.010  0.00  0.00    +0.000 C 
BRANCH   2   9
ATOM      8  N   UNL     1       0.945  17.005  18.799  0.00  0.00    +0.000 N 
ATOM      9  C   UNL     1       0.667  15.660  19.070  0.00  0.00    +0.000 C 
ATOM     10  O   UNL     1      -0.327  15.119  18.563  0.00  0.00    +0.000 OA
BRANCH   8  12
ATOM     11  C   UNL     1       0.762  18.462  16.672  0.00  0.00    +0.000 C 
ATOM     12  C   UNL     1       0.083  17.708  17.820  0.00  0.00    +0.000 C 
ENDBRANCH   8  12
BRANCH   8  13
ATOM     13  C   UNL     1       2.078  17.642  19.485  0.00  0.00    +0.000 C 
ATOM     14  C   UNL     1       1.911  18.626  20.622  0.00  0.00    +0.000 C 
ENDBRANCH   8  13
ENDBRANCH   2   9
ENDBRANCH   1   5
BRANCH   1  15
ATOM     15  C   UNL     1       1.162   9.554  18.934  0.00  0.00    +0.000 A 
ATOM     16  C   UNL     1       1.218   8.844  20.138  0.00  0.00    +0.000 A 
ATOM     17  C   UNL     1       1.895   7.635  20.221  0.00  0.00    +0.000 A 
ATOM     18  C   UNL     1       2.437   7.061  19.073  0.00  0.00    +0.000 A 
ATOM     19  C   UNL     1       2.386   7.755  17.863  0.00  0.00    +0.000 A 
ATOM     20  C   UNL     1       1.751   8.997  17.791  0.00  0.00    +0.000 A 
BRANCH  18  21
ATOM     21  O   UNL     1       3.021   5.822  19.038  0.00  0.00    +0.000 OA
BRANCH  21  22
ATOM     22  C   UNL     1       3.766   5.567  17.845  0.00  0.00    +0.000 C 
BRANCH  22  23
ATOM     23  C   UNL     1       5.214   5.885  18.072  0.00  0.00    +0.000 A 
ATOM     24  C   UNL     1       5.896   6.773  17.227  0.00  0.00    +0.000 A 
ATOM     25  C   UNL     1       7.236   7.079  17.466  0.00  0.00    +0.000 A 
ATOM     26  C   UNL     1       7.898   6.503  18.549  0.00  0.00    +0.000 A 
ATOM     27  C   UNL     1       7.231   5.613  19.391  0.00  0.00    +0.000 A 
ATOM     28  C   UNL     1       5.894   5.306  19.155  0.00  0.00    +0.000 A 
ENDBRANCH  22  23
ENDBRANCH  21  22
ENDBRANCH  18  21
ENDBRANCH   1  15
TORSDOF 8
ENDMDL
MODEL 3
REMARK VINA RESULT:      -6.9      3.129      3.893
REMARK  Name = 
REMARK  10 active torsions:
REMARK  status: ('A' for Active; 'I' for Inactive)
REMARK    1  A    between atoms: C_1  and  C_2
REMARK    2  A    between atoms: C_2  and  N_3
REMARK    3  A    between atoms: N_3  and  C_4
REMARK    4  A    between atoms: C_4  and  C_5
REMARK    5  A    between atoms: C_6  and  C_8
REMARK    6  A    between atoms: N_11  and  C_12
REMARK    7  A    between atoms: C_12  and  C_13
REMARK    8  A    between atoms: C_16  and  O_17
REMARK    9  A    between atoms: O_17  and  C_18
REMARK   10  A    between atoms: C_18  and  C_19
REMARK                            x       y       z     vdW  Elec       q    Type
REMARK                         _______ _______ _______ _____ _____    ______ ____
ROOT
ATOM      1  C   UNL     1       0.798  10.949  19.619  0.00  0.00    +0.000 C 
ENDROOT
BRANCH   1   5
ATOM      2  C   UNL     1      -1.938  12.086  22.716  0.00  0.00    +0.000 C 
ATOM      3  C   UNL     1      -1.056  10.864  22.916  0.00  0.00    +0.000 C 
ATOM      4  C   UNL     1       0.108  10.841  21.938  0.00  0.00    +0.000 C 
ATOM      5  N   UNL     1      -0.360  10.892  20.538  0.00  0.00    +0.000 NA
ATOM      6  C   UNL     1      -1.215  12.061  20.284  0.00  0.00    +0.000 C 
ATOM      7  C   UNL     1      -2.387  12.166  21.259  0.00  0.00    +0.000 C 
BRANCH   2   9
ATOM      8  N   UNL     1      -1.875  14.223  24.094  0.00  0.00    +0.000 N 
ATOM      9  C   UNL     1      -1.216  13.371  23.201  0.00  0.00    +0.000 C 
ATOM     10  O   UNL     1      -0.070  13.646  22.812  0.00  0.00    +0.000 OA
BRANCH   8  12
ATOM     11  C   UNL     1      -1.547  15.957  25.983  0.00  0.00    +0.000 C 
ATOM     12  C   UNL     1      -1.123  15.385  24.626  0.00  0.00    +0.000 C 
ENDBRANCH   8  12
BRANCH   8  13
ATOM     13  C   UNL     1      -3.263  13.918  24.466  0.00  0.00    +0.000 C 
ATOM     14  C   UNL     1      -4.458  14.597  23.836  0.00  0.00    +0.000 C 
ENDBRANCH   8  13
ENDBRANCH   2   9
ENDBRANCH   1   5
BRANCH   1  15
ATOM     15  C   UNL     1       1.400   9.598  19.296  0.00  0.00    +0.000 A 
ATOM     16  C   UNL     1       1.465   8.599  20.273  0.00  0.00    +0.000 A 
ATOM     17  C   UNL     1       2.063   7.376  20.002  0.00  0.00    +0.000 A 
ATOM     18  C   UNL     1       2.510   7.090  18.714  0.00  0.00    +0.000 A 
ATOM     19  C   UNL     1       2.449   8.074  17.727  0.00  0.00    +0.000 A 
ATOM     20  C   UNL     1       1.896   9.325  18.014  0.00  0.00    +0.000 A 
BRANCH  18  21
ATOM     21  O   UNL     1       3.007   5.873  18.327  0.00  0.00    +0.000 OA
BRANCH  21  22
ATOM     22  C   UNL     1       3.952   5.947  17.259  0.00  0.00    +0.000 C 
BRANCH  22  23
ATOM     23  C   UNL     1       5.338   6.095  17.816  0.00  0.00    +0.000 A 
ATOM     24  C   UNL     1       5.744   5.358  18.939  0.00  0.00    +0.000 A 
ATOM     25  C   UNL     1       7.043   5.489  19.429  0.00  0.00    +0.000 A 
ATOM     26  C   UNL     1       7.941   6.350  18.800  0.00  0.00    +0.000 A 
ATOM     27  C   UNL     1       7.544   7.092  17.688  0.00  0.00    +0.000 A 
ATOM     28  C   UNL     1       6.249   6.965  17.196  0.00  0.00    +0.000 A 
ENDBRANCH  22  23
ENDBRANCH  21  22
ENDBRANCH  18  21
ENDBRANCH   1  15
TORSDOF 8
ENDMDL
MODEL 4
REMARK VINA RESULT:      -6.9      2.296      3.062
REMARK  Name = 
REMARK  10 active torsions:
REMARK  status: ('A' for Active; 'I' for Inactive)
REMARK    1  A    between atoms: C_1  and  C_2
REMARK    2  A    between atoms: C_2  and  N_3
REMARK    3  A    between atoms: N_3  and  C_4
REMARK    4  A    between atoms: C_4  and  C_5
REMARK    5  A    between atoms: C_6  and  C_8
REMARK    6  A    between atoms: N_11  and  C_12
REMARK    7  A    between atoms: C_12  and  C_13
REMARK    8  A    between atoms: C_16  and  O_17
REMARK    9  A    between atoms: O_17  and  C_18
REMARK   10  A    between atoms: C_18  and  C_19
REMARK                            x       y       z     vdW  Elec       q    Type
REMARK                         _______ _______ _______ _____ _____    ______ ____
ROOT
ATOM      1  C   UNL     1       1.499   8.336  21.239  0.00  0.00    +0.000 C 
ENDROOT
BRANCH   1   5
ATOM      2  C   UNL     1      -0.779  11.942  20.817  0.00  0.00    +0.000 C 
ATOM      3  C   UNL     1      -1.171  10.717  20.006  0.00  0.00    +0.000 C 
ATOM      4  C   UNL     1      -0.543   9.448  20.561  0.00  0.00    +0.000 C 
ATOM      5  N   UNL     1       0.930   9.554  20.621  0.00  0.00    +0.000 NA
ATOM      6  C   UNL     1       1.368  10.720  21.401  0.00  0.00    +0.000 C 
ATOM      7  C   UNL     1       0.742  12.029  20.919  0.00  0.00    +0.000 C 
BRANCH   2   9
ATOM      8  N   UNL     1      -2.727  12.557  22.333  0.00  0.00    +0.000 N 
ATOM      9  C   UNL     1      -1.481  11.934  22.201  0.00  0.00    +0.000 C 
ATOM     10  O   UNL     1      -0.956  11.383  23.181  0.00  0.00    +0.000 OA
BRANCH   8  12
ATOM     11  C   UNL     1      -3.821  13.732  24.358  0.00  0.00    +0.000 C 
ATOM     12  C   UNL     1      -3.426  12.441  23.635  0.00  0.00    +0.000 C 
ENDBRANCH   8  12
BRANCH   8  13
ATOM     13  C   UNL     1      -3.281  13.277  21.178  0.00  0.00    +0.000 C 
ATOM     14  C   UNL     1      -4.407  12.736  20.326  0.00  0.00    +0.000 C 
ENDBRANCH   8  13
ENDBRANCH   2   9
ENDBRANCH   1   5
BRANCH   1  15
ATOM     15  C   UNL     1       1.815   7.231  20.253  0.00  0.00    +0.000 A 
ATOM     16  C   UNL     1       1.646   5.890  20.612  0.00  0.00    +0.000 A 
ATOM     17  C   UNL     1       1.983   4.869  19.734  0.00  0.00    +0.000 A 
ATOM     18  C   UNL     1       2.394   5.174  18.438  0.00  0.00    +0.000 A 
ATOM     19  C   UNL     1       2.565   6.507  18.062  0.00  0.00    +0.000 A 
ATOM     20  C   UNL     1       2.277   7.534  18.964  0.00  0.00    +0.000 A 
BRANCH  18  21
ATOM     21  O   UNL     1       2.637   4.235  17.471  0.00  0.00    +0.000 OA
BRANCH  21  22
ATOM     22  C   UNL     1       3.779   3.417  17.731  0.00  0.00    +0.000 C 
BRANCH  22  23
ATOM     23  C   UNL     1       4.998   4.034  17.111  0.00  0.00    +0.000 A 
ATOM     24  C   UNL     1       6.079   4.446  17.906  0.00  0.00    +0.000 A 
ATOM     25  C   UNL     1       7.215   4.994  17.311  0.00  0.00    +0.000 A 
ATOM     26  C   UNL     1       7.278   5.132  15.926  0.00  0.00    +0.000 A 
ATOM     27  C   UNL     1       6.206   4.733  15.128  0.00  0.00    +0.000 A 
ATOM     28  C   UNL     1       5.071   4.186  15.717  0.00  0.00    +0.000 A 
ENDBRANCH  22  23
ENDBRANCH  21  22
ENDBRANCH  18  21
ENDBRANCH   1  15
TORSDOF 8
ENDMDL
MODEL 5
REMARK VINA RESULT:      -6.8      3.903      7.296
REMARK  Name = 
REMARK  10 active torsions:
REMARK  status: ('A' for Active; 'I' for Inactive)
REMARK    1  A    between atoms: C_1  and  C_2
REMARK    2  A    between atoms: C_2  and  N_3
REMARK    3  A    between atoms: N_3  and  C_4
REMARK    4  A    between atoms: C_4  and  C_5
REMARK    5  A    between atoms: C_6  and  C_8
REMARK    6  A    between atoms: N_11  and  C_12
REMARK    7  A    between atoms: C_12  and  C_13
REMARK    8  A    between atoms: C_16  and  O_17
REMARK    9  A    between atoms: O_17  and  C_18
REMARK   10  A    between atoms: C_18  and  C_19
REMARK                            x       y       z     vdW  Elec       q    Type
REMARK                         _______ _______ _______ _____ _____    ______ ____
ROOT
ATOM      1  C   UNL     1       5.847   4.346  17.538  0.00  0.00    +0.000 C 
ENDROOT
BRANCH   1   5
ATOM      2  C   UNL     1       2.086   5.667  19.113  0.00  0.00    +0.000 C 
ATOM      3  C   UNL     1       3.202   5.290  20.074  0.00  0.00    +0.000 C 
ATOM      4  C   UNL     1       4.554   5.244  19.378  0.00  0.00    +0.000 C 
ATOM      5  N   UNL     1       4.544   4.306  18.237  0.00  0.00    +0.000 NA
ATOM      6  C   UNL     1       3.485   4.626  17.269  0.00  0.00    +0.000 C 
ATOM      7  C   UNL     1       2.101   4.726  17.910  0.00  0.00    +0.000 C 
BRANCH   2   9
ATOM      8  N   UNL     1       1.739   8.135  19.620  0.00  0.00    +0.000 N 
ATOM      9  C   UNL     1       2.183   7.164  18.716  0.00  0.00    +0.000 C 
ATOM     10  O   UNL     1       2.649   7.505  17.618  0.00  0.00    +0.000 OA
BRANCH   8  12
ATOM     11  C   UNL     1       0.810  10.289  18.534  0.00  0.00    +0.000 C 
ATOM     12  C   UNL     1       1.943   9.559  19.263  0.00  0.00    +0.000 C 
ENDBRANCH   8  12
BRANCH   8  13
ATOM     13  C   UNL     1       1.110   7.697  20.873  0.00  0.00    +0.000 C 
ATOM     14  C   UNL     1       0.020   8.479  21.571  0.00  0.00    +0.000 C 
ENDBRANCH   8  13
ENDBRANCH   2   9
ENDBRANCH   1   5
BRANCH   1  15
ATOM     15  C   UNL     1       6.680   5.572  17.850  0.00  0.00    +0.000 A 
ATOM     16  C   UNL     1       6.523   6.745  17.104  0.00  0.00    +0.000 A 
ATOM     17  C   UNL     1       7.319   7.856  17.348  0.00  0.00    +0.000 A 
ATOM     18  C   UNL     1       8.212   7.850  18.418  0.00  0.00    +0.000 A 
ATOM     19  C   UNL     1       8.378   6.689  19.174  0.00  0.00    +0.000 A 
ATOM     20  C   UNL     1       7.615   5.553  18.894  0.00  0.00    +0.000 A 
BRANCH  18  21
ATOM     21  O   UNL     1       8.953   8.936  18.803  0.00  0.00    +0.000 OA
BRANCH  21  22
ATOM     22  C   UNL     1       8.680  10.119  18.050  0.00  0.00    +0.000 C 
BRANCH  22  23
ATOM     23  C   UNL     1       9.559  11.239  18.525  0.00  0.00    +0.000 A 
ATOM     24  C   UNL     1      10.395  11.072  19.640  0.00  0.00    +0.000 A 
ATOM     25  C   UNL     1      11.225  12.114  20.054  0.00  0.00    +0.000 A 
ATOM     26  C   UNL     1      11.225  13.322  19.358  0.00  0.00    +0.000 A 
ATOM     27  C   UNL     1      10.392  13.499  18.254  0.00  0.00    +0.000 A 
ATOM     28  C   UNL     1       9.563  12.462  17.838  0.00  0.00    +0.000 A 
ENDBRANCH  22  23
ENDBRANCH  21  22
ENDBRANCH  18  21
ENDBRANCH   1  15
TORSDOF 8
ENDMDL
MODEL 6
REMARK VINA RESULT:      -6.8      3.827      7.035
REMARK  Name = 
REMARK  10 active torsions:
REMARK  status: ('A' for Active; 'I' for Inactive)
REMARK    1  A    between atoms: C_1  and  C_2
REMARK    2  A    between atoms: C_2  and  N_3
REMARK    3  A    between atoms: N_3  and  C_4
REMARK    4  A    between atoms: C_4  and  C_5
REMARK    5  A    between atoms: C_6  and  C_8
REMARK    6  A    between atoms: N_11  and  C_12
REMARK    7  A    between atoms: C_12  and  C_13
REMARK    8  A    between atoms: C_16  and  O_17
REMARK    9  A    between atoms: O_17  and  C_18
REMARK   10  A    between atoms: C_18  and  C_19
REMARK                            x       y       z     vdW  Elec       q    Type
REMARK                         _______ _______ _______ _____ _____    ______ ____
ROOT
ATOM      1  C   UNL     1       5.175   3.981  17.698  0.00  0.00    +0.000 C 
ENDROOT
BRANCH   1   5
ATOM      2  C   UNL     1       1.710   5.712  19.531  0.00  0.00    +0.000 C 
ATOM      3  C   UNL     1       2.856   5.238  20.410  0.00  0.00    +0.000 C 
ATOM      4  C   UNL     1       4.135   5.039  19.612  0.00  0.00    +0.000 C 
ATOM      5  N   UNL     1       3.936   4.088  18.499  0.00  0.00    +0.000 NA
ATOM      6  C   UNL     1       2.841   4.501  17.609  0.00  0.00    +0.000 C 
ATOM      7  C   UNL     1       1.531   4.756  18.354  0.00  0.00    +0.000 C 
BRANCH   2   9
ATOM      8  N   UNL     1       1.497   8.215  19.932  0.00  0.00    +0.000 N 
ATOM      9  C   UNL     1       1.928   7.184  19.090  0.00  0.00    +0.000 C 
ATOM     10  O   UNL     1       2.478   7.453  18.011  0.00  0.00    +0.000 OA
BRANCH   8  12
ATOM     11  C   UNL     1       0.791  10.368  18.689  0.00  0.00    +0.000 C 
ATOM     12  C   UNL     1       1.814   9.609  19.540  0.00  0.00    +0.000 C 
ENDBRANCH   8  12
BRANCH   8  13
ATOM     13  C   UNL     1       0.769   7.865  21.160  0.00  0.00    +0.000 C 
ATOM     14  C   UNL     1      -0.214   8.796  21.835  0.00  0.00    +0.000 C 
ENDBRANCH   8  13
ENDBRANCH   2   9
ENDBRANCH   1   5
BRANCH   1  15
ATOM     15  C   UNL     1       6.159   5.109  17.926  0.00  0.00    +0.000 A 
ATOM     16  C   UNL     1       6.105   6.266  17.141  0.00  0.00    +0.000 A 
ATOM     17  C   UNL     1       7.035   7.283  17.306  0.00  0.00    +0.000 A 
ATOM     18  C   UNL     1       7.972   7.209  18.335  0.00  0.00    +0.000 A 
ATOM     19  C   UNL     1       8.037   6.064  19.129  0.00  0.00    +0.000 A 
ATOM     20  C   UNL     1       7.135   5.016  18.928  0.00  0.00    +0.000 A 
BRANCH  18  21
ATOM     21  O   UNL     1       8.851   8.213  18.645  0.00  0.00    +0.000 OA
BRANCH  21  22
ATOM     22  C   UNL     1       8.419   9.510  18.228  0.00  0.00    +0.000 C 
BRANCH  22  23
ATOM     23  C   UNL     1       9.340  10.555  18.784  0.00  0.00    +0.000 A 
ATOM     24  C   UNL     1      10.155  11.321  17.935  0.00  0.00    +0.000 A 
ATOM     25  C   UNL     1      10.986  12.306  18.466  0.00  0.00    +0.000 A 
ATOM     26  C   UNL     1      11.007  12.534  19.840  0.00  0.00    +0.000 A 
ATOM     27  C   UNL     1      10.207  11.773  20.693  0.00  0.00    +0.000 A 
ATOM     28  C   UNL     1       9.376  10.789  20.167  0.00  0.00    +0.000 A 
ENDBRANCH  22  23
ENDBRANCH  21  22
ENDBRANCH  18  21
ENDBRANCH   1  15
TORSDOF 8
ENDMDL
MODEL 7
REMARK VINA RESULT:      -6.8      2.805     10.544
REMARK  Name = 
REMARK  10 active torsions:
REMARK  status: ('A' for Active; 'I' for Inactive)
REMARK    1  A    between atoms: C_1  and  C_2
REMARK    2  A    between atoms: C_2  and  N_3
REMARK    3  A    between atoms: N_3  and  C_4
REMARK    4  A    between atoms: C_4  and  C_5
REMARK    5  A    between atoms: C_6  and  C_8
REMARK    6  A    between atoms: N_11  and  C_12
REMARK    7  A    between atoms: C_12  and  C_13
REMARK    8  A    between atoms: C_16  and  O_17
REMARK    9  A    between atoms: O_17  and  C_18
REMARK   10  A    between atoms: C_18  and  C_19
REMARK                            x       y       z     vdW  Elec       q    Type
REMARK                         _______ _______ _______ _____ _____    ______ ____
ROOT
ATOM      1  C   UNL     1       1.632   7.623  21.372  0.00  0.00    +0.000 C 
ENDROOT
BRANCH   1   5
ATOM      2  C   UNL     1       3.199   5.738  17.857  0.00  0.00    +0.000 C 
ATOM      3  C   UNL     1       2.771   7.195  17.790  0.00  0.00    +0.000 C 
ATOM      4  C   UNL     1       2.632   7.807  19.175  0.00  0.00    +0.000 C 
ATOM      5  N   UNL     1       1.680   7.047  20.010  0.00  0.00    +0.000 NA
ATOM      6  C   UNL     1       2.049   5.629  20.117  0.00  0.00    +0.000 C 
ATOM      7  C   UNL     1       2.242   4.958  18.757  0.00  0.00    +0.000 C 
BRANCH   2   9
ATOM      8  N   UNL     1       5.689   5.732  17.336  0.00  0.00    +0.000 N 
ATOM      9  C   UNL     1       4.682   5.620  18.301  0.00  0.00    +0.000 C 
ATOM     10  O   UNL     1       4.980   5.434  19.490  0.00  0.00    +0.000 OA
BRANCH   8  12
ATOM     11  C   UNL     1       7.787   7.074  18.024  0.00  0.00    +0.000 C 
ATOM     12  C   UNL     1       7.097   5.725  17.800  0.00  0.00    +0.000 C 
ENDBRANCH   8  12
BRANCH   8  13
ATOM     13  C   UNL     1       5.302   5.861  15.924  0.00  0.00    +0.000 C 
ATOM     14  C   UNL     1       5.532   4.774  14.899  0.00  0.00    +0.000 C 
ENDBRANCH   8  13
ENDBRANCH   2   9
ENDBRANCH   1   5
BRANCH   1  15
ATOM     15  C   UNL     1       0.731   8.834  21.502  0.00  0.00    +0.000 A 
ATOM     16  C   UNL     1       0.327   9.286  22.763  0.00  0.00    +0.000 A 
ATOM     17  C   UNL     1      -0.540  10.362  22.889  0.00  0.00    +0.000 A 
ATOM     18  C   UNL     1      -0.932  11.076  21.758  0.00  0.00    +0.000 A 
ATOM     19  C   UNL     1      -0.535  10.641  20.493  0.00  0.00    +0.000 A 
ATOM     20  C   UNL     1       0.295   9.524  20.362  0.00  0.00    +0.000 A 
BRANCH  18  21
ATOM     21  O   UNL     1      -1.691  12.216  21.797  0.00  0.00    +0.000 OA
BRANCH  21  22
ATOM     22  C   UNL     1      -2.138  12.570  23.107  0.00  0.00    +0.000 C 
BRANCH  22  23
ATOM     23  C   UNL     1      -3.635  12.669  23.124  0.00  0.00    +0.000 A 
ATOM     24  C   UNL     1      -4.359  12.818  21.931  0.00  0.00    +0.000 A 
ATOM     25  C   UNL     1      -5.751  12.883  21.962  0.00  0.00    +0.000 A 
ATOM     26  C   UNL     1      -6.426  12.798  23.179  0.00  0.00    +0.000 A 
ATOM     27  C   UNL     1      -5.714  12.657  24.370  0.00  0.00    +0.000 A 
ATOM     28  C   UNL     1      -4.325  12.592  24.344  0.00  0.00    +0.000 A 
ENDBRANCH  22  23
ENDBRANCH  21  22
ENDBRANCH  18  21
ENDBRANCH   1  15
TORSDOF 8
ENDMDL
MODEL 8
REMARK VINA RESULT:      -6.7      3.912      7.336
REMARK  Name = 
REMARK  10 active torsions:
REMARK  status: ('A' for Active; 'I' for Inactive)
REMARK    1  A    between atoms: C_1  and  C_2
REMARK    2  A    between atoms: C_2  and  N_3
REMARK    3  A    between atoms: N_3  and  C_4
REMARK    4  A    between atoms: C_4  and  C_5
REMARK    5  A    between atoms: C_6  and  C_8
REMARK    6  A    between atoms: N_11  and  C_12
REMARK    7  A    between atoms: C_12  and  C_13
REMARK    8  A    between atoms: C_16  and  O_17
REMARK    9  A    between atoms: O_17  and  C_18
REMARK   10  A    between atoms: C_18  and  C_19
REMARK                            x       y       z     vdW  Elec       q    Type
REMARK                         _______ _______ _______ _____ _____    ______ ____
ROOT
ATOM      1  C   UNL     1       5.896   4.212  17.897  0.00  0.00    +0.000 C 
ENDROOT
BRANCH   1   5
ATOM      2  C   UNL     1       2.072   5.637  19.208  0.00  0.00    +0.000 C 
ATOM      3  C   UNL     1       3.141   5.322  20.241  0.00  0.00    +0.000 C 
ATOM      4  C   UNL     1       4.523   5.228  19.614  0.00  0.00    +0.000 C 
ATOM      5  N   UNL     1       4.562   4.219  18.536  0.00  0.00    +0.000 NA
ATOM      6  C   UNL     1       3.550   4.477  17.501  0.00  0.00    +0.000 C 
ATOM      7  C   UNL     1       2.138   4.621  18.069  0.00  0.00    +0.000 C 
BRANCH   2   9
ATOM      8  N   UNL     1       1.771   8.138  19.564  0.00  0.00    +0.000 N 
ATOM      9  C   UNL     1       2.194   7.105  18.719  0.00  0.00    +0.000 C 
ATOM     10  O   UNL     1       2.661   7.370  17.601  0.00  0.00    +0.000 OA
BRANCH   8  12
ATOM     11  C   UNL     1       0.849  10.263  18.419  0.00  0.00    +0.000 C 
ATOM     12  C   UNL     1       1.999   9.534  19.120  0.00  0.00    +0.000 C 
ENDBRANCH   8  12
BRANCH   8  13
ATOM     13  C   UNL     1       1.140   7.788  20.844  0.00  0.00    +0.000 C 
ATOM     14  C   UNL     1       0.040   8.610  21.477  0.00  0.00    +0.000 C 
ENDBRANCH   8  13
ENDBRANCH   2   9
ENDBRANCH   1   5
BRANCH   1  15
ATOM     15  C   UNL     1       6.582   5.562  17.881  0.00  0.00    +0.000 A 
ATOM     16  C   UNL     1       7.689   5.804  18.701  0.00  0.00    +0.000 A 
ATOM     17  C   UNL     1       8.292   7.054  18.733  0.00  0.00    +0.000 A 
ATOM     18  C   UNL     1       7.865   8.055  17.862  0.00  0.00    +0.000 A 
ATOM     19  C   UNL     1       6.765   7.828  17.035  0.00  0.00    +0.000 A 
ATOM     20  C   UNL     1       6.123   6.587  17.042  0.00  0.00    +0.000 A 
BRANCH  18  21
ATOM     21  O   UNL     1       8.473   9.277  17.743  0.00  0.00    +0.000 OA
BRANCH  21  22
ATOM     22  C   UNL     1       8.964   9.802  18.978  0.00  0.00    +0.000 C 
BRANCH  22  23
ATOM     23  C   UNL     1       9.656  11.111  18.734  0.00  0.00    +0.000 A 
ATOM     24  C   UNL     1      10.963  11.329  19.195  0.00  0.00    +0.000 A 
ATOM     25  C   UNL     1      11.602  12.542  18.938  0.00  0.00    +0.000 A 
ATOM     26  C   UNL     1      10.942  13.538  18.221  0.00  0.00    +0.000 A 
ATOM     27  C   UNL     1       9.639  13.333  17.766  0.00  0.00    +0.000 A 
ATOM     28  C   UNL     1       8.999  12.125  18.020  0.00  0.00    +0.000 A 
ENDBRANCH  22  23
ENDBRANCH  21  22
ENDBRANCH  18  21
ENDBRANCH   1  15
TORSDOF 8
ENDMDL
MODEL 9
REMARK VINA RESULT:      -6.7      2.629      3.290
REMARK  Name = 
REMARK  10 active torsions:
REMARK  status: ('A' for Active; 'I' for Inactive)
REMARK    1  A    between atoms: C_1  and  C_2
REMARK    2  A    between atoms: C_2  and  N_3
REMARK    3  A    between atoms: N_3  and  C_4
REMARK    4  A    between atoms: C_4  and  C_5
REMARK    5  A    between atoms: C_6  and  C_8
REMARK    6  A    between atoms: N_11  and  C_12
REMARK    7  A    between atoms: C_12  and  C_13
REMARK    8  A    between atoms: C_16  and  O_17
REMARK    9  A    between atoms: O_17  and  C_18
REMARK   10  A    between atoms: C_18  and  C_19
REMARK                            x       y       z     vdW  Elec       q    Type
REMARK                         _______ _______ _______ _____ _____    ______ ____
ROOT
ATOM      1  C   UNL     1       0.683  10.241  20.170  0.00  0.00    +0.000 C 
ENDROOT
BRANCH   1   5
ATOM      2  C   UNL     1       0.333  14.197  18.558  0.00  0.00    +0.000 C 
ATOM      3  C   UNL     1      -0.705  13.149  18.187  0.00  0.00    +0.000 C 
ATOM      4  C   UNL     1      -0.672  11.961  19.136  0.00  0.00    +0.000 C 
ATOM      5  N   UNL     1       0.668  11.340  19.180  0.00  0.00    +0.000 NA
ATOM      6  C   UNL     1       1.714  12.307  19.541  0.00  0.00    +0.000 C 
ATOM      7  C   UNL     1       1.713  13.548  18.648  0.00  0.00    +0.000 C 
BRANCH   2   9
ATOM      8  N   UNL     1      -0.578  16.242  19.764  0.00  0.00    +0.000 N 
ATOM      9  C   UNL     1      -0.075  14.940  19.858  0.00  0.00    +0.000 C 
ATOM     10  O   UNL     1       0.035  14.395  20.967  0.00  0.00    +0.000 OA
BRANCH   8  12
ATOM     11  C   UNL     1      -2.537  16.717  21.381  0.00  0.00    +0.000 C 
ATOM     12  C   UNL     1      -1.062  16.889  21.007  0.00  0.00    +0.000 C 
ENDBRANCH   8  12
BRANCH   8  13
ATOM     13  C   UNL     1      -0.612  16.893  18.447  0.00  0.00    +0.000 C 
ATOM     14  C   UNL     1      -1.342  18.190  18.182  0.00  0.00    +0.000 C 
ENDBRANCH   8  13
ENDBRANCH   2   9
ENDBRANCH   1   5
BRANCH   1  15
ATOM     15  C   UNL     1       1.365   8.979  19.685  0.00  0.00    +0.000 A 
ATOM     16  C   UNL     1       1.776   8.862  18.353  0.00  0.00    +0.000 A 
ATOM     17  C   UNL     1       2.353   7.689  17.887  0.00  0.00    +0.000 A 
ATOM     18  C   UNL     1       2.630   6.650  18.772  0.00  0.00    +0.000 A 
ATOM     19  C   UNL     1       2.231   6.752  20.105  0.00  0.00    +0.000 A 
ATOM     20  C   UNL     1       1.600   7.912  20.563  0.00  0.00    +0.000 A 
BRANCH  18  21
ATOM     21  O   UNL     1       3.299   5.505  18.426  0.00  0.00    +0.000 OA
BRANCH  21  22
ATOM     22  C   UNL     1       4.174   5.663  17.307  0.00  0.00    +0.000 C 
BRANCH  22  23
ATOM     23  C   UNL     1       5.546   6.041  17.784  0.00  0.00    +0.000 A 
ATOM     24  C   UNL     1       6.169   5.327  18.819  0.00  0.00    +0.000 A 
ATOM     25  C   UNL     1       7.454   5.674  19.233  0.00  0.00    +0.000 A 
ATOM     26  C   UNL     1       8.123   6.731  18.617  0.00  0.00    +0.000 A 
ATOM     27  C   UNL     1       7.509   7.451  17.592  0.00  0.00    +0.000 A 
ATOM     28  C   UNL     1       6.227   7.107  17.176  0.00  0.00    +0.000 A 
ENDBRANCH  22  23
ENDBRANCH  21  22
ENDBRANCH  18  21
ENDBRANCH   1  15
TORSDOF 8
ENDMDL
