MODEL 1
REMARK VINA RESULT:      -8.3      0.000      0.000
REMARK  Name = 
REMARK  12 active torsions:
REMARK  status: ('A' for Active; 'I' for Inactive)
REMARK    1  A    between atoms: C_1  and  C_2
REMARK    2  A    between atoms: C_2  and  O_3
REMARK    3  A    between atoms: O_3  and  C_4
REMARK    4  A    between atoms: C_9  and  C_10
REMARK    5  A    between atoms: N_12  and  C_13
REMARK    6  A    between atoms: C_13  and  C_14
REMARK    7  A    between atoms: C_13  and  C_15
REMARK    8  A    between atoms: C_13  and  C_16
REMARK    9  A    between atoms: C_16  and  C_17
REMARK   10  A    between atoms: C_17  and  O_18
REMARK   11  A    between atoms: C_19  and  N_20
REMARK   12  A    between atoms: C_21  and  C_22
REMARK                            x       y       z     vdW  Elec       q    Type
REMARK                         _______ _______ _______ _____ _____    ______ ____
ROOT
ATOM      1  C   UNL     1       3.482   6.338  18.269  0.00  0.00    +0.000 A 
ATOM      2  N   UNL     1       4.792   6.578  18.054  0.00  0.00    +0.000 NA
ATOM      3  N   UNL     1       5.310   5.416  17.571  0.00  0.00    +0.000 N 
ATOM      4  C   UNL     1       4.355   4.419  17.499  0.00  0.00    +0.000 A 
ATOM      5  C   UNL     1       3.165   4.961  17.973  0.00  0.00    +0.000 A 
ENDROOT
BRANCH   1  11
ATOM      6  C   UNL     1      -0.465  10.686  21.066  0.00  0.00    +0.000 A 
ATOM      7  C   UNL     1      -0.079   9.820  22.071  0.00  0.00    +0.000 A 
ATOM      8  C   UNL     1       0.745   8.743  21.740  0.00  0.00    +0.000 A 
ATOM      9  C   UNL     1       1.204   8.578  20.422  0.00  0.00    +0.000 A 
ATOM     10  C   UNL     1       2.081   7.522  20.029  0.00  0.00    +0.000 A 
ATOM     11  C   UNL     1       2.565   7.422  18.714  0.00  0.00    +0.000 A 
ATOM     12  C   UNL     1       2.160   8.421  17.821  0.00  0.00    +0.000 A 
ATOM     13  C   UNL     1       1.255   9.428  18.194  0.00  0.00    +0.000 A 
ATOM     14  C   UNL     1       0.766   9.538  19.483  0.00  0.00    +0.000 A 
ATOM     15  N   UNL     1      -0.065  10.561  19.786  0.00  0.00    +0.000 NA
BRANCH   6  16
ATOM     16  O   UNL     1      -1.216  11.780  21.457  0.00  0.00    +0.000 OA
BRANCH  16  18
ATOM     17  C   UNL     1      -2.780  12.156  23.224  0.00  0.00    +0.000 C 
ATOM     18  C   UNL     1      -1.314  11.939  22.874  0.00  0.00    +0.000 C 
ENDBRANCH  16  18
ENDBRANCH   6  16
ENDBRANCH   1  11
BRANCH   5  19
ATOM     19  C   UNL     1       1.897   4.261  18.135  0.00  0.00    +0.000 C 
ATOM     20  N   UNL     1       1.553   3.902  19.415  0.00  0.00    +0.000 N 
ATOM     21  O   UNL     1       1.111   3.992  17.234  0.00  0.00    +0.000 OA
ATOM     22  H   UNL     1       1.910   4.489  20.157  0.00  0.00    +0.000 HD
ATOM     23  H   UNL     1       0.615   3.536  19.513  0.00  0.00    +0.000 HD
ENDBRANCH   5  19
BRANCH   3  24
ATOM     24  C   UNL     1       6.746   5.353  17.181  0.00  0.00    +0.000 C 
ATOM     25  C   UNL     1       7.345   6.764  16.950  0.00  0.00    +0.000 C 
ATOM     26  C   UNL     1       7.569   4.716  18.329  0.00  0.00    +0.000 C 
BRANCH  24  27
ATOM     27  C   UNL     1       7.012   4.508  15.894  0.00  0.00    +0.000 C 
BRANCH  27  28
ATOM     28  C   UNL     1       6.625   5.143  14.565  0.00  0.00    +0.000 C 
BRANCH  28  29
ATOM     29  O   UNL     1       7.822   5.494  13.871  0.00  0.00    +0.000 OA
ATOM     30  H   UNL     1       7.876   4.942  13.071  0.00  0.00    +0.000 HD
ENDBRANCH  28  29
ENDBRANCH  27  28
ENDBRANCH  24  27
ENDBRANCH   3  24
BRANCH   4  31
ATOM     31  N   UNL     1       4.591   3.157  17.032  0.00  0.00    +0.000 N 
ATOM     32  H   UNL     1       4.734   2.970  16.045  0.00  0.00    +0.000 HD
ATOM     33  H   UNL     1       4.004   2.418  17.426  0.00  0.00    +0.000 HD
ENDBRANCH   4  31
TORSDOF 9
ENDMDL
MODEL 2
REMARK VINA RESULT:      -8.3      1.310      1.810
REMARK  Name = 
REMARK  12 active torsions:
REMARK  status: ('A' for Active; 'I' for Inactive)
REMARK    1  A    between atoms: C_1  and  C_2
REMARK    2  A    between atoms: C_2  and  O_3
REMARK    3  A    between atoms: O_3  and  C_4
REMARK    4  A    between atoms: C_9  and  C_10
REMARK    5  A    between atoms: N_12  and  C_13
REMARK    6  A    between atoms: C_13  and  C_14
REMARK    7  A    between atoms: C_13  and  C_15
REMARK    8  A    between atoms: C_13  and  C_16
REMARK    9  A    between atoms: C_16  and  C_17
REMARK   10  A    between atoms: C_17  and  O_18
REMARK   11  A    between atoms: C_19  and  N_20
REMARK   12  A    between atoms: C_21  and  C_22
REMARK                            x       y       z     vdW  Elec       q    Type
REMARK                         _______ _______ _______ _____ _____    ______ ____
ROOT
ATOM      1  C   UNL     1       3.408   6.536  18.239  0.00  0.00    +0.000 A 
ATOM      2  N   UNL     1       4.709   6.812  18.013  0.00  0.00    +0.000 NA
ATOM      3  N   UNL     1       5.257   5.661  17.537  0.00  0.00    +0.000 N 
ATOM      4  C   UNL     1       4.330   4.636  17.481  0.00  0.00    +0.000 A 
ATOM      5  C   UNL     1       3.129   5.148  17.958  0.00  0.00    +0.000 A 
ENDROOT
BRANCH   1  11
ATOM      6  C   UNL     1      -0.633  10.802  21.028  0.00  0.00    +0.000 A 
ATOM      7  C   UNL     1      -0.201   9.969  22.041  0.00  0.00    +0.000 A 
ATOM      8  C   UNL     1       0.653   8.914  21.715  0.00  0.00    +0.000 A 
ATOM      9  C   UNL     1       1.094   8.740  20.392  0.00  0.00    +0.000 A 
ATOM     10  C   UNL     1       1.999   7.706  20.002  0.00  0.00    +0.000 A 
ATOM     11  C   UNL     1       2.463   7.597  18.681  0.00  0.00    +0.000 A 
ATOM     12  C   UNL     1       2.009   8.565  17.777  0.00  0.00    +0.000 A 
ATOM     13  C   UNL     1       1.077   9.548  18.148  0.00  0.00    +0.000 A 
ATOM     14  C   UNL     1       0.608   9.666  19.444  0.00  0.00    +0.000 A 
ATOM     15  N   UNL     1      -0.252  10.666  19.742  0.00  0.00    +0.000 NA
BRANCH   6  16
ATOM     16  O   UNL     1      -1.414  11.878  21.412  0.00  0.00    +0.000 OA
BRANCH  16  18
ATOM     17  C   UNL     1      -1.312  13.408  23.244  0.00  0.00    +0.000 C 
ATOM     18  C   UNL     1      -1.611  11.975  22.824  0.00  0.00    +0.000 C 
ENDBRANCH  16  18
ENDBRANCH   6  16
ENDBRANCH   1  11
BRANCH   5  19
ATOM     19  C   UNL     1       1.883   4.412  18.136  0.00  0.00    +0.000 C 
ATOM     20  N   UNL     1       1.536   4.095  19.426  0.00  0.00    +0.000 N 
ATOM     21  O   UNL     1       1.117   4.081  17.238  0.00  0.00    +0.000 OA
ATOM     22  H   UNL     1       1.865   4.723  20.146  0.00  0.00    +0.000 HD
ATOM     23  H   UNL     1       0.609   3.702  19.529  0.00  0.00    +0.000 HD
ENDBRANCH   5  19
BRANCH   3  24
ATOM     24  C   UNL     1       6.692   5.635  17.137  0.00  0.00    +0.000 C 
ATOM     25  C   UNL     1       6.902   4.912  15.783  0.00  0.00    +0.000 C 
ATOM     26  C   UNL     1       7.201   7.085  16.936  0.00  0.00    +0.000 C 
BRANCH  24  27
ATOM     27  C   UNL     1       7.626   4.956  18.189  0.00  0.00    +0.000 C 
BRANCH  27  28
ATOM     28  C   UNL     1       7.586   5.516  19.604  0.00  0.00    +0.000 C 
BRANCH  28  29
ATOM     29  O   UNL     1       8.788   5.133  20.272  0.00  0.00    +0.000 OA
ATOM     30  H   UNL     1       9.307   4.581  19.660  0.00  0.00    +0.000 HD
ENDBRANCH  28  29
ENDBRANCH  27  28
ENDBRANCH  24  27
ENDBRANCH   3  24
BRANCH   4  31
ATOM     31  N   UNL     1       4.600   3.377  17.023  0.00  0.00    +0.000 N 
ATOM     32  H   UNL     1       5.507   3.129  16.641  0.00  0.00    +0.000 HD
ATOM     33  H   UNL     1       3.871   2.945  16.450  0.00  0.00    +0.000 HD
ENDBRANCH   4  31
TORSDOF 9
ENDMDL
MODEL 3
REMARK VINA RESULT:      -8.2      1.173      1.680
REMARK  Name = 
REMARK  12 active torsions:
REMARK  status: ('A' for Active; 'I' for Inactive)
REMARK    1  A    between atoms: C_1  and  C_2
REMARK    2  A    between atoms: C_2  and  O_3
REMARK    3  A    between atoms: O_3  and  C_4
REMARK    4  A    between atoms: C_9  and  C_10
REMARK    5  A    between atoms: N_12  and  C_13
REMARK    6  A    between atoms: C_13  and  C_14
REMARK    7  A    between atoms: C_13  and  C_15
REMARK    8  A    between atoms: C_13  and  C_16
REMARK    9  A    between atoms: C_16  and  C_17
REMARK   10  A    between atoms: C_17  and  O_18
REMARK   11  A    between atoms: C_19  and  N_20
REMARK   12  A    between atoms: C_21  and  C_22
REMARK                            x       y       z     vdW  Elec       q    Type
REMARK                         _______ _______ _______ _____ _____    ______ ____
ROOT
ATOM      1  C   UNL     1       3.428   6.502  18.169  0.00  0.00    +0.000 A 
ATOM      2  N   UNL     1       4.719   6.785  17.898  0.00  0.00    +0.000 NA
ATOM      3  N   UNL     1       5.257   5.636  17.405  0.00  0.00    +0.000 N 
ATOM      4  C   UNL     1       4.334   4.606  17.381  0.00  0.00    +0.000 A 
ATOM      5  C   UNL     1       3.147   5.112  17.898  0.00  0.00    +0.000 A 
ENDROOT
BRANCH   1  11
ATOM      6  C   UNL     1      -0.578  10.719  21.082  0.00  0.00    +0.000 A 
ATOM      7  C   UNL     1      -0.158   9.848  22.069  0.00  0.00    +0.000 A 
ATOM      8  C   UNL     1       0.686   8.795  21.712  0.00  0.00    +0.000 A 
ATOM      9  C   UNL     1       1.130   8.659  20.385  0.00  0.00    +0.000 A 
ATOM     10  C   UNL     1       2.025   7.629  19.965  0.00  0.00    +0.000 A 
ATOM     11  C   UNL     1       2.493   7.558  18.642  0.00  0.00    +0.000 A 
ATOM     12  C   UNL     1       2.053   8.560  17.769  0.00  0.00    +0.000 A 
ATOM     13  C   UNL     1       1.130   9.541  18.169  0.00  0.00    +0.000 A 
ATOM     14  C   UNL     1       0.657   9.621  19.466  0.00  0.00    +0.000 A 
ATOM     15  N   UNL     1      -0.193  10.620  19.794  0.00  0.00    +0.000 NA
BRANCH   6  16
ATOM     16  O   UNL     1      -1.348  11.790  21.499  0.00  0.00    +0.000 OA
BRANCH  16  18
ATOM     17  C   UNL     1      -2.858  12.178  23.309  0.00  0.00    +0.000 C 
ATOM     18  C   UNL     1      -1.404  11.945  22.918  0.00  0.00    +0.000 C 
ENDBRANCH  16  18
ENDBRANCH   6  16
ENDBRANCH   1  11
BRANCH   5  19
ATOM     19  C   UNL     1       1.912   4.370  18.119  0.00  0.00    +0.000 C 
ATOM     20  N   UNL     1       1.642   3.997  19.413  0.00  0.00    +0.000 N 
ATOM     21  O   UNL     1       1.092   4.078  17.256  0.00  0.00    +0.000 OA
ATOM     22  H   UNL     1       2.016   4.592  20.138  0.00  0.00    +0.000 HD
ATOM     23  H   UNL     1       0.722   3.600  19.555  0.00  0.00    +0.000 HD
ENDBRANCH   5  19
BRANCH   3  24
ATOM     24  C   UNL     1       6.677   5.618  16.956  0.00  0.00    +0.000 C 
ATOM     25  C   UNL     1       7.473   4.457  17.604  0.00  0.00    +0.000 C 
ATOM     26  C   UNL     1       6.736   5.382  15.426  0.00  0.00    +0.000 C 
BRANCH  24  27
ATOM     27  C   UNL     1       7.448   6.945  17.252  0.00  0.00    +0.000 C 
BRANCH  27  28
ATOM     28  C   UNL     1       8.158   7.039  18.596  0.00  0.00    +0.000 C 
BRANCH  28  29
ATOM     29  O   UNL     1       8.643   8.373  18.753  0.00  0.00    +0.000 OA
ATOM     30  H   UNL     1       9.556   8.401  18.413  0.00  0.00    +0.000 HD
ENDBRANCH  28  29
ENDBRANCH  27  28
ENDBRANCH  24  27
ENDBRANCH   3  24
BRANCH   4  31
ATOM     31  N   UNL     1       4.595   3.349  16.916  0.00  0.00    +0.000 N 
ATOM     32  H   UNL     1       4.029   2.917  16.192  0.00  0.00    +0.000 HD
ATOM     33  H   UNL     1       4.815   2.645  17.626  0.00  0.00    +0.000 HD
ENDBRANCH   4  31
TORSDOF 9
ENDMDL
MODEL 4
REMARK VINA RESULT:      -8.1      1.746      2.126
REMARK  Name = 
REMARK  12 active torsions:
REMARK  status: ('A' for Active; 'I' for Inactive)
REMARK    1  A    between atoms: C_1  and  C_2
REMARK    2  A    between atoms: C_2  and  O_3
REMARK    3  A    between atoms: O_3  and  C_4
REMARK    4  A    between atoms: C_9  and  C_10
REMARK    5  A    between atoms: N_12  and  C_13
REMARK    6  A    between atoms: C_13  and  C_14
REMARK    7  A    between atoms: C_13  and  C_15
REMARK    8  A    between atoms: C_13  and  C_16
REMARK    9  A    between atoms: C_16  and  C_17
REMARK   10  A    between atoms: C_17  and  O_18
REMARK   11  A    between atoms: C_19  and  N_20
REMARK   12  A    between atoms: C_21  and  C_22
REMARK                            x       y       z     vdW  Elec       q    Type
REMARK                         _______ _______ _______ _____ _____    ______ ____
ROOT
ATOM      1  C   UNL     1       3.277   6.289  19.013  0.00  0.00    +0.000 A 
ATOM      2  N   UNL     1       4.371   6.467  18.243  0.00  0.00    +0.000 NA
ATOM      3  N   UNL     1       4.911   5.231  18.070  0.00  0.00    +0.000 N 
ATOM      4  C   UNL     1       4.194   4.258  18.744  0.00  0.00    +0.000 A 
ATOM      5  C   UNL     1       3.148   4.903  19.395  0.00  0.00    +0.000 A 
ENDROOT
BRANCH   1  11
ATOM      6  C   UNL     1      -0.676  10.921  21.299  0.00  0.00    +0.000 A 
ATOM      7  C   UNL     1      -0.363  10.119  22.380  0.00  0.00    +0.000 A 
ATOM      8  C   UNL     1       0.445   9.002  22.167  0.00  0.00    +0.000 A 
ATOM      9  C   UNL     1       0.962   8.732  20.888  0.00  0.00    +0.000 A 
ATOM     10  C   UNL     1       1.827   7.629  20.614  0.00  0.00    +0.000 A 
ATOM     11  C   UNL     1       2.370   7.424  19.335  0.00  0.00    +0.000 A 
ATOM     12  C   UNL     1       2.037   8.367  18.355  0.00  0.00    +0.000 A 
ATOM     13  C   UNL     1       1.143   9.420  18.612  0.00  0.00    +0.000 A 
ATOM     14  C   UNL     1       0.597   9.633  19.864  0.00  0.00    +0.000 A 
ATOM     15  N   UNL     1      -0.219  10.695  20.052  0.00  0.00    +0.000 NA
BRANCH   6  16
ATOM     16  O   UNL     1      -1.414  12.058  21.576  0.00  0.00    +0.000 OA
BRANCH  16  18
ATOM     17  C   UNL     1      -1.296  13.655  23.349  0.00  0.00    +0.000 C 
ATOM     18  C   UNL     1      -1.703  12.238  22.963  0.00  0.00    +0.000 C 
ENDBRANCH  16  18
ENDBRANCH   6  16
ENDBRANCH   1  11
BRANCH   5  19
ATOM     19  C   UNL     1       2.164   4.286  20.276  0.00  0.00    +0.000 C 
ATOM     20  N   UNL     1       1.073   3.711  19.671  0.00  0.00    +0.000 N 
ATOM     21  O   UNL     1       2.244   4.218  21.497  0.00  0.00    +0.000 OA
ATOM     22  H   UNL     1       1.215   3.355  18.736  0.00  0.00    +0.000 HD
ATOM     23  H   UNL     1       0.477   3.181  20.293  0.00  0.00    +0.000 HD
ENDBRANCH   5  19
BRANCH   3  24
ATOM     24  C   UNL     1       6.121   5.065  17.217  0.00  0.00    +0.000 C 
ATOM     25  C   UNL     1       5.936   3.943  16.164  0.00  0.00    +0.000 C 
ATOM     26  C   UNL     1       6.377   6.368  16.420  0.00  0.00    +0.000 C 
BRANCH  24  27
ATOM     27  C   UNL     1       7.421   4.750  18.024  0.00  0.00    +0.000 C 
BRANCH  27  28
ATOM     28  C   UNL     1       7.915   5.832  18.976  0.00  0.00    +0.000 C 
BRANCH  28  29
ATOM     29  O   UNL     1       7.784   5.346  20.312  0.00  0.00    +0.000 OA
ATOM     30  H   UNL     1       7.543   4.403  20.265  0.00  0.00    +0.000 HD
ENDBRANCH  28  29
ENDBRANCH  27  28
ENDBRANCH  24  27
ENDBRANCH   3  24
BRANCH   4  31
ATOM     31  N   UNL     1       4.498   2.927  18.728  0.00  0.00    +0.000 N 
ATOM     32  H   UNL     1       4.807   2.458  17.883  0.00  0.00    +0.000 HD
ATOM     33  H   UNL     1       3.846   2.314  19.225  0.00  0.00    +0.000 HD
ENDBRANCH   4  31
TORSDOF 9
ENDMDL
MODEL 5
REMARK VINA RESULT:      -8.0      1.691      2.073
REMARK  Name = 
REMARK  12 active torsions:
REMARK  status: ('A' for Active; 'I' for Inactive)
REMARK    1  A    between atoms: C_1  and  C_2
REMARK    2  A    between atoms: C_2  and  O_3
REMARK    3  A    between atoms: O_3  and  C_4
REMARK    4  A    between atoms: C_9  and  C_10
REMARK    5  A    between atoms: N_12  and  C_13
REMARK    6  A    between atoms: C_13  and  C_14
REMARK    7  A    between atoms: C_13  and  C_15
REMARK    8  A    between atoms: C_13  and  C_16
REMARK    9  A    between atoms: C_16  and  C_17
REMARK   10  A    between atoms: C_17  and  O_18
REMARK   11  A    between atoms: C_19  and  N_20
REMARK   12  A    between atoms: C_21  and  C_22
REMARK                            x       y       z     vdW  Elec       q    Type
REMARK                         _______ _______ _______ _____ _____    ______ ____
ROOT
ATOM      1  C   UNL     1       3.245   6.315  18.617  0.00  0.00    +0.000 A 
ATOM      2  N   UNL     1       4.364   6.446  17.876  0.00  0.00    +0.000 NA
ATOM      3  N   UNL     1       4.868   5.190  17.735  0.00  0.00    +0.000 N 
ATOM      4  C   UNL     1       4.102   4.252  18.403  0.00  0.00    +0.000 A 
ATOM      5  C   UNL     1       3.060   4.939  19.016  0.00  0.00    +0.000 A 
ENDROOT
BRANCH   1  11
ATOM      6  C   UNL     1      -0.563  11.143  20.740  0.00  0.00    +0.000 A 
ATOM      7  C   UNL     1      -0.232  10.399  21.856  0.00  0.00    +0.000 A 
ATOM      8  C   UNL     1       0.551   9.257  21.686  0.00  0.00    +0.000 A 
ATOM      9  C   UNL     1       1.026   8.904  20.411  0.00  0.00    +0.000 A 
ATOM     10  C   UNL     1       1.864   7.772  20.177  0.00  0.00    +0.000 A 
ATOM     11  C   UNL     1       2.367   7.483  18.898  0.00  0.00    +0.000 A 
ATOM     12  C   UNL     1       2.021   8.374  17.875  0.00  0.00    +0.000 A 
ATOM     13  C   UNL     1       1.153   9.456  18.094  0.00  0.00    +0.000 A 
ATOM     14  C   UNL     1       0.647   9.752  19.347  0.00  0.00    +0.000 A 
ATOM     15  N   UNL     1      -0.145  10.837  19.496  0.00  0.00    +0.000 NA
BRANCH   6  16
ATOM     16  O   UNL     1      -1.273  12.308  20.970  0.00  0.00    +0.000 OA
BRANCH  16  18
ATOM     17  C   UNL     1      -3.574  12.748  20.499  0.00  0.00    +0.000 C 
ATOM     18  C   UNL     1      -2.170  12.657  19.914  0.00  0.00    +0.000 C 
ENDBRANCH  16  18
ENDBRANCH   6  16
ENDBRANCH   1  11
BRANCH   5  19
ATOM     19  C   UNL     1       2.033   4.368  19.877  0.00  0.00    +0.000 C 
ATOM     20  N   UNL     1       2.281   4.390  21.228  0.00  0.00    +0.000 N 
ATOM     21  O   UNL     1       0.966   3.898  19.499  0.00  0.00    +0.000 OA
ATOM     22  H   UNL     1       2.868   5.141  21.563  0.00  0.00    +0.000 HD
ATOM     23  H   UNL     1       1.500   4.107  21.805  0.00  0.00    +0.000 HD
ENDBRANCH   5  19
BRANCH   3  24
ATOM     24  C   UNL     1       6.095   4.973  16.919  0.00  0.00    +0.000 C 
ATOM     25  C   UNL     1       5.909   3.829  15.890  0.00  0.00    +0.000 C 
ATOM     26  C   UNL     1       6.404   6.249  16.096  0.00  0.00    +0.000 C 
BRANCH  24  27
ATOM     27  C   UNL     1       7.366   4.647  17.767  0.00  0.00    +0.000 C 
BRANCH  27  28
ATOM     28  C   UNL     1       7.811   5.704  18.768  0.00  0.00    +0.000 C 
BRANCH  28  29
ATOM     29  O   UNL     1       7.334   5.327  20.060  0.00  0.00    +0.000 OA
ATOM     30  H   UNL     1       7.470   6.081  20.661  0.00  0.00    +0.000 HD
ENDBRANCH  28  29
ENDBRANCH  27  28
ENDBRANCH  24  27
ENDBRANCH   3  24
BRANCH   4  31
ATOM     31  N   UNL     1       4.362   2.911  18.414  0.00  0.00    +0.000 N 
ATOM     32  H   UNL     1       3.648   2.229  18.645  0.00  0.00    +0.000 HD
ATOM     33  H   UNL     1       5.242   2.630  18.856  0.00  0.00    +0.000 HD
ENDBRANCH   4  31
TORSDOF 9
ENDMDL
MODEL 6
REMARK VINA RESULT:      -7.9      1.223      1.245
REMARK  Name = 
REMARK  12 active torsions:
REMARK  status: ('A' for Active; 'I' for Inactive)
REMARK    1  A    between atoms: C_1  and  C_2
REMARK    2  A    between atoms: C_2  and  O_3
REMARK    3  A    between atoms: O_3  and  C_4
REMARK    4  A    between atoms: C_9  and  C_10
REMARK    5  A    between atoms: N_12  and  C_13
REMARK    6  A    between atoms: C_13  and  C_14
REMARK    7  A    between atoms: C_13  and  C_15
REMARK    8  A    between atoms: C_13  and  C_16
REMARK    9  A    between atoms: C_16  and  C_17
REMARK   10  A    between atoms: C_17  and  O_18
REMARK   11  A    between atoms: C_19  and  N_20
REMARK   12  A    between atoms: C_21  and  C_22
REMARK                            x       y       z     vdW  Elec       q    Type
REMARK                         _______ _______ _______ _____ _____    ______ ____
ROOT
ATOM      1  C   UNL     1       3.323   6.235  18.716  0.00  0.00    +0.000 A 
ATOM      2  N   UNL     1       4.399   6.416  17.922  0.00  0.00    +0.000 NA
ATOM      3  N   UNL     1       4.922   5.178  17.715  0.00  0.00    +0.000 N 
ATOM      4  C   UNL     1       4.213   4.200  18.390  0.00  0.00    +0.000 A 
ATOM      5  C   UNL     1       3.190   4.843  19.078  0.00  0.00    +0.000 A 
ENDROOT
BRANCH   1  11
ATOM      6  C   UNL     1      -0.528  10.863  21.178  0.00  0.00    +0.000 A 
ATOM      7  C   UNL     1      -0.196  10.040  22.236  0.00  0.00    +0.000 A 
ATOM      8  C   UNL     1       0.596   8.919  21.985  0.00  0.00    +0.000 A 
ATOM      9  C   UNL     1       1.079   8.666  20.689  0.00  0.00    +0.000 A 
ATOM     10  C   UNL     1       1.926   7.561  20.374  0.00  0.00    +0.000 A 
ATOM     11  C   UNL     1       2.435   7.372  19.079  0.00  0.00    +0.000 A 
ATOM     12  C   UNL     1       2.087   8.335  18.124  0.00  0.00    +0.000 A 
ATOM     13  C   UNL     1       1.210   9.392  18.421  0.00  0.00    +0.000 A 
ATOM     14  C   UNL     1       0.697   9.588  19.690  0.00  0.00    +0.000 A 
ATOM     15  N   UNL     1      -0.104  10.654  19.916  0.00  0.00    +0.000 NA
BRANCH   6  16
ATOM     16  O   UNL     1      -1.248  12.002  21.491  0.00  0.00    +0.000 OA
BRANCH  16  18
ATOM     17  C   UNL     1      -1.242  13.566  23.297  0.00  0.00    +0.000 C 
ATOM     18  C   UNL     1      -1.548  12.133  22.882  0.00  0.00    +0.000 C 
ENDBRANCH  16  18
ENDBRANCH   6  16
ENDBRANCH   1  11
BRANCH   5  19
ATOM     19  C   UNL     1       2.222   4.221  19.972  0.00  0.00    +0.000 C 
ATOM     20  N   UNL     1       1.108   3.672  19.386  0.00  0.00    +0.000 N 
ATOM     21  O   UNL     1       2.334   4.127  21.190  0.00  0.00    +0.000 OA
ATOM     22  H   UNL     1       1.219   3.334  18.441  0.00  0.00    +0.000 HD
ATOM     23  H   UNL     1       0.521   3.137  20.013  0.00  0.00    +0.000 HD
ENDBRANCH   5  19
BRANCH   3  24
ATOM     24  C   UNL     1       6.109   5.015  16.830  0.00  0.00    +0.000 C 
ATOM     25  C   UNL     1       6.540   6.359  16.189  0.00  0.00    +0.000 C 
ATOM     26  C   UNL     1       7.319   4.527  17.666  0.00  0.00    +0.000 C 
BRANCH  24  27
ATOM     27  C   UNL     1       5.897   3.985  15.675  0.00  0.00    +0.000 C 
BRANCH  27  28
ATOM     28  C   UNL     1       6.559   4.305  14.341  0.00  0.00    +0.000 C 
BRANCH  28  29
ATOM     29  O   UNL     1       6.265   3.245  13.430  0.00  0.00    +0.000 OA
ATOM     30  H   UNL     1       5.425   3.459  12.985  0.00  0.00    +0.000 HD
ENDBRANCH  28  29
ENDBRANCH  27  28
ENDBRANCH  24  27
ENDBRANCH   3  24
BRANCH   4  31
ATOM     31  N   UNL     1       4.504   2.867  18.344  0.00  0.00    +0.000 N 
ATOM     32  H   UNL     1       4.196   2.226  19.069  0.00  0.00    +0.000 HD
ATOM     33  H   UNL     1       5.462   2.627  18.077  0.00  0.00    +0.000 HD
ENDBRANCH   4  31
TORSDOF 9
ENDMDL
MODEL 7
REMARK VINA RESULT:      -7.9      1.379      2.188
REMARK  Name = 
REMARK  12 active torsions:
REMARK  status: ('A' for Active; 'I' for Inactive)
REMARK    1  A    between atoms: C_1  and  C_2
REMARK    2  A    between atoms: C_2  and  O_3
REMARK    3  A    between atoms: O_3  and  C_4
REMARK    4  A    between atoms: C_9  and  C_10
REMARK    5  A    between atoms: N_12  and  C_13
REMARK    6  A    between atoms: C_13  and  C_14
REMARK    7  A    between atoms: C_13  and  C_15
REMARK    8  A    between atoms: C_13  and  C_16
REMARK    9  A    between atoms: C_16  and  C_17
REMARK   10  A    between atoms: C_17  and  O_18
REMARK   11  A    between atoms: C_19  and  N_20
REMARK   12  A    between atoms: C_21  and  C_22
REMARK                            x       y       z     vdW  Elec       q    Type
REMARK                         _______ _______ _______ _____ _____    ______ ____
ROOT
ATOM      1  C   UNL     1       3.438   6.270  18.394  0.00  0.00    +0.000 A 
ATOM      2  N   UNL     1       4.724   6.580  18.130  0.00  0.00    +0.000 NA
ATOM      3  N   UNL     1       5.237   5.509  17.466  0.00  0.00    +0.000 N 
ATOM      4  C   UNL     1       4.303   4.498  17.323  0.00  0.00    +0.000 A 
ATOM      5  C   UNL     1       3.135   4.933  17.938  0.00  0.00    +0.000 A 
ENDROOT
BRANCH   1  11
ATOM      6  C   UNL     1      -0.563  11.004  20.366  0.00  0.00    +0.000 A 
ATOM      7  C   UNL     1      -0.298  11.259  19.035  0.00  0.00    +0.000 A 
ATOM      8  C   UNL     1       0.584  10.415  18.359  0.00  0.00    +0.000 A 
ATOM      9  C   UNL     1       1.149   9.307  19.013  0.00  0.00    +0.000 A 
ATOM     10  C   UNL     1       2.025   8.383  18.366  0.00  0.00    +0.000 A 
ATOM     11  C   UNL     1       2.526   7.255  19.037  0.00  0.00    +0.000 A 
ATOM     12  C   UNL     1       2.104   7.075  20.359  0.00  0.00    +0.000 A 
ATOM     13  C   UNL     1       1.285   8.012  21.011  0.00  0.00    +0.000 A 
ATOM     14  C   UNL     1       0.788   9.129  20.367  0.00  0.00    +0.000 A 
ATOM     15  N   UNL     1      -0.034   9.965  21.041  0.00  0.00    +0.000 NA
BRANCH   6  16
ATOM     16  O   UNL     1      -1.503  11.821  20.970  0.00  0.00    +0.000 OA
BRANCH  16  18
ATOM     17  C   UNL     1      -2.599  12.100  23.074  0.00  0.00    +0.000 C 
ATOM     18  C   UNL     1      -1.256  12.061  22.356  0.00  0.00    +0.000 C 
ENDBRANCH  16  18
ENDBRANCH   6  16
ENDBRANCH   1  11
BRANCH   5  19
ATOM     19  C   UNL     1       1.899   4.176  18.086  0.00  0.00    +0.000 C 
ATOM     20  N   UNL     1       1.668   3.611  19.316  0.00  0.00    +0.000 N 
ATOM     21  O   UNL     1       1.047   4.026  17.218  0.00  0.00    +0.000 OA
ATOM     22  H   UNL     1       2.073   4.086  20.111  0.00  0.00    +0.000 HD
ATOM     23  H   UNL     1       0.748   3.204  19.428  0.00  0.00    +0.000 HD
ENDBRANCH   5  19
BRANCH   3  24
ATOM     24  C   UNL     1       6.645   5.545  16.980  0.00  0.00    +0.000 C 
ATOM     25  C   UNL     1       6.766   5.034  15.522  0.00  0.00    +0.000 C 
ATOM     26  C   UNL     1       7.153   7.008  16.970  0.00  0.00    +0.000 C 
BRANCH  24  27
ATOM     27  C   UNL     1       7.635   4.714  17.859  0.00  0.00    +0.000 C 
BRANCH  27  28
ATOM     28  C   UNL     1       8.116   5.365  19.149  0.00  0.00    +0.000 C 
BRANCH  28  29
ATOM     29  O   UNL     1       7.041   5.345  20.088  0.00  0.00    +0.000 OA
ATOM     30  H   UNL     1       7.418   5.170  20.969  0.00  0.00    +0.000 HD
ENDBRANCH  28  29
ENDBRANCH  27  28
ENDBRANCH  24  27
ENDBRANCH   3  24
BRANCH   4  31
ATOM     31  N   UNL     1       4.539   3.317  16.677  0.00  0.00    +0.000 N 
ATOM     32  H   UNL     1       3.782   2.736  16.332  0.00  0.00    +0.000 HD
ATOM     33  H   UNL     1       5.254   2.715  17.094  0.00  0.00    +0.000 HD
ENDBRANCH   4  31
TORSDOF 9
ENDMDL
MODEL 8
REMARK VINA RESULT:      -7.8      2.200      3.972
REMARK  Name = 
REMARK  12 active torsions:
REMARK  status: ('A' for Active; 'I' for Inactive)
REMARK    1  A    between atoms: C_1  and  C_2
REMARK    2  A    between atoms: C_2  and  O_3
REMARK    3  A    between atoms: O_3  and  C_4
REMARK    4  A    between atoms: C_9  and  C_10
REMARK    5  A    between atoms: N_12  and  C_13
REMARK    6  A    between atoms: C_13  and  C_14
REMARK    7  A    between atoms: C_13  and  C_15
REMARK    8  A    between atoms: C_13  and  C_16
REMARK    9  A    between atoms: C_16  and  C_17
REMARK   10  A    between atoms: C_17  and  O_18
REMARK   11  A    between atoms: C_19  and  N_20
REMARK   12  A    between atoms: C_21  and  C_22
REMARK                            x       y       z     vdW  Elec       q    Type
REMARK                         _______ _______ _______ _____ _____    ______ ____
ROOT
ATOM      1  C   UNL     1       3.205   6.064  18.493  0.00  0.00    +0.000 A 
ATOM      2  N   UNL     1       2.709   4.922  19.014  0.00  0.00    +0.000 NA
ATOM      3  N   UNL     1       3.613   3.951  18.714  0.00  0.00    +0.000 N 
ATOM      4  C   UNL     1       4.675   4.447  17.979  0.00  0.00    +0.000 A 
ATOM      5  C   UNL     1       4.436   5.803  17.784  0.00  0.00    +0.000 A 
ENDROOT
BRANCH   1  11
ATOM      6  C   UNL     1       0.088  11.472  20.320  0.00  0.00    +0.000 A 
ATOM      7  C   UNL     1       0.137  10.664  21.440  0.00  0.00    +0.000 A 
ATOM      8  C   UNL     1       0.718   9.401  21.322  0.00  0.00    +0.000 A 
ATOM      9  C   UNL     1       1.279   8.987  20.102  0.00  0.00    +0.000 A 
ATOM     10  C   UNL     1       1.923   7.724  19.929  0.00  0.00    +0.000 A 
ATOM     11  C   UNL     1       2.523   7.368  18.709  0.00  0.00    +0.000 A 
ATOM     12  C   UNL     1       2.473   8.322  17.686  0.00  0.00    +0.000 A 
ATOM     13  C   UNL     1       1.792   9.541  17.840  0.00  0.00    +0.000 A 
ATOM     14  C   UNL     1       1.194   9.905  19.032  0.00  0.00    +0.000 A 
ATOM     15  N   UNL     1       0.597  11.114  19.125  0.00  0.00    +0.000 NA
BRANCH   6  16
ATOM     16  O   UNL     1      -0.426  12.743  20.506  0.00  0.00    +0.000 OA
BRANCH  16  18
ATOM     17  C   UNL     1      -2.814  12.742  20.450  0.00  0.00    +0.000 C 
ATOM     18  C   UNL     1      -1.543  13.045  19.668  0.00  0.00    +0.000 C 
ENDBRANCH  16  18
ENDBRANCH   6  16
ENDBRANCH   1  11
BRANCH   5  19
ATOM     19  C   UNL     1       5.259   6.727  17.014  0.00  0.00    +0.000 C 
ATOM     20  N   UNL     1       5.080   6.722  15.653  0.00  0.00    +0.000 N 
ATOM     21  O   UNL     1       6.072   7.517  17.482  0.00  0.00    +0.000 OA
ATOM     22  H   UNL     1       4.161   6.462  15.323  0.00  0.00    +0.000 HD
ATOM     23  H   UNL     1       5.568   7.459  15.160  0.00  0.00    +0.000 HD
ENDBRANCH   5  19
BRANCH   3  24
ATOM     24  C   UNL     1       3.389   2.558  19.192  0.00  0.00    +0.000 C 
ATOM     25  C   UNL     1       3.417   1.536  18.027  0.00  0.00    +0.000 C 
ATOM     26  C   UNL     1       4.531   2.149  20.155  0.00  0.00    +0.000 C 
BRANCH  24  27
ATOM     27  C   UNL     1       2.042   2.366  19.960  0.00  0.00    +0.000 C 
BRANCH  27  28
ATOM     28  C   UNL     1       2.085   2.539  21.472  0.00  0.00    +0.000 C 
BRANCH  28  29
ATOM     29  O   UNL     1       2.111   3.936  21.763  0.00  0.00    +0.000 OA
ATOM     30  H   UNL     1       3.022   4.253  21.626  0.00  0.00    +0.000 HD
ENDBRANCH  28  29
ENDBRANCH  27  28
ENDBRANCH  24  27
ENDBRANCH   3  24
BRANCH   4  31
ATOM     31  N   UNL     1       5.738   3.700  17.559  0.00  0.00    +0.000 N 
ATOM     32  H   UNL     1       6.284   3.137  18.203  0.00  0.00    +0.000 HD
ATOM     33  H   UNL     1       6.374   4.157  16.900  0.00  0.00    +0.000 HD
ENDBRANCH   4  31
TORSDOF 9
ENDMDL
MODEL 9
REMARK VINA RESULT:      -7.7      0.894      1.515
REMARK  Name = 
REMARK  12 active torsions:
REMARK  status: ('A' for Active; 'I' for Inactive)
REMARK    1  A    between atoms: C_1  and  C_2
REMARK    2  A    between atoms: C_2  and  O_3
REMARK    3  A    between atoms: O_3  and  C_4
REMARK    4  A    between atoms: C_9  and  C_10
REMARK    5  A    between atoms: N_12  and  C_13
REMARK    6  A    between atoms: C_13  and  C_14
REMARK    7  A    between atoms: C_13  and  C_15
REMARK    8  A    between atoms: C_13  and  C_16
REMARK    9  A    between atoms: C_16  and  C_17
REMARK   10  A    between atoms: C_17  and  O_18
REMARK   11  A    between atoms: C_19  and  N_20
REMARK   12  A    between atoms: C_21  and  C_22
REMARK                            x       y       z     vdW  Elec       q    Type
REMARK                         _______ _______ _______ _____ _____    ______ ____
ROOT
ATOM      1  C   UNL     1       3.407   6.302  18.408  0.00  0.00    +0.000 A 
ATOM      2  N   UNL     1       4.651   6.670  18.039  0.00  0.00    +0.000 NA
ATOM      3  N   UNL     1       5.174   5.605  17.373  0.00  0.00    +0.000 N 
ATOM      4  C   UNL     1       4.290   4.541  17.333  0.00  0.00    +0.000 A 
ATOM      5  C   UNL     1       3.148   4.935  18.019  0.00  0.00    +0.000 A 
ENDROOT
BRANCH   1  11
ATOM      6  C   UNL     1      -0.586  10.966  20.555  0.00  0.00    +0.000 A 
ATOM      7  C   UNL     1      -0.281  11.297  19.249  0.00  0.00    +0.000 A 
ATOM      8  C   UNL     1       0.609  10.482  18.547  0.00  0.00    +0.000 A 
ATOM      9  C   UNL     1       1.141   9.329  19.148  0.00  0.00    +0.000 A 
ATOM     10  C   UNL     1       2.023   8.433  18.470  0.00  0.00    +0.000 A 
ATOM     11  C   UNL     1       2.490   7.259  19.084  0.00  0.00    +0.000 A 
ATOM     12  C   UNL     1       2.029   7.006  20.380  0.00  0.00    +0.000 A 
ATOM     13  C   UNL     1       1.205   7.914  21.066  0.00  0.00    +0.000 A 
ATOM     14  C   UNL     1       0.740   9.075  20.478  0.00  0.00    +0.000 A 
ATOM     15  N   UNL     1      -0.089   9.880  21.180  0.00  0.00    +0.000 NA
BRANCH   6  16
ATOM     16  O   UNL     1      -1.531  11.759  21.181  0.00  0.00    +0.000 OA
BRANCH  16  18
ATOM     17  C   UNL     1      -2.766  12.250  23.167  0.00  0.00    +0.000 C 
ATOM     18  C   UNL     1      -1.440  11.752  22.607  0.00  0.00    +0.000 C 
ENDBRANCH  16  18
ENDBRANCH   6  16
ENDBRANCH   1  11
BRANCH   5  19
ATOM     19  C   UNL     1       1.970   4.119  18.283  0.00  0.00    +0.000 C 
ATOM     20  N   UNL     1       1.935   3.461  19.488  0.00  0.00    +0.000 N 
ATOM     21  O   UNL     1       1.006   3.994  17.535  0.00  0.00    +0.000 OA
ATOM     22  H   UNL     1       2.436   3.896  20.250  0.00  0.00    +0.000 HD
ATOM     23  H   UNL     1       1.055   3.009  19.697  0.00  0.00    +0.000 HD
ENDBRANCH   5  19
BRANCH   3  24
ATOM     24  C   UNL     1       6.538   5.698  16.783  0.00  0.00    +0.000 C 
ATOM     25  C   UNL     1       7.271   6.991  17.223  0.00  0.00    +0.000 C 
ATOM     26  C   UNL     1       7.405   4.517  17.288  0.00  0.00    +0.000 C 
BRANCH  24  27
ATOM     27  C   UNL     1       6.554   5.652  15.221  0.00  0.00    +0.000 C 
BRANCH  27  28
ATOM     28  C   UNL     1       7.222   4.444  14.579  0.00  0.00    +0.000 C 
BRANCH  28  29
ATOM     29  O   UNL     1       6.202   3.532  14.171  0.00  0.00    +0.000 OA
ATOM     30  H   UNL     1       6.509   3.081  13.364  0.00  0.00    +0.000 HD
ENDBRANCH  28  29
ENDBRANCH  27  28
ENDBRANCH  24  27
ENDBRANCH   3  24
BRANCH   4  31
ATOM     31  N   UNL     1       4.544   3.352  16.710  0.00  0.00    +0.000 N 
ATOM     32  H   UNL     1       5.467   3.117  16.360  0.00  0.00    +0.000 HD
ATOM     33  H   UNL     1       3.844   3.046  16.029  0.00  0.00    +0.000 HD
ENDBRANCH   4  31
TORSDOF 9
ENDMDL
