MODEL 1
REMARK VINA RESULT:      -7.5      0.000      0.000
REMARK  Name = 
REMARK  7 active torsions:
REMARK  status: ('A' for Active; 'I' for Inactive)
REMARK    1  A    between atoms: C_1  and  C_2
REMARK    2  A    between atoms: C_2  and  C_3
REMARK    3  A    between atoms: C_2  and  C_4
REMARK    4  A    between atoms: C_4  and  C_5
REMARK    5  A    between atoms: C_5  and  N_6
REMARK    6  A    between atoms: C_14  and  O_15
REMARK    7  A    between atoms: C_16  and  O_17
REMARK                            x       y       z     vdW  Elec       q    Type
REMARK                         _______ _______ _______ _____ _____    ______ ____
ROOT
ATOM      1  N   UNL     1       6.074   4.639  15.831  0.00  0.00    +0.000 NA
ATOM      2  C   UNL     1       5.199   5.728  15.434  0.00  0.00    +0.000 C 
ATOM      3  C   UNL     1       5.387   6.834  16.460  0.00  0.00    +0.000 C 
ATOM      4  C   UNL     1       4.590   6.263  17.606  0.00  0.00    +0.000 A 
ATOM      5  C   UNL     1       3.343   6.837  17.792  0.00  0.00    +0.000 A 
ATOM      6  C   UNL     1       2.350   6.048  18.329  0.00  0.00    +0.000 A 
ATOM      7  C   UNL     1       2.659   4.855  18.935  0.00  0.00    +0.000 A 
ATOM      8  N   UNL     1       1.575   4.358  19.543  0.00  0.00    +0.000 NA
ATOM      9  C   UNL     1       1.827   3.378  20.390  0.00  0.00    +0.000 A 
ATOM     10  C   UNL     1       3.109   2.877  20.583  0.00  0.00    +0.000 A 
ATOM     11  N   UNL     1       4.184   3.247  19.820  0.00  0.00    +0.000 NA
ATOM     12  C   UNL     1       3.986   4.307  18.947  0.00  0.00    +0.000 A 
ATOM     13  C   UNL     1       4.911   4.954  18.065  0.00  0.00    +0.000 A 
ATOM     14  C   UNL     1       6.144   4.337  17.302  0.00  0.00    +0.000 C 
ENDROOT
BRANCH   9  15
ATOM     15  O   UNL     1       0.755   3.012  21.127  0.00  0.00    +0.000 OA
ATOM     16  H   UNL     1       0.138   2.748  20.378  0.00  0.00    +0.000 HD
ENDBRANCH   9  15
BRANCH  10  17
ATOM     17  O   UNL     1       3.329   2.075  21.674  0.00  0.00    +0.000 OA
ATOM     18  H   UNL     1       3.180   2.651  22.438  0.00  0.00    +0.000 HD
ENDBRANCH  10  17
BRANCH   1  19
ATOM     19  C   UNL     1       6.845   4.035  14.755  0.00  0.00    +0.000 C 
BRANCH  19  20
ATOM     20  C   UNL     1       6.358   4.260  13.273  0.00  0.00    +0.000 C 
BRANCH  20  22
ATOM     21  C   UNL     1       4.613   3.363  11.679  0.00  0.00    +0.000 C 
ATOM     22  C   UNL     1       5.886   3.044  12.455  0.00  0.00    +0.000 C 
ATOM     23  C   UNL     1       6.970   2.610  11.445  0.00  0.00    +0.000 C 
ENDBRANCH  20  22
ENDBRANCH  19  20
ENDBRANCH   1  19
TORSDOF 5
ENDMDL
MODEL 2
REMARK VINA RESULT:      -7.5      3.465      6.803
REMARK  Name = 
REMARK  7 active torsions:
REMARK  status: ('A' for Active; 'I' for Inactive)
REMARK    1  A    between atoms: C_1  and  C_2
REMARK    2  A    between atoms: C_2  and  C_3
REMARK    3  A    between atoms: C_2  and  C_4
REMARK    4  A    between atoms: C_4  and  C_5
REMARK    5  A    between atoms: C_5  and  N_6
REMARK    6  A    between atoms: C_14  and  O_15
REMARK    7  A    between atoms: C_16  and  O_17
REMARK                            x       y       z     vdW  Elec       q    Type
REMARK                         _______ _______ _______ _____ _____    ______ ____
ROOT
ATOM      1  N   UNL     1       4.008   3.371  18.873  0.00  0.00    +0.000 NA
ATOM      2  C   UNL     1       4.655   4.500  19.518  0.00  0.00    +0.000 C 
ATOM      3  C   UNL     1       3.994   5.754  18.964  0.00  0.00    +0.000 C 
ATOM      4  C   UNL     1       4.650   5.815  17.607  0.00  0.00    +0.000 A 
ATOM      5  C   UNL     1       5.654   6.764  17.488  0.00  0.00    +0.000 A 
ATOM      6  C   UNL     1       6.675   6.505  16.601  0.00  0.00    +0.000 A 
ATOM      7  C   UNL     1       6.548   5.511  15.661  0.00  0.00    +0.000 A 
ATOM      8  N   UNL     1       7.569   5.566  14.799  0.00  0.00    +0.000 NA
ATOM      9  C   UNL     1       7.394   4.854  13.700  0.00  0.00    +0.000 A 
ATOM     10  C   UNL     1       6.261   4.074  13.497  0.00  0.00    +0.000 A 
ATOM     11  N   UNL     1       5.310   3.861  14.459  0.00  0.00    +0.000 NA
ATOM     12  C   UNL     1       5.421   4.622  15.615  0.00  0.00    +0.000 A 
ATOM     13  C   UNL     1       4.570   4.670  16.766  0.00  0.00    +0.000 A 
ATOM     14  C   UNL     1       3.711   3.515  17.407  0.00  0.00    +0.000 C 
ENDROOT
BRANCH   9  15
ATOM     15  O   UNL     1       8.346   5.062  12.765  0.00  0.00    +0.000 OA
ATOM     16  H   UNL     1       9.146   5.117  13.371  0.00  0.00    +0.000 HD
ENDBRANCH   9  15
BRANCH  10  17
ATOM     17  O   UNL     1       6.022   3.606  12.230  0.00  0.00    +0.000 OA
ATOM     18  H   UNL     1       6.597   4.137  11.658  0.00  0.00    +0.000 HD
ENDBRANCH  10  17
BRANCH   1  19
ATOM     19  C   UNL     1       3.649   2.272  19.757  0.00  0.00    +0.000 C 
BRANCH  19  20
ATOM     20  C   UNL     1       2.639   2.562  20.932  0.00  0.00    +0.000 C 
BRANCH  20  22
ATOM     21  C   UNL     1       1.036   4.478  20.545  0.00  0.00    +0.000 C 
ATOM     22  C   UNL     1       1.193   2.962  20.584  0.00  0.00    +0.000 C 
ATOM     23  C   UNL     1       0.786   2.400  19.205  0.00  0.00    +0.000 C 
ENDBRANCH  20  22
ENDBRANCH  19  20
ENDBRANCH   1  19
TORSDOF 5
ENDMDL
MODEL 3
REMARK VINA RESULT:      -7.4      1.624      1.931
REMARK  Name = 
REMARK  7 active torsions:
REMARK  status: ('A' for Active; 'I' for Inactive)
REMARK    1  A    between atoms: C_1  and  C_2
REMARK    2  A    between atoms: C_2  and  C_3
REMARK    3  A    between atoms: C_2  and  C_4
REMARK    4  A    between atoms: C_4  and  C_5
REMARK    5  A    between atoms: C_5  and  N_6
REMARK    6  A    between atoms: C_14  and  O_15
REMARK    7  A    between atoms: C_16  and  O_17
REMARK                            x       y       z     vdW  Elec       q    Type
REMARK                         _______ _______ _______ _____ _____    ______ ____
ROOT
ATOM      1  N   UNL     1       5.976   4.639  15.061  0.00  0.00    +0.000 NA
ATOM      2  C   UNL     1       6.529   5.648  15.945  0.00  0.00    +0.000 C 
ATOM      3  C   UNL     1       7.227   4.904  17.074  0.00  0.00    +0.000 C 
ATOM      4  C   UNL     1       6.027   4.476  17.882  0.00  0.00    +0.000 A 
ATOM      5  C   UNL     1       5.806   5.217  19.032  0.00  0.00    +0.000 A 
ATOM      6  C   UNL     1       4.506   5.344  19.469  0.00  0.00    +0.000 A 
ATOM      7  C   UNL     1       3.519   4.528  18.972  0.00  0.00    +0.000 A 
ATOM      8  N   UNL     1       2.391   4.700  19.669  0.00  0.00    +0.000 NA
ATOM      9  C   UNL     1       1.478   3.767  19.469  0.00  0.00    +0.000 A 
ATOM     10  C   UNL     1       1.669   2.729  18.564  0.00  0.00    +0.000 A 
ATOM     11  N   UNL     1       2.735   2.662  17.708  0.00  0.00    +0.000 NA
ATOM     12  C   UNL     1       3.747   3.590  17.908  0.00  0.00    +0.000 A 
ATOM     13  C   UNL     1       4.996   3.747  17.226  0.00  0.00    +0.000 A 
ATOM     14  C   UNL     1       5.342   3.445  15.719  0.00  0.00    +0.000 C 
ENDROOT
BRANCH   9  15
ATOM     15  O   UNL     1       0.424   3.853  20.309  0.00  0.00    +0.000 OA
ATOM     16  H   UNL     1       0.922   4.073  21.155  0.00  0.00    +0.000 HD
ENDBRANCH   9  15
BRANCH  10  17
ATOM     17  O   UNL     1       0.814   1.657  18.627  0.00  0.00    +0.000 OA
ATOM     18  H   UNL     1       0.004   2.011  19.022  0.00  0.00    +0.000 HD
ENDBRANCH  10  17
BRANCH   1  19
ATOM     19  C   UNL     1       6.188   4.871  13.640  0.00  0.00    +0.000 C 
BRANCH  19  20
ATOM     20  C   UNL     1       6.597   3.645  12.738  0.00  0.00    +0.000 C 
BRANCH  20  22
ATOM     21  C   UNL     1       4.416   3.482  11.471  0.00  0.00    +0.000 C 
ATOM     22  C   UNL     1       5.493   2.705  12.219  0.00  0.00    +0.000 C 
ATOM     23  C   UNL     1       6.080   1.649  11.258  0.00  0.00    +0.000 C 
ENDBRANCH  20  22
ENDBRANCH  19  20
ENDBRANCH   1  19
TORSDOF 5
ENDMDL
MODEL 4
REMARK VINA RESULT:      -7.4      0.657      1.028
REMARK  Name = 
REMARK  7 active torsions:
REMARK  status: ('A' for Active; 'I' for Inactive)
REMARK    1  A    between atoms: C_1  and  C_2
REMARK    2  A    between atoms: C_2  and  C_3
REMARK    3  A    between atoms: C_2  and  C_4
REMARK    4  A    between atoms: C_4  and  C_5
REMARK    5  A    between atoms: C_5  and  N_6
REMARK    6  A    between atoms: C_14  and  O_15
REMARK    7  A    between atoms: C_16  and  O_17
REMARK                            x       y       z     vdW  Elec       q    Type
REMARK                         _______ _______ _______ _____ _____    ______ ____
ROOT
ATOM      1  N   UNL     1       6.104   5.001  15.612  0.00  0.00    +0.000 NA
ATOM      2  C   UNL     1       5.084   6.020  15.443  0.00  0.00    +0.000 C 
ATOM      3  C   UNL     1       5.311   7.050  16.539  0.00  0.00    +0.000 C 
ATOM      4  C   UNL     1       4.742   6.303  17.720  0.00  0.00    +0.000 A 
ATOM      5  C   UNL     1       3.486   6.724  18.124  0.00  0.00    +0.000 A 
ATOM      6  C   UNL     1       2.658   5.792  18.709  0.00  0.00    +0.000 A 
ATOM      7  C   UNL     1       3.159   4.591  19.148  0.00  0.00    +0.000 A 
ATOM      8  N   UNL     1       2.224   3.933  19.843  0.00  0.00    +0.000 NA
ATOM      9  C   UNL     1       2.684   2.917  20.549  0.00  0.00    +0.000 A 
ATOM     10  C   UNL     1       4.021   2.540  20.519  0.00  0.00    +0.000 A 
ATOM     11  N   UNL     1       4.938   3.085  19.660  0.00  0.00    +0.000 NA
ATOM     12  C   UNL     1       4.520   4.188  18.929  0.00  0.00    +0.000 A 
ATOM     13  C   UNL     1       5.245   5.002  18.000  0.00  0.00    +0.000 A 
ATOM     14  C   UNL     1       6.410   4.585  17.024  0.00  0.00    +0.000 C 
ENDROOT
BRANCH   9  15
ATOM     15  O   UNL     1       1.766   2.379  21.382  0.00  0.00    +0.000 OA
ATOM     16  H   UNL     1       1.469   1.610  20.806  0.00  0.00    +0.000 HD
ENDBRANCH   9  15
BRANCH  10  17
ATOM     17  O   UNL     1       4.467   1.676  21.487  0.00  0.00    +0.000 OA
ATOM     18  H   UNL     1       5.412   1.565  21.302  0.00  0.00    +0.000 HD
ENDBRANCH  10  17
BRANCH   1  19
ATOM     19  C   UNL     1       6.767   4.575  14.389  0.00  0.00    +0.000 C 
BRANCH  19  20
ATOM     20  C   UNL     1       6.138   3.376  13.581  0.00  0.00    +0.000 C 
BRANCH  20  22
ATOM     21  C   UNL     1       6.972   2.486  11.366  0.00  0.00    +0.000 C 
ATOM     22  C   UNL     1       6.043   3.485  12.047  0.00  0.00    +0.000 C 
ATOM     23  C   UNL     1       4.602   3.207  11.568  0.00  0.00    +0.000 C 
ENDBRANCH  20  22
ENDBRANCH  19  20
ENDBRANCH   1  19
TORSDOF 5
ENDMDL
MODEL 5
REMARK VINA RESULT:      -7.3      1.305      1.504
REMARK  Name = 
REMARK  7 active torsions:
REMARK  status: ('A' for Active; 'I' for Inactive)
REMARK    1  A    between atoms: C_1  and  C_2
REMARK    2  A    between atoms: C_2  and  C_3
REMARK    3  A    between atoms: C_2  and  C_4
REMARK    4  A    between atoms: C_4  and  C_5
REMARK    5  A    between atoms: C_5  and  N_6
REMARK    6  A    between atoms: C_14  and  O_15
REMARK    7  A    between atoms: C_16  and  O_17
REMARK                            x       y       z     vdW  Elec       q    Type
REMARK                         _______ _______ _______ _____ _____    ______ ____
ROOT
ATOM      1  N   UNL     1       5.815   4.959  15.076  0.00  0.00    +0.000 NA
ATOM      2  C   UNL     1       5.306   6.302  15.285  0.00  0.00    +0.000 C 
ATOM      3  C   UNL     1       5.732   6.715  16.686  0.00  0.00    +0.000 C 
ATOM      4  C   UNL     1       4.738   5.927  17.503  0.00  0.00    +0.000 A 
ATOM      5  C   UNL     1       3.692   6.673  18.024  0.00  0.00    +0.000 A 
ATOM      6  C   UNL     1       2.488   6.034  18.216  0.00  0.00    +0.000 A 
ATOM      7  C   UNL     1       2.412   4.663  18.186  0.00  0.00    +0.000 A 
ATOM      8  N   UNL     1       1.197   4.264  18.581  0.00  0.00    +0.000 NA
ATOM      9  C   UNL     1       1.111   2.978  18.866  0.00  0.00    +0.000 A 
ATOM     10  C   UNL     1       2.188   2.113  18.711  0.00  0.00    +0.000 A 
ATOM     11  N   UNL     1       3.369   2.478  18.122  0.00  0.00    +0.000 NA
ATOM     12  C   UNL     1       3.530   3.828  17.846  0.00  0.00    +0.000 A 
ATOM     13  C   UNL     1       4.651   4.523  17.288  0.00  0.00    +0.000 A 
ATOM     14  C   UNL     1       5.707   4.010  16.237  0.00  0.00    +0.000 C 
ENDROOT
BRANCH   9  15
ATOM     15  O   UNL     1      -0.064   2.628  19.434  0.00  0.00    +0.000 OA
ATOM     16  H   UNL     1      -0.398   3.547  19.670  0.00  0.00    +0.000 HD
ENDBRANCH   9  15
BRANCH  10  17
ATOM     17  O   UNL     1       2.106   0.875  19.296  0.00  0.00    +0.000 OA
ATOM     18  H   UNL     1       1.317   0.917  19.855  0.00  0.00    +0.000 HD
ENDBRANCH  10  17
BRANCH   1  19
ATOM     19  C   UNL     1       6.451   4.727  13.787  0.00  0.00    +0.000 C 
BRANCH  19  20
ATOM     20  C   UNL     1       6.401   3.273  13.183  0.00  0.00    +0.000 C 
BRANCH  20  22
ATOM     21  C   UNL     1       6.188   1.674  11.236  0.00  0.00    +0.000 C 
ATOM     22  C   UNL     1       5.913   3.088  11.734  0.00  0.00    +0.000 C 
ATOM     23  C   UNL     1       4.395   3.349  11.630  0.00  0.00    +0.000 C 
ENDBRANCH  20  22
ENDBRANCH  19  20
ENDBRANCH   1  19
TORSDOF 5
ENDMDL
MODEL 6
REMARK VINA RESULT:      -7.1      4.400      6.152
REMARK  Name = 
REMARK  7 active torsions:
REMARK  status: ('A' for Active; 'I' for Inactive)
REMARK    1  A    between atoms: C_1  and  C_2
REMARK    2  A    between atoms: C_2  and  C_3
REMARK    3  A    between atoms: C_2  and  C_4
REMARK    4  A    between atoms: C_4  and  C_5
REMARK    5  A    between atoms: C_5  and  N_6
REMARK    6  A    between atoms: C_14  and  O_15
REMARK    7  A    between atoms: C_16  and  O_17
REMARK                            x       y       z     vdW  Elec       q    Type
REMARK                         _______ _______ _______ _____ _____    ______ ____
ROOT
ATOM      1  N   UNL     1       1.633   4.644  19.224  0.00  0.00    +0.000 NA
ATOM      2  C   UNL     1       1.860   5.180  17.894  0.00  0.00    +0.000 C 
ATOM      3  C   UNL     1       3.188   5.921  17.944  0.00  0.00    +0.000 C 
ATOM      4  C   UNL     1       2.758   7.175  18.663  0.00  0.00    +0.000 A 
ATOM      5  C   UNL     1       2.613   8.290  17.853  0.00  0.00    +0.000 A 
ATOM      6  C   UNL     1       1.688   9.238  18.231  0.00  0.00    +0.000 A 
ATOM      7  C   UNL     1       1.161   9.232  19.499  0.00  0.00    +0.000 A 
ATOM      8  N   UNL     1       0.439  10.340  19.698  0.00  0.00    +0.000 NA
ATOM      9  C   UNL     1       0.135  10.573  20.962  0.00  0.00    +0.000 A 
ATOM     10  C   UNL     1       0.495   9.701  21.982  0.00  0.00    +0.000 A 
ATOM     11  N   UNL     1       1.059   8.473  21.760  0.00  0.00    +0.000 NA
ATOM     12  C   UNL     1       1.442   8.197  20.455  0.00  0.00    +0.000 A 
ATOM     13  C   UNL     1       2.095   7.042  19.915  0.00  0.00    +0.000 A 
ATOM     14  C   UNL     1       1.985   5.540  20.379  0.00  0.00    +0.000 C 
ENDROOT
BRANCH   9  15
ATOM     15  O   UNL     1      -0.433  11.782  21.166  0.00  0.00    +0.000 OA
ATOM     16  H   UNL     1      -1.195  11.705  20.514  0.00  0.00    +0.000 HD
ENDBRANCH   9  15
BRANCH  10  17
ATOM     17  O   UNL     1       0.402  10.151  23.275  0.00  0.00    +0.000 OA
ATOM     18  H   UNL     1      -0.550  10.229  23.441  0.00  0.00    +0.000 HD
ENDBRANCH  10  17
BRANCH   1  19
ATOM     19  C   UNL     1       1.174   3.263  19.269  0.00  0.00    +0.000 C 
BRANCH  19  20
ATOM     20  C   UNL     1       2.117   2.187  19.929  0.00  0.00    +0.000 C 
BRANCH  20  22
ATOM     21  C   UNL     1       3.337   1.901  17.733  0.00  0.00    +0.000 C 
ATOM     22  C   UNL     1       3.463   1.867  19.252  0.00  0.00    +0.000 C 
ATOM     23  C   UNL     1       4.542   2.890  19.668  0.00  0.00    +0.000 C 
ENDBRANCH  20  22
ENDBRANCH  19  20
ENDBRANCH   1  19
TORSDOF 5
ENDMDL
MODEL 7
REMARK VINA RESULT:      -7.0      3.640      5.213
REMARK  Name = 
REMARK  7 active torsions:
REMARK  status: ('A' for Active; 'I' for Inactive)
REMARK    1  A    between atoms: C_1  and  C_2
REMARK    2  A    between atoms: C_2  and  C_3
REMARK    3  A    between atoms: C_2  and  C_4
REMARK    4  A    between atoms: C_4  and  C_5
REMARK    5  A    between atoms: C_5  and  N_6
REMARK    6  A    between atoms: C_14  and  O_15
REMARK    7  A    between atoms: C_16  and  O_17
REMARK                            x       y       z     vdW  Elec       q    Type
REMARK                         _______ _______ _______ _____ _____    ______ ____
ROOT
ATOM      1  N   UNL     1       4.962   4.448  17.575  0.00  0.00    +0.000 NA
ATOM      2  C   UNL     1       4.649   3.711  18.786  0.00  0.00    +0.000 C 
ATOM      3  C   UNL     1       3.218   3.216  18.636  0.00  0.00    +0.000 C 
ATOM      4  C   UNL     1       2.470   4.497  18.908  0.00  0.00    +0.000 A 
ATOM      5  C   UNL     1       1.896   4.580  20.166  0.00  0.00    +0.000 A 
ATOM      6  C   UNL     1       1.759   5.832  20.724  0.00  0.00    +0.000 A 
ATOM      7  C   UNL     1       1.898   6.959  19.951  0.00  0.00    +0.000 A 
ATOM      8  N   UNL     1       1.540   8.040  20.654  0.00  0.00    +0.000 NA
ATOM      9  C   UNL     1       1.357   9.127  19.926  0.00  0.00    +0.000 A 
ATOM     10  C   UNL     1       1.576   9.143  18.554  0.00  0.00    +0.000 A 
ATOM     11  N   UNL     1       2.131   8.097  17.866  0.00  0.00    +0.000 NA
ATOM     12  C   UNL     1       2.299   6.914  18.573  0.00  0.00    +0.000 A 
ATOM     13  C   UNL     1       2.795   5.645  18.133  0.00  0.00    +0.000 A 
ATOM     14  C   UNL     1       3.880   5.338  17.032  0.00  0.00    +0.000 C 
ENDROOT
BRANCH   9  15
ATOM     15  O   UNL     1       0.823  10.156  20.619  0.00  0.00    +0.000 OA
ATOM     16  H   UNL     1       0.426  10.668  19.850  0.00  0.00    +0.000 HD
ENDBRANCH   9  15
BRANCH  10  17
ATOM     17  O   UNL     1       1.091  10.209  17.839  0.00  0.00    +0.000 OA
ATOM     18  H   UNL     1       0.153  10.008  17.702  0.00  0.00    +0.000 HD
ENDBRANCH  10  17
BRANCH   1  19
ATOM     19  C   UNL     1       6.263   4.159  16.988  0.00  0.00    +0.000 C 
BRANCH  19  20
ATOM     20  C   UNL     1       7.375   5.273  17.061  0.00  0.00    +0.000 C 
BRANCH  20  22
ATOM     21  C   UNL     1       8.052   5.966  19.396  0.00  0.00    +0.000 C 
ATOM     22  C   UNL     1       7.268   6.358  18.149  0.00  0.00    +0.000 C 
ATOM     23  C   UNL     1       7.823   7.704  17.635  0.00  0.00    +0.000 C 
ENDBRANCH  20  22
ENDBRANCH  19  20
ENDBRANCH   1  19
TORSDOF 5
ENDMDL
MODEL 8
REMARK VINA RESULT:      -6.9      3.106      4.382
REMARK  Name = 
REMARK  7 active torsions:
REMARK  status: ('A' for Active; 'I' for Inactive)
REMARK    1  A    between atoms: C_1  and  C_2
REMARK    2  A    between atoms: C_2  and  C_3
REMARK    3  A    between atoms: C_2  and  C_4
REMARK    4  A    between atoms: C_4  and  C_5
REMARK    5  A    between atoms: C_5  and  N_6
REMARK    6  A    between atoms: C_14  and  O_15
REMARK    7  A    between atoms: C_16  and  O_17
REMARK                            x       y       z     vdW  Elec       q    Type
REMARK                         _______ _______ _______ _____ _____    ______ ____
ROOT
ATOM      1  N   UNL     1       5.330   4.903  17.707  0.00  0.00    +0.000 NA
ATOM      2  C   UNL     1       5.020   4.142  18.903  0.00  0.00    +0.000 C 
ATOM      3  C   UNL     1       3.644   3.529  18.685  0.00  0.00    +0.000 C 
ATOM      4  C   UNL     1       2.780   4.744  18.915  0.00  0.00    +0.000 A 
ATOM      5  C   UNL     1       2.139   4.778  20.143  0.00  0.00    +0.000 A 
ATOM      6  C   UNL     1       1.870   6.014  20.688  0.00  0.00    +0.000 A 
ATOM      7  C   UNL     1       1.953   7.149  19.919  0.00  0.00    +0.000 A 
ATOM      8  N   UNL     1       1.471   8.196  20.599  0.00  0.00    +0.000 NA
ATOM      9  C   UNL     1       1.235   9.264  19.859  0.00  0.00    +0.000 A 
ATOM     10  C   UNL     1       1.520   9.299  18.499  0.00  0.00    +0.000 A 
ATOM     11  N   UNL     1       2.193   8.303  17.844  0.00  0.00    +0.000 NA
ATOM     12  C   UNL     1       2.424   7.138  18.562  0.00  0.00    +0.000 A 
ATOM     13  C   UNL     1       3.046   5.915  18.152  0.00  0.00    +0.000 A 
ATOM     14  C   UNL     1       4.205   5.700  17.107  0.00  0.00    +0.000 C 
ENDROOT
BRANCH   9  15
ATOM     15  O   UNL     1       0.584  10.245  20.521  0.00  0.00    +0.000 OA
ATOM     16  H   UNL     1       1.119  11.031  20.194  0.00  0.00    +0.000 HD
ENDBRANCH   9  15
BRANCH  10  17
ATOM     17  O   UNL     1       0.984  10.321  17.757  0.00  0.00    +0.000 OA
ATOM     18  H   UNL     1       0.981   9.990  16.847  0.00  0.00    +0.000 HD
ENDBRANCH  10  17
BRANCH   1  19
ATOM     19  C   UNL     1       6.678   4.724  17.186  0.00  0.00    +0.000 C 
BRANCH  19  20
ATOM     20  C   UNL     1       7.021   5.347  15.780  0.00  0.00    +0.000 C 
BRANCH  20  22
ATOM     21  C   UNL     1       5.528   4.130  14.144  0.00  0.00    +0.000 C 
ATOM     22  C   UNL     1       6.968   4.442  14.535  0.00  0.00    +0.000 C 
ATOM     23  C   UNL     1       7.656   5.124  13.333  0.00  0.00    +0.000 C 
ENDBRANCH  20  22
ENDBRANCH  19  20
ENDBRANCH   1  19
TORSDOF 5
ENDMDL
MODEL 9
REMARK VINA RESULT:      -6.8      3.534      4.912
REMARK  Name = 
REMARK  7 active torsions:
REMARK  status: ('A' for Active; 'I' for Inactive)
REMARK    1  A    between atoms: C_1  and  C_2
REMARK    2  A    between atoms: C_2  and  C_3
REMARK    3  A    between atoms: C_2  and  C_4
REMARK    4  A    between atoms: C_4  and  C_5
REMARK    5  A    between atoms: C_5  and  N_6
REMARK    6  A    between atoms: C_14  and  O_15
REMARK    7  A    between atoms: C_16  and  O_17
REMARK                            x       y       z     vdW  Elec       q    Type
REMARK                         _______ _______ _______ _____ _____    ______ ____
ROOT
ATOM      1  N   UNL     1       5.427   6.053  18.022  0.00  0.00    +0.000 NA
ATOM      2  C   UNL     1       5.114   5.221  19.170  0.00  0.00    +0.000 C 
ATOM      3  C   UNL     1       3.824   4.487  18.837  0.00  0.00    +0.000 C 
ATOM      4  C   UNL     1       2.830   5.602  19.043  0.00  0.00    +0.000 A 
ATOM      5  C   UNL     1       2.109   5.528  20.224  0.00  0.00    +0.000 A 
ATOM      6  C   UNL     1       1.683   6.711  20.788  0.00  0.00    +0.000 A 
ATOM      7  C   UNL     1       1.704   7.877  20.062  0.00  0.00    +0.000 A 
ATOM      8  N   UNL     1       1.077   8.846  20.738  0.00  0.00    +0.000 NA
ATOM      9  C   UNL     1       0.786   9.913  20.017  0.00  0.00    +0.000 A 
ATOM     10  C   UNL     1       1.155  10.027  18.682  0.00  0.00    +0.000 A 
ATOM     11  N   UNL     1       1.966   9.126  18.045  0.00  0.00    +0.000 NA
ATOM     12  C   UNL     1       2.263   7.963  18.742  0.00  0.00    +0.000 A 
ATOM     13  C   UNL     1       3.029   6.822  18.338  0.00  0.00    +0.000 A 
ATOM     14  C   UNL     1       4.271   6.760  17.370  0.00  0.00    +0.000 C 
ENDROOT
BRANCH   9  15
ATOM     15  O   UNL     1      -0.003  10.801  20.662  0.00  0.00    +0.000 OA
ATOM     16  H   UNL     1      -0.041  10.348  21.559  0.00  0.00    +0.000 HD
ENDBRANCH   9  15
BRANCH  10  17
ATOM     17  O   UNL     1       0.571  11.019  17.936  0.00  0.00    +0.000 OA
ATOM     18  H   UNL     1      -0.312  11.129  18.320  0.00  0.00    +0.000 HD
ENDBRANCH  10  17
BRANCH   1  19
ATOM     19  C   UNL     1       6.817   6.025  17.592  0.00  0.00    +0.000 C 
BRANCH  19  20
ATOM     20  C   UNL     1       7.416   4.653  17.099  0.00  0.00    +0.000 C 
BRANCH  20  22
ATOM     21  C   UNL     1       5.572   3.553  15.764  0.00  0.00    +0.000 C 
ATOM     22  C   UNL     1       6.990   4.111  15.722  0.00  0.00    +0.000 C 
ATOM     23  C   UNL     1       7.037   5.228  14.656  0.00  0.00    +0.000 C 
ENDBRANCH  20  22
ENDBRANCH  19  20
ENDBRANCH   1  19
TORSDOF 5
ENDMDL
