MODEL 1
REMARK VINA RESULT:      -8.9      0.000      0.000
REMARK  Name = 
REMARK  4 active torsions:
REMARK  status: ('A' for Active; 'I' for Inactive)
REMARK    1  A    between atoms: C_2  and  C_12
REMARK    2  A    between atoms: N_3  and  N_4
REMARK    3  A    between atoms: N_4  and  C_5
REMARK    4  A    between atoms: C_12  and  C_14
REMARK                            x       y       z     vdW  Elec       q    Type
REMARK                         _______ _______ _______ _____ _____    ______ ____
ROOT
ATOM      1  O   UNL     1       8.034   4.212  17.406  0.00  0.00    +0.000 OA
ATOM      2  C   UNL     1       7.132   5.042  17.452  0.00  0.00    +0.000 C 
ATOM      3  N   UNL     1       6.807   5.885  16.399  0.00  0.00    +0.000 N 
ATOM      4  H   UNL     1       5.818   6.095  16.264  0.00  0.00    +0.000 HD
ENDROOT
BRANCH   3   5
ATOM      5  N   UNL     1       7.538   5.689  15.207  0.00  0.00    +0.000 N 
ATOM      6  H   UNL     1       7.975   6.553  14.861  0.00  0.00    +0.000 HD
BRANCH   5   7
ATOM      7  C   UNL     1       6.892   4.964  14.177  0.00  0.00    +0.000 A 
ATOM      8  C   UNL     1       5.650   4.330  14.329  0.00  0.00    +0.000 A 
ATOM      9  C   UNL     1       5.143   3.492  13.328  0.00  0.00    +0.000 A 
ATOM     10  C   UNL     1       5.884   3.273  12.174  0.00  0.00    +0.000 A 
ATOM     11  F   UNL     1       5.417   2.438  11.237  0.00  0.00    +0.000 F 
ATOM     12  C   UNL     1       7.105   3.903  11.986  0.00  0.00    +0.000 A 
ATOM     13  C   UNL     1       7.603   4.747  12.983  0.00  0.00    +0.000 A 
ENDBRANCH   5   7
ENDBRANCH   3   5
BRANCH   2  14
ATOM     14  C   UNL     1       6.281   5.225  18.707  0.00  0.00    +0.000 C 
ATOM     15  O   UNL     1       6.894   5.369  19.768  0.00  0.00    +0.000 OA
BRANCH  14  16
ATOM     16  C   UNL     1       4.817   5.209  18.632  0.00  0.00    +0.000 A 
ATOM     17  C   UNL     1       4.038   6.354  18.565  0.00  0.00    +0.000 A 
ATOM     18  N   UNL     1       2.730   5.995  18.434  0.00  0.00    +0.000 N 
ATOM     19  C   UNL     1       2.614   4.625  18.441  0.00  0.00    +0.000 A 
ATOM     20  C   UNL     1       1.471   3.817  18.308  0.00  0.00    +0.000 A 
ATOM     21  C   UNL     1       1.636   2.431  18.368  0.00  0.00    +0.000 A 
ATOM     22  C   UNL     1       2.893   1.876  18.571  0.00  0.00    +0.000 A 
ATOM     23  C   UNL     1       4.021   2.693  18.698  0.00  0.00    +0.000 A 
ATOM     24  C   UNL     1       3.898   4.099  18.608  0.00  0.00    +0.000 A 
ATOM     25  H   UNL     1       1.947   6.632  18.339  0.00  0.00    +0.000 HD
ENDBRANCH  14  16
ENDBRANCH   2  14
TORSDOF 4
ENDMDL
MODEL 2
REMARK VINA RESULT:      -8.8      0.328      1.075
REMARK  Name = 
REMARK  4 active torsions:
REMARK  status: ('A' for Active; 'I' for Inactive)
REMARK    1  A    between atoms: C_2  and  C_12
REMARK    2  A    between atoms: N_3  and  N_4
REMARK    3  A    between atoms: N_4  and  C_5
REMARK    4  A    between atoms: C_12  and  C_14
REMARK                            x       y       z     vdW  Elec       q    Type
REMARK                         _______ _______ _______ _____ _____    ______ ____
ROOT
ATOM      1  O   UNL     1       8.064   4.234  17.216  0.00  0.00    +0.000 OA
ATOM      2  C   UNL     1       7.197   5.100  17.192  0.00  0.00    +0.000 C 
ATOM      3  N   UNL     1       6.931   5.893  16.084  0.00  0.00    +0.000 N 
ATOM      4  H   UNL     1       5.955   6.134  15.912  0.00  0.00    +0.000 HD
ENDROOT
BRANCH   3   5
ATOM      5  N   UNL     1       7.680   5.597  14.924  0.00  0.00    +0.000 N 
ATOM      6  H   UNL     1       8.086   6.435  14.487  0.00  0.00    +0.000 HD
BRANCH   5   7
ATOM      7  C   UNL     1       7.071   4.739  13.976  0.00  0.00    +0.000 A 
ATOM      8  C   UNL     1       7.597   4.486  12.701  0.00  0.00    +0.000 A 
ATOM      9  C   UNL     1       6.864   3.761  11.753  0.00  0.00    +0.000 A 
ATOM     10  C   UNL     1       5.595   3.297  12.072  0.00  0.00    +0.000 A 
ATOM     11  F   UNL     1       4.879   2.641  11.149  0.00  0.00    +0.000 F 
ATOM     12  C   UNL     1       5.058   3.513  13.332  0.00  0.00    +0.000 A 
ATOM     13  C   UNL     1       5.796   4.228  14.280  0.00  0.00    +0.000 A 
ENDBRANCH   5   7
ENDBRANCH   3   5
BRANCH   2  14
ATOM     14  C   UNL     1       6.326   5.392  18.412  0.00  0.00    +0.000 C 
ATOM     15  O   UNL     1       6.923   5.635  19.464  0.00  0.00    +0.000 OA
BRANCH  14  16
ATOM     16  C   UNL     1       4.863   5.360  18.318  0.00  0.00    +0.000 A 
ATOM     17  C   UNL     1       4.079   6.491  18.151  0.00  0.00    +0.000 A 
ATOM     18  N   UNL     1       2.774   6.113  18.031  0.00  0.00    +0.000 N 
ATOM     19  C   UNL     1       2.667   4.746  18.142  0.00  0.00    +0.000 A 
ATOM     20  C   UNL     1       1.531   3.923  18.056  0.00  0.00    +0.000 A 
ATOM     21  C   UNL     1       1.704   2.547  18.226  0.00  0.00    +0.000 A 
ATOM     22  C   UNL     1       2.960   2.018  18.489  0.00  0.00    +0.000 A 
ATOM     23  C   UNL     1       4.081   2.851  18.568  0.00  0.00    +0.000 A 
ATOM     24  C   UNL     1       3.952   4.244  18.368  0.00  0.00    +0.000 A 
ATOM     25  H   UNL     1       1.989   6.735  17.875  0.00  0.00    +0.000 HD
ENDBRANCH  14  16
ENDBRANCH   2  14
TORSDOF 4
ENDMDL
MODEL 3
REMARK VINA RESULT:      -8.5      1.266      1.767
REMARK  Name = 
REMARK  4 active torsions:
REMARK  status: ('A' for Active; 'I' for Inactive)
REMARK    1  A    between atoms: C_2  and  C_12
REMARK    2  A    between atoms: N_3  and  N_4
REMARK    3  A    between atoms: N_4  and  C_5
REMARK    4  A    between atoms: C_12  and  C_14
REMARK                            x       y       z     vdW  Elec       q    Type
REMARK                         _______ _______ _______ _____ _____    ______ ____
ROOT
ATOM      1  O   UNL     1       8.031   4.194  17.445  0.00  0.00    +0.000 OA
ATOM      2  C   UNL     1       6.989   4.837  17.515  0.00  0.00    +0.000 C 
ATOM      3  N   UNL     1       6.541   5.690  16.515  0.00  0.00    +0.000 N 
ATOM      4  H   UNL     1       5.535   5.724  16.354  0.00  0.00    +0.000 HD
ENDROOT
BRANCH   3   5
ATOM      5  N   UNL     1       7.330   5.730  15.344  0.00  0.00    +0.000 N 
ATOM      6  H   UNL     1       7.617   6.683  15.089  0.00  0.00    +0.000 HD
BRANCH   5   7
ATOM      7  C   UNL     1       6.851   4.997  14.231  0.00  0.00    +0.000 A 
ATOM      8  C   UNL     1       5.699   4.197  14.260  0.00  0.00    +0.000 A 
ATOM      9  C   UNL     1       5.373   3.369  13.179  0.00  0.00    +0.000 A 
ATOM     10  C   UNL     1       6.205   3.327  12.068  0.00  0.00    +0.000 A 
ATOM     11  F   UNL     1       5.913   2.503  11.052  0.00  0.00    +0.000 F 
ATOM     12  C   UNL     1       7.339   4.124  12.002  0.00  0.00    +0.000 A 
ATOM     13  C   UNL     1       7.656   4.957  13.079  0.00  0.00    +0.000 A 
ENDBRANCH   5   7
ENDBRANCH   3   5
BRANCH   2  14
ATOM     14  C   UNL     1       6.084   4.758  18.742  0.00  0.00    +0.000 C 
ATOM     15  O   UNL     1       6.508   5.292  19.770  0.00  0.00    +0.000 OA
BRANCH  14  16
ATOM     16  C   UNL     1       4.794   4.062  18.683  0.00  0.00    +0.000 A 
ATOM     17  C   UNL     1       4.574   2.915  17.936  0.00  0.00    +0.000 A 
ATOM     18  N   UNL     1       3.300   2.482  18.151  0.00  0.00    +0.000 N 
ATOM     19  C   UNL     1       2.650   3.337  19.011  0.00  0.00    +0.000 A 
ATOM     20  C   UNL     1       1.345   3.273  19.529  0.00  0.00    +0.000 A 
ATOM     21  C   UNL     1       0.926   4.297  20.382  0.00  0.00    +0.000 A 
ATOM     22  C   UNL     1       1.774   5.353  20.690  0.00  0.00    +0.000 A 
ATOM     23  C   UNL     1       3.072   5.400  20.169  0.00  0.00    +0.000 A 
ATOM     24  C   UNL     1       3.542   4.364  19.330  0.00  0.00    +0.000 A 
ATOM     25  H   UNL     1       2.880   1.651  17.750  0.00  0.00    +0.000 HD
ENDBRANCH  14  16
ENDBRANCH   2  14
TORSDOF 4
ENDMDL
MODEL 4
REMARK VINA RESULT:      -8.5      1.248      2.002
REMARK  Name = 
REMARK  4 active torsions:
REMARK  status: ('A' for Active; 'I' for Inactive)
REMARK    1  A    between atoms: C_2  and  C_12
REMARK    2  A    between atoms: N_3  and  N_4
REMARK    3  A    between atoms: N_4  and  C_5
REMARK    4  A    between atoms: C_12  and  C_14
REMARK                            x       y       z     vdW  Elec       q    Type
REMARK                         _______ _______ _______ _____ _____    ______ ____
ROOT
ATOM      1  O   UNL     1       8.079   4.325  17.502  0.00  0.00    +0.000 OA
ATOM      2  C   UNL     1       6.994   4.895  17.521  0.00  0.00    +0.000 C 
ATOM      3  N   UNL     1       6.524   5.691  16.486  0.00  0.00    +0.000 N 
ATOM      4  H   UNL     1       5.524   5.652  16.292  0.00  0.00    +0.000 HD
ENDROOT
BRANCH   3   5
ATOM      5  N   UNL     1       7.348   5.759  15.342  0.00  0.00    +0.000 N 
ATOM      6  H   UNL     1       7.526   6.724  15.035  0.00  0.00    +0.000 HD
BRANCH   5   7
ATOM      7  C   UNL     1       7.008   4.907  14.263  0.00  0.00    +0.000 A 
ATOM      8  C   UNL     1       7.644   4.938  13.014  0.00  0.00    +0.000 A 
ATOM      9  C   UNL     1       7.152   4.187  11.939  0.00  0.00    +0.000 A 
ATOM     10  C   UNL     1       6.013   3.410  12.106  0.00  0.00    +0.000 A 
ATOM     11  F   UNL     1       5.520   2.726  11.065  0.00  0.00    +0.000 F 
ATOM     12  C   UNL     1       5.375   3.343  13.336  0.00  0.00    +0.000 A 
ATOM     13  C   UNL     1       5.875   4.086  14.409  0.00  0.00    +0.000 A 
ENDBRANCH   5   7
ENDBRANCH   3   5
BRANCH   2  14
ATOM     14  C   UNL     1       6.054   4.781  18.720  0.00  0.00    +0.000 C 
ATOM     15  O   UNL     1       6.445   5.291  19.773  0.00  0.00    +0.000 OA
BRANCH  14  16
ATOM     16  C   UNL     1       4.771   4.080  18.606  0.00  0.00    +0.000 A 
ATOM     17  C   UNL     1       4.560   2.994  17.771  0.00  0.00    +0.000 A 
ATOM     18  N   UNL     1       3.290   2.534  17.951  0.00  0.00    +0.000 N 
ATOM     19  C   UNL     1       2.634   3.313  18.876  0.00  0.00    +0.000 A 
ATOM     20  C   UNL     1       1.329   3.197  19.388  0.00  0.00    +0.000 A 
ATOM     21  C   UNL     1       0.902   4.147  20.319  0.00  0.00    +0.000 A 
ATOM     22  C   UNL     1       1.741   5.182  20.710  0.00  0.00    +0.000 A 
ATOM     23  C   UNL     1       3.038   5.282  20.194  0.00  0.00    +0.000 A 
ATOM     24  C   UNL     1       3.517   4.320  19.275  0.00  0.00    +0.000 A 
ATOM     25  H   UNL     1       2.877   1.735  17.486  0.00  0.00    +0.000 HD
ENDBRANCH  14  16
ENDBRANCH   2  14
TORSDOF 4
ENDMDL
MODEL 5
REMARK VINA RESULT:      -8.0      5.445      6.883
REMARK  Name = 
REMARK  4 active torsions:
REMARK  status: ('A' for Active; 'I' for Inactive)
REMARK    1  A    between atoms: C_2  and  C_12
REMARK    2  A    between atoms: N_3  and  N_4
REMARK    3  A    between atoms: N_4  and  C_5
REMARK    4  A    between atoms: C_12  and  C_14
REMARK                            x       y       z     vdW  Elec       q    Type
REMARK                         _______ _______ _______ _____ _____    ______ ____
ROOT
ATOM      1  O   UNL     1       6.791   7.961  16.737  0.00  0.00    +0.000 OA
ATOM      2  C   UNL     1       7.438   7.575  17.704  0.00  0.00    +0.000 C 
ATOM      3  N   UNL     1       8.349   8.367  18.389  0.00  0.00    +0.000 N 
ATOM      4  H   UNL     1       8.401   8.243  19.399  0.00  0.00    +0.000 HD
ENDROOT
BRANCH   3   5
ATOM      5  N   UNL     1       8.448   9.706  17.951  0.00  0.00    +0.000 N 
ATOM      6  H   UNL     1       8.510   9.788  16.928  0.00  0.00    +0.000 HD
BRANCH   5   7
ATOM      7  C   UNL     1       9.395  10.523  18.614  0.00  0.00    +0.000 A 
ATOM      8  C   UNL     1       9.410  10.735  20.000  0.00  0.00    +0.000 A 
ATOM      9  C   UNL     1      10.267  11.682  20.573  0.00  0.00    +0.000 A 
ATOM     10  C   UNL     1      11.106  12.432  19.760  0.00  0.00    +0.000 A 
ATOM     11  F   UNL     1      11.895  13.367  20.306  0.00  0.00    +0.000 F 
ATOM     12  C   UNL     1      11.129  12.230  18.388  0.00  0.00    +0.000 A 
ATOM     13  C   UNL     1      10.279  11.276  17.820  0.00  0.00    +0.000 A 
ENDBRANCH   5   7
ENDBRANCH   3   5
BRANCH   2  14
ATOM     14  C   UNL     1       7.299   6.151  18.239  0.00  0.00    +0.000 C 
ATOM     15  O   UNL     1       8.047   5.840  19.169  0.00  0.00    +0.000 OA
BRANCH  14  16
ATOM     16  C   UNL     1       6.333   5.217  17.650  0.00  0.00    +0.000 A 
ATOM     17  C   UNL     1       6.685   4.195  16.782  0.00  0.00    +0.000 A 
ATOM     18  N   UNL     1       5.573   3.470  16.474  0.00  0.00    +0.000 N 
ATOM     19  C   UNL     1       4.472   4.007  17.101  0.00  0.00    +0.000 A 
ATOM     20  C   UNL     1       3.133   3.578  17.093  0.00  0.00    +0.000 A 
ATOM     21  C   UNL     1       2.200   4.329  17.813  0.00  0.00    +0.000 A 
ATOM     22  C   UNL     1       2.588   5.472  18.500  0.00  0.00    +0.000 A 
ATOM     23  C   UNL     1       3.925   5.883  18.501  0.00  0.00    +0.000 A 
ATOM     24  C   UNL     1       4.904   5.131  17.812  0.00  0.00    +0.000 A 
ATOM     25  H   UNL     1       5.545   2.651  15.879  0.00  0.00    +0.000 HD
ENDBRANCH  14  16
ENDBRANCH   2  14
TORSDOF 4
ENDMDL
MODEL 6
REMARK VINA RESULT:      -8.0      1.354      1.823
REMARK  Name = 
REMARK  4 active torsions:
REMARK  status: ('A' for Active; 'I' for Inactive)
REMARK    1  A    between atoms: C_2  and  C_12
REMARK    2  A    between atoms: N_3  and  N_4
REMARK    3  A    between atoms: N_4  and  C_5
REMARK    4  A    between atoms: C_12  and  C_14
REMARK                            x       y       z     vdW  Elec       q    Type
REMARK                         _______ _______ _______ _____ _____    ______ ____
ROOT
ATOM      1  O   UNL     1       5.617   6.586  17.112  0.00  0.00    +0.000 OA
ATOM      2  C   UNL     1       6.268   5.626  17.509  0.00  0.00    +0.000 C 
ATOM      3  N   UNL     1       7.228   4.977  16.744  0.00  0.00    +0.000 N 
ATOM      4  H   UNL     1       8.055   4.637  17.233  0.00  0.00    +0.000 HD
ENDROOT
BRANCH   3   5
ATOM      5  N   UNL     1       7.479   5.535  15.472  0.00  0.00    +0.000 N 
ATOM      6  H   UNL     1       7.365   6.557  15.455  0.00  0.00    +0.000 HD
BRANCH   5   7
ATOM      7  C   UNL     1       6.853   4.906  14.368  0.00  0.00    +0.000 A 
ATOM      8  C   UNL     1       5.608   4.265  14.437  0.00  0.00    +0.000 A 
ATOM      9  C   UNL     1       5.122   3.521  13.355  0.00  0.00    +0.000 A 
ATOM     10  C   UNL     1       5.886   3.405  12.201  0.00  0.00    +0.000 A 
ATOM     11  F   UNL     1       5.438   2.658  11.183  0.00  0.00    +0.000 F 
ATOM     12  C   UNL     1       7.112   4.046  12.096  0.00  0.00    +0.000 A 
ATOM     13  C   UNL     1       7.589   4.796  13.174  0.00  0.00    +0.000 A 
ENDBRANCH   5   7
ENDBRANCH   3   5
BRANCH   2  14
ATOM     14  C   UNL     1       6.063   5.047  18.907  0.00  0.00    +0.000 C 
ATOM     15  O   UNL     1       6.824   5.457  19.787  0.00  0.00    +0.000 OA
BRANCH  14  16
ATOM     16  C   UNL     1       5.024   4.043  19.161  0.00  0.00    +0.000 A 
ATOM     17  C   UNL     1       5.219   2.916  19.944  0.00  0.00    +0.000 A 
ATOM     18  N   UNL     1       4.045   2.230  20.036  0.00  0.00    +0.000 N 
ATOM     19  C   UNL     1       3.069   2.865  19.303  0.00  0.00    +0.000 A 
ATOM     20  C   UNL     1       1.713   2.534  19.132  0.00  0.00    +0.000 A 
ATOM     21  C   UNL     1       0.938   3.353  18.307  0.00  0.00    +0.000 A 
ATOM     22  C   UNL     1       1.499   4.449  17.666  0.00  0.00    +0.000 A 
ATOM     23  C   UNL     1       2.850   4.767  17.850  0.00  0.00    +0.000 A 
ATOM     24  C   UNL     1       3.658   3.981  18.704  0.00  0.00    +0.000 A 
ATOM     25  H   UNL     1       3.894   1.380  20.568  0.00  0.00    +0.000 HD
ENDBRANCH  14  16
ENDBRANCH   2  14
TORSDOF 4
ENDMDL
MODEL 7
REMARK VINA RESULT:      -7.9      1.245      2.181
REMARK  Name = 
REMARK  4 active torsions:
REMARK  status: ('A' for Active; 'I' for Inactive)
REMARK    1  A    between atoms: C_2  and  C_12
REMARK    2  A    between atoms: N_3  and  N_4
REMARK    3  A    between atoms: N_4  and  C_5
REMARK    4  A    between atoms: C_12  and  C_14
REMARK                            x       y       z     vdW  Elec       q    Type
REMARK                         _______ _______ _______ _____ _____    ______ ____
ROOT
ATOM      1  O   UNL     1       8.387   4.097  17.573  0.00  0.00    +0.000 OA
ATOM      2  C   UNL     1       7.461   4.899  17.626  0.00  0.00    +0.000 C 
ATOM      3  N   UNL     1       7.043   5.665  16.546  0.00  0.00    +0.000 N 
ATOM      4  H   UNL     1       6.041   5.834  16.461  0.00  0.00    +0.000 HD
ENDROOT
BRANCH   3   5
ATOM      5  N   UNL     1       7.707   5.417  15.325  0.00  0.00    +0.000 N 
ATOM      6  H   UNL     1       8.252   6.225  14.996  0.00  0.00    +0.000 HD
BRANCH   5   7
ATOM      7  C   UNL     1       6.937   4.832  14.290  0.00  0.00    +0.000 A 
ATOM      8  C   UNL     1       5.660   4.284  14.481  0.00  0.00    +0.000 A 
ATOM      9  C   UNL     1       5.022   3.575  13.456  0.00  0.00    +0.000 A 
ATOM     10  C   UNL     1       5.665   3.398  12.238  0.00  0.00    +0.000 A 
ATOM     11  F   UNL     1       5.071   2.683  11.274  0.00  0.00    +0.000 F 
ATOM     12  C   UNL     1       6.919   3.947  12.013  0.00  0.00    +0.000 A 
ATOM     13  C   UNL     1       7.548   4.664  13.034  0.00  0.00    +0.000 A 
ENDBRANCH   5   7
ENDBRANCH   3   5
BRANCH   2  14
ATOM     14  C   UNL     1       6.682   5.135  18.918  0.00  0.00    +0.000 C 
ATOM     15  O   UNL     1       7.350   5.408  19.918  0.00  0.00    +0.000 OA
BRANCH  14  16
ATOM     16  C   UNL     1       5.220   5.016  18.948  0.00  0.00    +0.000 A 
ATOM     17  C   UNL     1       4.549   3.908  19.441  0.00  0.00    +0.000 A 
ATOM     18  N   UNL     1       3.207   4.142  19.391  0.00  0.00    +0.000 N 
ATOM     19  C   UNL     1       2.965   5.381  18.845  0.00  0.00    +0.000 A 
ATOM     20  C   UNL     1       1.745   6.046  18.626  0.00  0.00    +0.000 A 
ATOM     21  C   UNL     1       1.785   7.309  18.031  0.00  0.00    +0.000 A 
ATOM     22  C   UNL     1       2.994   7.878  17.655  0.00  0.00    +0.000 A 
ATOM     23  C   UNL     1       4.199   7.205  17.884  0.00  0.00    +0.000 A 
ATOM     24  C   UNL     1       4.203   5.940  18.514  0.00  0.00    +0.000 A 
ATOM     25  H   UNL     1       2.483   3.510  19.711  0.00  0.00    +0.000 HD
ENDBRANCH  14  16
ENDBRANCH   2  14
TORSDOF 4
ENDMDL
MODEL 8
REMARK VINA RESULT:      -7.8      5.794      7.982
REMARK  Name = 
REMARK  4 active torsions:
REMARK  status: ('A' for Active; 'I' for Inactive)
REMARK    1  A    between atoms: C_2  and  C_12
REMARK    2  A    between atoms: N_3  and  N_4
REMARK    3  A    between atoms: N_4  and  C_5
REMARK    4  A    between atoms: C_12  and  C_14
REMARK                            x       y       z     vdW  Elec       q    Type
REMARK                         _______ _______ _______ _____ _____    ______ ____
ROOT
ATOM      1  O   UNL     1       1.202   8.487  20.615  0.00  0.00    +0.000 OA
ATOM      2  C   UNL     1       1.630   8.587  19.471  0.00  0.00    +0.000 C 
ATOM      3  N   UNL     1       2.519   7.687  18.899  0.00  0.00    +0.000 N 
ATOM      4  H   UNL     1       2.393   7.480  17.909  0.00  0.00    +0.000 HD
ENDROOT
BRANCH   3   5
ATOM      5  N   UNL     1       2.864   6.575  19.698  0.00  0.00    +0.000 N 
ATOM      6  H   UNL     1       3.878   6.410  19.736  0.00  0.00    +0.000 HD
BRANCH   5   7
ATOM      7  C   UNL     1       2.135   5.381  19.474  0.00  0.00    +0.000 A 
ATOM      8  C   UNL     1       1.577   4.603  20.499  0.00  0.00    +0.000 A 
ATOM      9  C   UNL     1       1.013   3.352  20.224  0.00  0.00    +0.000 A 
ATOM     10  C   UNL     1       1.016   2.866  18.923  0.00  0.00    +0.000 A 
ATOM     11  F   UNL     1       0.514   1.650  18.669  0.00  0.00    +0.000 F 
ATOM     12  C   UNL     1       1.542   3.622  17.886  0.00  0.00    +0.000 A 
ATOM     13  C   UNL     1       2.095   4.876  18.162  0.00  0.00    +0.000 A 
ENDBRANCH   5   7
ENDBRANCH   3   5
BRANCH   2  14
ATOM     14  C   UNL     1       1.218   9.744  18.563  0.00  0.00    +0.000 C 
ATOM     15  O   UNL     1       1.989  10.018  17.640  0.00  0.00    +0.000 OA
BRANCH  14  16
ATOM     16  C   UNL     1      -0.023  10.487  18.808  0.00  0.00    +0.000 A 
ATOM     17  C   UNL     1      -0.178  11.405  19.836  0.00  0.00    +0.000 A 
ATOM     18  N   UNL     1      -1.416  11.968  19.746  0.00  0.00    +0.000 N 
ATOM     19  C   UNL     1      -2.106  11.421  18.689  0.00  0.00    +0.000 A 
ATOM     20  C   UNL     1      -3.395  11.714  18.209  0.00  0.00    +0.000 A 
ATOM     21  C   UNL     1      -3.867  10.986  17.113  0.00  0.00    +0.000 A 
ATOM     22  C   UNL     1      -3.088   9.995  16.532  0.00  0.00    +0.000 A 
ATOM     23  C   UNL     1      -1.806   9.719  17.020  0.00  0.00    +0.000 A 
ATOM     24  C   UNL     1      -1.281  10.457  18.105  0.00  0.00    +0.000 A 
ATOM     25  H   UNL     1      -1.786  12.688  20.356  0.00  0.00    +0.000 HD
ENDBRANCH  14  16
ENDBRANCH   2  14
TORSDOF 4
ENDMDL
MODEL 9
REMARK VINA RESULT:      -7.8      5.724      7.944
REMARK  Name = 
REMARK  4 active torsions:
REMARK  status: ('A' for Active; 'I' for Inactive)
REMARK    1  A    between atoms: C_2  and  C_12
REMARK    2  A    between atoms: N_3  and  N_4
REMARK    3  A    between atoms: N_4  and  C_5
REMARK    4  A    between atoms: C_12  and  C_14
REMARK                            x       y       z     vdW  Elec       q    Type
REMARK                         _______ _______ _______ _____ _____    ______ ____
ROOT
ATOM      1  O   UNL     1       1.442   8.472  20.663  0.00  0.00    +0.000 OA
ATOM      2  C   UNL     1       1.724   8.476  19.470  0.00  0.00    +0.000 C 
ATOM      3  N   UNL     1       2.509   7.507  18.861  0.00  0.00    +0.000 N 
ATOM      4  H   UNL     1       2.254   7.235  17.912  0.00  0.00    +0.000 HD
ENDROOT
BRANCH   3   5
ATOM      5  N   UNL     1       2.922   6.441  19.690  0.00  0.00    +0.000 N 
ATOM      6  H   UNL     1       3.941   6.412  19.825  0.00  0.00    +0.000 HD
BRANCH   5   7
ATOM      7  C   UNL     1       2.382   5.165  19.401  0.00  0.00    +0.000 A 
ATOM      8  C   UNL     1       2.554   4.504  18.176  0.00  0.00    +0.000 A 
ATOM      9  C   UNL     1       1.859   3.322  17.894  0.00  0.00    +0.000 A 
ATOM     10  C   UNL     1       0.977   2.801  18.831  0.00  0.00    +0.000 A 
ATOM     11  F   UNL     1       0.281   1.694  18.542  0.00  0.00    +0.000 F 
ATOM     12  C   UNL     1       0.802   3.421  20.060  0.00  0.00    +0.000 A 
ATOM     13  C   UNL     1       1.506   4.596  20.343  0.00  0.00    +0.000 A 
ENDBRANCH   5   7
ENDBRANCH   3   5
BRANCH   2  14
ATOM     14  C   UNL     1       1.232   9.581  18.538  0.00  0.00    +0.000 C 
ATOM     15  O   UNL     1       1.927   9.809  17.544  0.00  0.00    +0.000 OA
BRANCH  14  16
ATOM     16  C   UNL     1       0.007  10.330  18.839  0.00  0.00    +0.000 A 
ATOM     17  C   UNL     1      -0.127  11.177  19.928  0.00  0.00    +0.000 A 
ATOM     18  N   UNL     1      -1.354  11.769  19.882  0.00  0.00    +0.000 N 
ATOM     19  C   UNL     1      -2.058  11.310  18.793  0.00  0.00    +0.000 A 
ATOM     20  C   UNL     1      -3.342  11.659  18.340  0.00  0.00    +0.000 A 
ATOM     21  C   UNL     1      -3.831  11.018  17.199  0.00  0.00    +0.000 A 
ATOM     22  C   UNL     1      -3.073  10.055  16.547  0.00  0.00    +0.000 A 
ATOM     23  C   UNL     1      -1.795   9.721  17.009  0.00  0.00    +0.000 A 
ATOM     24  C   UNL     1      -1.253  10.372  18.141  0.00  0.00    +0.000 A 
ATOM     25  H   UNL     1      -1.707  12.452  20.541  0.00  0.00    +0.000 HD
ENDBRANCH  14  16
ENDBRANCH   2  14
TORSDOF 4
ENDMDL
