MODEL 1
REMARK VINA RESULT:      -6.9      0.000      0.000
REMARK  Name = 
REMARK  5 active torsions:
REMARK  status: ('A' for Active; 'I' for Inactive)
REMARK    1  A    between atoms: C_6  and  C_7
REMARK    2  A    between atoms: C_7  and  O_8
REMARK    3  A    between atoms: O_8  and  C_9
REMARK    4  A    between atoms: C_18  and  C_19
REMARK    5  A    between atoms: C_19  and  N_20
REMARK                            x       y       z     vdW  Elec       q    Type
REMARK                         _______ _______ _______ _____ _____    ______ ____
ROOT
ATOM      1  C   UNL     1       2.311   7.238  20.118  0.00  0.00    +0.000 C 
ATOM      2  C   UNL     1       1.429   8.457  20.299  0.00  0.00    +0.000 A 
ATOM      3  C   UNL     1       0.765   8.785  21.484  0.00  0.00    +0.000 A 
ATOM      4  C   UNL     1      -0.050   9.920  21.517  0.00  0.00    +0.000 A 
ATOM      5 BR   UNL     1      -0.958  10.374  23.111  0.00  0.00    +0.000 Br
ATOM      6  C   UNL     1      -0.211  10.723  20.383  0.00  0.00    +0.000 A 
ATOM      7  C   UNL     1       0.462  10.400  19.204  0.00  0.00    +0.000 A 
ATOM      8  C   UNL     1       1.281   9.278  19.179  0.00  0.00    +0.000 A 
ATOM      9  S   UNL     1       2.195   8.733  17.778  0.00  0.00    +0.000 S 
ATOM     10  C   UNL     1       2.869   7.271  18.663  0.00  0.00    +0.000 C 
ENDROOT
BRANCH   1  11
ATOM     11  O   UNL     1       1.528   6.099  20.453  0.00  0.00    +0.000 OA
BRANCH  11  12
ATOM     12  C   UNL     1       2.259   4.982  20.954  0.00  0.00    +0.000 C 
BRANCH  12  18
ATOM     13 CL   UNL     1       4.640   2.883  20.011  0.00  0.00    +0.000 Cl
ATOM     14  C   UNL     1       2.948   2.861  19.695  0.00  0.00    +0.000 A 
ATOM     15  S   UNL     1       2.318   1.607  18.747  0.00  0.00    +0.000 S 
ATOM     16  C   UNL     1       0.737   2.252  18.857  0.00  0.00    +0.000 A 
ATOM     17  C   UNL     1       0.704   3.402  19.619  0.00  0.00    +0.000 A 
ATOM     18  C   UNL     1       2.006   3.770  20.118  0.00  0.00    +0.000 A 
ENDBRANCH  12  18
ENDBRANCH  11  12
ENDBRANCH   1  11
BRANCH  10  19
ATOM     19  C   UNL     1       2.783   6.012  17.791  0.00  0.00    +0.000 C 
BRANCH  19  20
ATOM     20  N   UNL     1       3.974   5.298  17.381  0.00  0.00    +0.000 N 
ATOM     21  C   UNL     1       4.114   4.206  16.576  0.00  0.00    +0.000 A 
ATOM     22  C   UNL     1       5.470   4.023  16.439  0.00  0.00    +0.000 A 
ATOM     23  N   UNL     1       6.160   4.939  17.184  0.00  0.00    +0.000 NA
ATOM     24  C   UNL     1       5.239   5.689  17.743  0.00  0.00    +0.000 A 
ENDBRANCH  19  20
ENDBRANCH  10  19
TORSDOF 5
ENDMDL
MODEL 2
REMARK VINA RESULT:      -6.8      1.214      1.555
REMARK  Name = 
REMARK  5 active torsions:
REMARK  status: ('A' for Active; 'I' for Inactive)
REMARK    1  A    between atoms: C_6  and  C_7
REMARK    2  A    between atoms: C_7  and  O_8
REMARK    3  A    between atoms: O_8  and  C_9
REMARK    4  A    between atoms: C_18  and  C_19
REMARK    5  A    between atoms: C_19  and  N_20
REMARK                            x       y       z     vdW  Elec       q    Type
REMARK                         _______ _______ _______ _____ _____    ______ ____
ROOT
ATOM      1  C   UNL     1       2.570   6.684  20.005  0.00  0.00    +0.000 C 
ATOM      2  C   UNL     1       1.746   7.936  20.228  0.00  0.00    +0.000 A 
ATOM      3  C   UNL     1       1.037   8.220  21.398  0.00  0.00    +0.000 A 
ATOM      4  C   UNL     1       0.282   9.395  21.470  0.00  0.00    +0.000 A 
ATOM      5 BR   UNL     1      -0.686   9.789  23.045  0.00  0.00    +0.000 Br
ATOM      6  C   UNL     1       0.228  10.282  20.390  0.00  0.00    +0.000 A 
ATOM      7  C   UNL     1       0.946  10.002  19.227  0.00  0.00    +0.000 A 
ATOM      8  C   UNL     1       1.703   8.839  19.163  0.00  0.00    +0.000 A 
ATOM      9  S   UNL     1       2.662   8.341  17.776  0.00  0.00    +0.000 S 
ATOM     10  C   UNL     1       3.208   6.785  18.587  0.00  0.00    +0.000 C 
ENDROOT
BRANCH   1  11
ATOM     11  O   UNL     1       1.709   5.572  20.217  0.00  0.00    +0.000 OA
BRANCH  11  12
ATOM     12  C   UNL     1       2.219   4.563  21.086  0.00  0.00    +0.000 C 
BRANCH  12  18
ATOM     13 CL   UNL     1       0.485   2.607  19.054  0.00  0.00    +0.000 Cl
ATOM     14  C   UNL     1       2.162   2.602  19.440  0.00  0.00    +0.000 A 
ATOM     15  S   UNL     1       3.155   1.435  18.719  0.00  0.00    +0.000 S 
ATOM     16  C   UNL     1       4.530   2.016  19.555  0.00  0.00    +0.000 A 
ATOM     17  C   UNL     1       4.222   3.094  20.360  0.00  0.00    +0.000 A 
ATOM     18  C   UNL     1       2.825   3.447  20.300  0.00  0.00    +0.000 A 
ENDBRANCH  12  18
ENDBRANCH  11  12
ENDBRANCH   1  11
BRANCH  10  19
ATOM     19  C   UNL     1       3.103   5.596  17.623  0.00  0.00    +0.000 C 
BRANCH  19  20
ATOM     20  N   UNL     1       4.258   5.112  16.896  0.00  0.00    +0.000 N 
ATOM     21  C   UNL     1       4.538   3.867  16.416  0.00  0.00    +0.000 A 
ATOM     22  C   UNL     1       5.713   4.002  15.714  0.00  0.00    +0.000 A 
ATOM     23  N   UNL     1       6.185   5.282  15.801  0.00  0.00    +0.000 NA
ATOM     24  C   UNL     1       5.296   5.926  16.519  0.00  0.00    +0.000 A 
ENDBRANCH  19  20
ENDBRANCH  10  19
TORSDOF 5
ENDMDL
MODEL 3
REMARK VINA RESULT:      -6.7      2.760      4.088
REMARK  Name = 
REMARK  5 active torsions:
REMARK  status: ('A' for Active; 'I' for Inactive)
REMARK    1  A    between atoms: C_6  and  C_7
REMARK    2  A    between atoms: C_7  and  O_8
REMARK    3  A    between atoms: O_8  and  C_9
REMARK    4  A    between atoms: C_18  and  C_19
REMARK    5  A    between atoms: C_19  and  N_20
REMARK                            x       y       z     vdW  Elec       q    Type
REMARK                         _______ _______ _______ _____ _____    ______ ____
ROOT
ATOM      1  C   UNL     1       2.575   7.204  18.179  0.00  0.00    +0.000 C 
ATOM      2  C   UNL     1       1.982   8.416  18.869  0.00  0.00    +0.000 A 
ATOM      3  C   UNL     1       1.956   9.703  18.326  0.00  0.00    +0.000 A 
ATOM      4  C   UNL     1       1.412  10.749  19.077  0.00  0.00    +0.000 A 
ATOM      5 BR   UNL     1       1.374  12.496  18.356  0.00  0.00    +0.000 Br
ATOM      6  C   UNL     1       0.901  10.524  20.359  0.00  0.00    +0.000 A 
ATOM      7  C   UNL     1       0.918   9.236  20.895  0.00  0.00    +0.000 A 
ATOM      8  C   UNL     1       1.449   8.197  20.142  0.00  0.00    +0.000 A 
ATOM      9  S   UNL     1       1.547   6.522  20.669  0.00  0.00    +0.000 S 
ATOM     10  C   UNL     1       2.371   5.978  19.120  0.00  0.00    +0.000 C 
ENDROOT
BRANCH   1  11
ATOM     11  O   UNL     1       3.925   7.520  17.861  0.00  0.00    +0.000 OA
BRANCH  11  12
ATOM     12  C   UNL     1       4.317   7.238  16.520  0.00  0.00    +0.000 C 
BRANCH  12  18
ATOM     13 CL   UNL     1       7.417   7.403  17.673  0.00  0.00    +0.000 Cl
ATOM     14  C   UNL     1       6.570   6.095  16.943  0.00  0.00    +0.000 A 
ATOM     15  S   UNL     1       7.381   4.624  16.731  0.00  0.00    +0.000 S 
ATOM     16  C   UNL     1       6.011   3.919  15.987  0.00  0.00    +0.000 A 
ATOM     17  C   UNL     1       4.953   4.802  15.919  0.00  0.00    +0.000 A 
ATOM     18  C   UNL     1       5.274   6.091  16.481  0.00  0.00    +0.000 A 
ENDBRANCH  12  18
ENDBRANCH  11  12
ENDBRANCH   1  11
BRANCH  10  19
ATOM     19  C   UNL     1       3.554   5.050  19.422  0.00  0.00    +0.000 C 
BRANCH  19  20
ATOM     20  N   UNL     1       3.552   3.666  18.999  0.00  0.00    +0.000 N 
ATOM     21  C   UNL     1       4.298   2.610  19.434  0.00  0.00    +0.000 A 
ATOM     22  C   UNL     1       3.804   1.514  18.767  0.00  0.00    +0.000 A 
ATOM     23  N   UNL     1       2.817   1.881  17.895  0.00  0.00    +0.000 NA
ATOM     24  C   UNL     1       2.688   3.178  18.051  0.00  0.00    +0.000 A 
ENDBRANCH  19  20
ENDBRANCH  10  19
TORSDOF 5
ENDMDL
MODEL 4
REMARK VINA RESULT:      -6.5      3.791      6.444
REMARK  Name = 
REMARK  5 active torsions:
REMARK  status: ('A' for Active; 'I' for Inactive)
REMARK    1  A    between atoms: C_6  and  C_7
REMARK    2  A    between atoms: C_7  and  O_8
REMARK    3  A    between atoms: O_8  and  C_9
REMARK    4  A    between atoms: C_18  and  C_19
REMARK    5  A    between atoms: C_19  and  N_20
REMARK                            x       y       z     vdW  Elec       q    Type
REMARK                         _______ _______ _______ _____ _____    ______ ____
ROOT
ATOM      1  C   UNL     1       3.169   6.625  19.133  0.00  0.00    +0.000 C 
ATOM      2  C   UNL     1       2.749   5.213  19.489  0.00  0.00    +0.000 A 
ATOM      3  C   UNL     1       3.365   4.057  19.001  0.00  0.00    +0.000 A 
ATOM      4  C   UNL     1       2.862   2.807  19.375  0.00  0.00    +0.000 A 
ATOM      5 BR   UNL     1       3.682   1.235  18.720  0.00  0.00    +0.000 Br
ATOM      6  C   UNL     1       1.755   2.702  20.223  0.00  0.00    +0.000 A 
ATOM      7  C   UNL     1       1.149   3.857  20.718  0.00  0.00    +0.000 A 
ATOM      8  C   UNL     1       1.658   5.097  20.353  0.00  0.00    +0.000 A 
ATOM      9  S   UNL     1       1.012   6.644  20.885  0.00  0.00    +0.000 S 
ATOM     10  C   UNL     1       2.239   7.604  19.911  0.00  0.00    +0.000 C 
ENDROOT
BRANCH   1  11
ATOM     11  O   UNL     1       3.128   6.731  17.715  0.00  0.00    +0.000 OA
BRANCH  11  12
ATOM     12  C   UNL     1       4.319   7.225  17.106  0.00  0.00    +0.000 C 
BRANCH  12  18
ATOM     13 CL   UNL     1       7.556   7.232  17.802  0.00  0.00    +0.000 Cl
ATOM     14  C   UNL     1       6.589   6.042  17.021  0.00  0.00    +0.000 A 
ATOM     15  S   UNL     1       7.334   4.621  16.478  0.00  0.00    +0.000 S 
ATOM     16  C   UNL     1       5.858   4.028  15.850  0.00  0.00    +0.000 A 
ATOM     17  C   UNL     1       4.817   4.908  16.069  0.00  0.00    +0.000 A 
ATOM     18  C   UNL     1       5.239   6.101  16.760  0.00  0.00    +0.000 A 
ENDBRANCH  12  18
ENDBRANCH  11  12
ENDBRANCH   1  11
BRANCH  10  19
ATOM     19  C   UNL     1       1.564   8.762  19.164  0.00  0.00    +0.000 C 
BRANCH  19  20
ATOM     20  N   UNL     1       0.724   9.716  19.857  0.00  0.00    +0.000 N 
ATOM     21  C   UNL     1       0.908  10.349  21.050  0.00  0.00    +0.000 A 
ATOM     22  C   UNL     1      -0.145  11.225  21.166  0.00  0.00    +0.000 A 
ATOM     23  N   UNL     1      -0.997  11.103  20.103  0.00  0.00    +0.000 NA
ATOM     24  C   UNL     1      -0.454  10.188  19.334  0.00  0.00    +0.000 A 
ENDBRANCH  19  20
ENDBRANCH  10  19
TORSDOF 5
ENDMDL
MODEL 5
REMARK VINA RESULT:      -6.5      4.209      7.318
REMARK  Name = 
REMARK  5 active torsions:
REMARK  status: ('A' for Active; 'I' for Inactive)
REMARK    1  A    between atoms: C_6  and  C_7
REMARK    2  A    between atoms: C_7  and  O_8
REMARK    3  A    between atoms: O_8  and  C_9
REMARK    4  A    between atoms: C_18  and  C_19
REMARK    5  A    between atoms: C_19  and  N_20
REMARK                            x       y       z     vdW  Elec       q    Type
REMARK                         _______ _______ _______ _____ _____    ______ ____
ROOT
ATOM      1  C   UNL     1       2.868   7.388  18.959  0.00  0.00    +0.000 C 
ATOM      2  C   UNL     1       3.500   6.192  18.276  0.00  0.00    +0.000 A 
ATOM      3  C   UNL     1       4.231   6.255  17.085  0.00  0.00    +0.000 A 
ATOM      4  C   UNL     1       4.735   5.074  16.533  0.00  0.00    +0.000 A 
ATOM      5 BR   UNL     1       5.721   5.142  14.922  0.00  0.00    +0.000 Br
ATOM      6  C   UNL     1       4.516   3.839  17.151  0.00  0.00    +0.000 A 
ATOM      7  C   UNL     1       3.796   3.780  18.345  0.00  0.00    +0.000 A 
ATOM      8  C   UNL     1       3.305   4.957  18.898  0.00  0.00    +0.000 A 
ATOM      9  S   UNL     1       2.381   5.056  20.391  0.00  0.00    +0.000 S 
ATOM     10  C   UNL     1       2.177   6.878  20.260  0.00  0.00    +0.000 C 
ENDROOT
BRANCH   1  11
ATOM     11  O   UNL     1       2.012   8.011  18.009  0.00  0.00    +0.000 OA
BRANCH  11  12
ATOM     12  C   UNL     1       2.078   9.435  17.970  0.00  0.00    +0.000 C 
BRANCH  12  18
ATOM     13 CL   UNL     1       1.668  11.977  20.051  0.00  0.00    +0.000 Cl
ATOM     14  C   UNL     1       0.510  11.086  19.141  0.00  0.00    +0.000 A 
ATOM     15  S   UNL     1      -1.126  11.502  19.285  0.00  0.00    +0.000 S 
ATOM     16  C   UNL     1      -1.587  10.258  18.205  0.00  0.00    +0.000 A 
ATOM     17  C   UNL     1      -0.497   9.551  17.741  0.00  0.00    +0.000 A 
ATOM     18  C   UNL     1       0.747  10.032  18.289  0.00  0.00    +0.000 A 
ENDBRANCH  12  18
ENDBRANCH  11  12
ENDBRANCH   1  11
BRANCH  10  19
ATOM     19  C   UNL     1       0.732   7.293  20.563  0.00  0.00    +0.000 C 
BRANCH  19  20
ATOM     20  N   UNL     1       0.434   8.335  21.522  0.00  0.00    +0.000 N 
ATOM     21  C   UNL     1      -0.765   8.804  21.969  0.00  0.00    +0.000 A 
ATOM     22  C   UNL     1      -0.459   9.714  22.954  0.00  0.00    +0.000 A 
ATOM     23  N   UNL     1       0.895   9.853  23.080  0.00  0.00    +0.000 NA
ATOM     24  C   UNL     1       1.408   9.018  22.207  0.00  0.00    +0.000 A 
ENDBRANCH  19  20
ENDBRANCH  10  19
TORSDOF 5
ENDMDL
MODEL 6
REMARK VINA RESULT:      -6.4      2.856      4.088
REMARK  Name = 
REMARK  5 active torsions:
REMARK  status: ('A' for Active; 'I' for Inactive)
REMARK    1  A    between atoms: C_6  and  C_7
REMARK    2  A    between atoms: C_7  and  O_8
REMARK    3  A    between atoms: O_8  and  C_9
REMARK    4  A    between atoms: C_18  and  C_19
REMARK    5  A    between atoms: C_19  and  N_20
REMARK                            x       y       z     vdW  Elec       q    Type
REMARK                         _______ _______ _______ _____ _____    ______ ____
ROOT
ATOM      1  C   UNL     1       4.490   4.432  17.528  0.00  0.00    +0.000 C 
ATOM      2  C   UNL     1       3.778   5.687  17.991  0.00  0.00    +0.000 A 
ATOM      3  C   UNL     1       2.903   5.745  19.079  0.00  0.00    +0.000 A 
ATOM      4  C   UNL     1       2.278   6.957  19.387  0.00  0.00    +0.000 A 
ATOM      5 BR   UNL     1       1.088   7.049  20.853  0.00  0.00    +0.000 Br
ATOM      6  C   UNL     1       2.515   8.103  18.621  0.00  0.00    +0.000 A 
ATOM      7  C   UNL     1       3.398   8.045  17.542  0.00  0.00    +0.000 A 
ATOM      8  C   UNL     1       4.026   6.842  17.246  0.00  0.00    +0.000 A 
ATOM      9  S   UNL     1       5.161   6.600  15.925  0.00  0.00    +0.000 S 
ATOM     10  C   UNL     1       5.381   4.817  16.308  0.00  0.00    +0.000 C 
ENDROOT
BRANCH   1  11
ATOM     11  O   UNL     1       3.491   3.451  17.276  0.00  0.00    +0.000 OA
BRANCH  11  12
ATOM     12  C   UNL     1       3.639   2.230  17.999  0.00  0.00    +0.000 C 
BRANCH  12  18
ATOM     13 CL   UNL     1       0.388   2.494  18.569  0.00  0.00    +0.000 Cl
ATOM     14  C   UNL     1       1.712   2.465  19.669  0.00  0.00    +0.000 A 
ATOM     15  S   UNL     1       1.390   2.600  21.326  0.00  0.00    +0.000 S 
ATOM     16  C   UNL     1       3.056   2.527  21.706  0.00  0.00    +0.000 A 
ATOM     17  C   UNL     1       3.834   2.390  20.575  0.00  0.00    +0.000 A 
ATOM     18  C   UNL     1       3.049   2.353  19.366  0.00  0.00    +0.000 A 
ENDBRANCH  12  18
ENDBRANCH  11  12
ENDBRANCH   1  11
BRANCH  10  19
ATOM     19  C   UNL     1       5.326   3.968  15.032  0.00  0.00    +0.000 C 
BRANCH  19  20
ATOM     20  N   UNL     1       6.242   4.198  13.935  0.00  0.00    +0.000 N 
ATOM     21  C   UNL     1       6.263   3.671  12.678  0.00  0.00    +0.000 A 
ATOM     22  C   UNL     1       7.281   4.323  12.023  0.00  0.00    +0.000 A 
ATOM     23  N   UNL     1       7.919   5.192  12.864  0.00  0.00    +0.000 NA
ATOM     24  C   UNL     1       7.279   5.095  14.006  0.00  0.00    +0.000 A 
ENDBRANCH  19  20
ENDBRANCH  10  19
TORSDOF 5
ENDMDL
MODEL 7
REMARK VINA RESULT:      -6.3      2.653      4.128
REMARK  Name = 
REMARK  5 active torsions:
REMARK  status: ('A' for Active; 'I' for Inactive)
REMARK    1  A    between atoms: C_6  and  C_7
REMARK    2  A    between atoms: C_7  and  O_8
REMARK    3  A    between atoms: O_8  and  C_9
REMARK    4  A    between atoms: C_18  and  C_19
REMARK    5  A    between atoms: C_19  and  N_20
REMARK                            x       y       z     vdW  Elec       q    Type
REMARK                         _______ _______ _______ _____ _____    ______ ____
ROOT
ATOM      1  C   UNL     1       2.394   7.411  18.246  0.00  0.00    +0.000 C 
ATOM      2  C   UNL     1       1.831   8.641  18.927  0.00  0.00    +0.000 A 
ATOM      3  C   UNL     1       1.781   9.913  18.351  0.00  0.00    +0.000 A 
ATOM      4  C   UNL     1       1.269  10.979  19.096  0.00  0.00    +0.000 A 
ATOM      5 BR   UNL     1       1.200  12.707  18.332  0.00  0.00    +0.000 Br
ATOM      6  C   UNL     1       0.811  10.789  20.404  0.00  0.00    +0.000 A 
ATOM      7  C   UNL     1       0.851   9.515  20.973  0.00  0.00    +0.000 A 
ATOM      8  C   UNL     1       1.351   8.456  20.226  0.00  0.00    +0.000 A 
ATOM      9  S   UNL     1       1.470   6.795  20.793  0.00  0.00    +0.000 S 
ATOM     10  C   UNL     1       2.230   6.210  19.226  0.00  0.00    +0.000 C 
ENDROOT
BRANCH   1  11
ATOM     11  O   UNL     1       3.730   7.717  17.864  0.00  0.00    +0.000 OA
BRANCH  11  12
ATOM     12  C   UNL     1       4.218   7.006  16.728  0.00  0.00    +0.000 C 
BRANCH  12  18
ATOM     13 CL   UNL     1       5.010   3.967  15.680  0.00  0.00    +0.000 Cl
ATOM     14  C   UNL     1       5.905   5.082  16.638  0.00  0.00    +0.000 A 
ATOM     15  S   UNL     1       7.442   4.627  17.186  0.00  0.00    +0.000 S 
ATOM     16  C   UNL     1       7.642   6.113  18.010  0.00  0.00    +0.000 A 
ATOM     17  C   UNL     1       6.548   6.939  17.851  0.00  0.00    +0.000 A 
ATOM     18  C   UNL     1       5.516   6.338  17.042  0.00  0.00    +0.000 A 
ENDBRANCH  12  18
ENDBRANCH  11  12
ENDBRANCH   1  11
BRANCH  10  19
ATOM     19  C   UNL     1       3.425   5.290  19.503  0.00  0.00    +0.000 C 
BRANCH  19  20
ATOM     20  N   UNL     1       3.439   3.916  19.047  0.00  0.00    +0.000 N 
ATOM     21  C   UNL     1       4.237   2.874  19.414  0.00  0.00    +0.000 A 
ATOM     22  C   UNL     1       3.739   1.778  18.748  0.00  0.00    +0.000 A 
ATOM     23  N   UNL     1       2.695   2.136  17.941  0.00  0.00    +0.000 NA
ATOM     24  C   UNL     1       2.538   3.425  18.136  0.00  0.00    +0.000 A 
ENDBRANCH  19  20
ENDBRANCH  10  19
TORSDOF 5
ENDMDL
MODEL 8
REMARK VINA RESULT:      -6.2      3.227      5.866
REMARK  Name = 
REMARK  5 active torsions:
REMARK  status: ('A' for Active; 'I' for Inactive)
REMARK    1  A    between atoms: C_6  and  C_7
REMARK    2  A    between atoms: C_7  and  O_8
REMARK    3  A    between atoms: O_8  and  C_9
REMARK    4  A    between atoms: C_18  and  C_19
REMARK    5  A    between atoms: C_19  and  N_20
REMARK                            x       y       z     vdW  Elec       q    Type
REMARK                         _______ _______ _______ _____ _____    ______ ____
ROOT
ATOM      1  C   UNL     1       3.341   5.733  17.680  0.00  0.00    +0.000 C 
ATOM      2  C   UNL     1       3.328   4.499  18.560  0.00  0.00    +0.000 A 
ATOM      3  C   UNL     1       2.415   4.272  19.594  0.00  0.00    +0.000 A 
ATOM      4  C   UNL     1       2.529   3.108  20.360  0.00  0.00    +0.000 A 
ATOM      5 BR   UNL     1       1.304   2.790  21.764  0.00  0.00    +0.000 Br
ATOM      6  C   UNL     1       3.541   2.177  20.107  0.00  0.00    +0.000 A 
ATOM      7  C   UNL     1       4.444   2.400  19.067  0.00  0.00    +0.000 A 
ATOM      8  C   UNL     1       4.322   3.552  18.300  0.00  0.00    +0.000 A 
ATOM      9  S   UNL     1       5.375   3.983  16.959  0.00  0.00    +0.000 S 
ATOM     10  C   UNL     1       4.497   5.567  16.649  0.00  0.00    +0.000 C 
ENDROOT
BRANCH   1  11
ATOM     11  O   UNL     1       3.439   6.861  18.541  0.00  0.00    +0.000 OA
BRANCH  11  12
ATOM     12  C   UNL     1       2.618   7.973  18.187  0.00  0.00    +0.000 C 
BRANCH  12  18
ATOM     13 CL   UNL     1       0.728  10.691  18.171  0.00  0.00    +0.000 Cl
ATOM     14  C   UNL     1       0.987   9.523  19.409  0.00  0.00    +0.000 A 
ATOM     15  S   UNL     1       0.198   9.728  20.893  0.00  0.00    +0.000 S 
ATOM     16  C   UNL     1       0.926   8.318  21.531  0.00  0.00    +0.000 A 
ATOM     17  C   UNL     1       1.749   7.704  20.609  0.00  0.00    +0.000 A 
ATOM     18  C   UNL     1       1.792   8.409  19.352  0.00  0.00    +0.000 A 
ENDBRANCH  12  18
ENDBRANCH  11  12
ENDBRANCH   1  11
BRANCH  10  19
ATOM     19  C   UNL     1       5.492   6.715  16.435  0.00  0.00    +0.000 C 
BRANCH  19  20
ATOM     20  N   UNL     1       6.580   6.950  17.361  0.00  0.00    +0.000 N 
ATOM     21  C   UNL     1       7.103   6.145  18.328  0.00  0.00    +0.000 A 
ATOM     22  C   UNL     1       8.189   6.827  18.825  0.00  0.00    +0.000 A 
ATOM     23  N   UNL     1       8.307   8.051  18.226  0.00  0.00    +0.000 NA
ATOM     24  C   UNL     1       7.327   8.101  17.355  0.00  0.00    +0.000 A 
ENDBRANCH  19  20
ENDBRANCH  10  19
TORSDOF 5
ENDMDL
MODEL 9
REMARK VINA RESULT:      -6.1      2.716      3.956
REMARK  Name = 
REMARK  5 active torsions:
REMARK  status: ('A' for Active; 'I' for Inactive)
REMARK    1  A    between atoms: C_6  and  C_7
REMARK    2  A    between atoms: C_7  and  O_8
REMARK    3  A    between atoms: O_8  and  C_9
REMARK    4  A    between atoms: C_18  and  C_19
REMARK    5  A    between atoms: C_19  and  N_20
REMARK                            x       y       z     vdW  Elec       q    Type
REMARK                         _______ _______ _______ _____ _____    ______ ____
ROOT
ATOM      1  C   UNL     1       4.306   4.421  17.444  0.00  0.00    +0.000 C 
ATOM      2  C   UNL     1       3.693   5.726  17.911  0.00  0.00    +0.000 A 
ATOM      3  C   UNL     1       2.791   5.843  18.973  0.00  0.00    +0.000 A 
ATOM      4  C   UNL     1       2.267   7.101  19.286  0.00  0.00    +0.000 A 
ATOM      5 BR   UNL     1       1.044   7.273  20.716  0.00  0.00    +0.000 Br
ATOM      6  C   UNL     1       2.629   8.234  18.552  0.00  0.00    +0.000 A 
ATOM      7  C   UNL     1       3.538   8.117  17.499  0.00  0.00    +0.000 A 
ATOM      8  C   UNL     1       4.066   6.868  17.198  0.00  0.00    +0.000 A 
ATOM      9  S   UNL     1       5.217   6.549  15.907  0.00  0.00    +0.000 S 
ATOM     10  C   UNL     1       5.266   4.747  16.261  0.00  0.00    +0.000 C 
ENDROOT
BRANCH   1  11
ATOM     11  O   UNL     1       3.232   3.538  17.143  0.00  0.00    +0.000 OA
BRANCH  11  12
ATOM     12  C   UNL     1       3.211   2.325  17.893  0.00  0.00    +0.000 C 
BRANCH  12  18
ATOM     13 CL   UNL     1       4.799   2.001  20.781  0.00  0.00    +0.000 Cl
ATOM     14  C   UNL     1       3.163   2.422  20.452  0.00  0.00    +0.000 A 
ATOM     15  S   UNL     1       2.126   2.721  21.757  0.00  0.00    +0.000 S 
ATOM     16  C   UNL     1       0.807   3.011  20.707  0.00  0.00    +0.000 A 
ATOM     17  C   UNL     1       1.170   2.888  19.382  0.00  0.00    +0.000 A 
ATOM     18  C   UNL     1       2.561   2.539  19.221  0.00  0.00    +0.000 A 
ENDBRANCH  12  18
ENDBRANCH  11  12
ENDBRANCH   1  11
BRANCH  10  19
ATOM     19  C   UNL     1       5.177   3.929  14.966  0.00  0.00    +0.000 C 
BRANCH  19  20
ATOM     20  N   UNL     1       6.089   4.161  13.866  0.00  0.00    +0.000 N 
ATOM     21  C   UNL     1       7.194   4.955  13.790  0.00  0.00    +0.000 A 
ATOM     22  C   UNL     1       7.739   4.707  12.552  0.00  0.00    +0.000 A 
ATOM     23  N   UNL     1       6.965   3.826  11.849  0.00  0.00    +0.000 NA
ATOM     24  C   UNL     1       5.978   3.517  12.659  0.00  0.00    +0.000 A 
ENDBRANCH  19  20
ENDBRANCH  10  19
TORSDOF 5
ENDMDL
