MODEL 1
REMARK VINA RESULT:      -7.3      0.000      0.000
REMARK  Name = 
REMARK  8 active torsions:
REMARK  status: ('A' for Active; 'I' for Inactive)
REMARK    1  A    between atoms: C_1  and  C_2
REMARK    2  A    between atoms: C_2  and  N_3
REMARK    3  A    between atoms: N_3  and  C_4
REMARK    4  A    between atoms: N_3  and  C_11
REMARK    5  A    between atoms: N_7  and  C_8
REMARK    6  A    between atoms: C_14  and  C_16
REMARK    7  A    between atoms: C_16  and  O_17
REMARK    8  A    between atoms: O_17  and  C_18
REMARK                            x       y       z     vdW  Elec       q    Type
REMARK                         _______ _______ _______ _____ _____    ______ ____
ROOT
ATOM      1  C   UNL     1       5.262   5.938  17.551  0.00  0.00    +0.000 C 
ATOM      2  C   UNL     1       6.734   5.617  17.913  0.00  0.00    +0.000 C 
ATOM      3  N   UNL     1       7.022   6.990  17.572  0.00  0.00    +0.000 N 
ATOM      4  C   UNL     1       7.969   7.802  18.127  0.00  0.00    +0.000 C 
ATOM      5  O   UNL     1       8.722   7.416  19.017  0.00  0.00    +0.000 OA
ATOM      6  C   UNL     1       5.862   7.115  16.711  0.00  0.00    +0.000 C 
ENDROOT
BRANCH   1   7
ATOM      7  N   UNL     1       4.609   4.900  16.689  0.00  0.00    +0.000 NA
BRANCH   7   8
ATOM      8  C   UNL     1       3.591   4.146  17.518  0.00  0.00    +0.000 C 
ATOM      9  C   UNL     1       2.421   4.982  18.100  0.00  0.00    +0.000 C 
ATOM     10  C   UNL     1       1.451   4.113  18.910  0.00  0.00    +0.000 C 
ATOM     11  N   UNL     1       2.155   3.406  19.984  0.00  0.00    +0.000 NA
ATOM     12  C   UNL     1       1.222   2.652  20.820  0.00  0.00    +0.000 C 
ATOM     13  C   UNL     1       3.188   2.520  19.435  0.00  0.00    +0.000 C 
ATOM     14  C   UNL     1       4.236   3.323  18.655  0.00  0.00    +0.000 C 
ENDBRANCH   7   8
BRANCH   7  16
ATOM     15  C   UNL     1       5.800   4.038  14.576  0.00  0.00    +0.000 C 
ATOM     16  C   UNL     1       5.601   3.962  16.089  0.00  0.00    +0.000 C 
ENDBRANCH   7  16
ENDBRANCH   1   7
BRANCH   4  17
ATOM     17  C   UNL     1       8.055   9.212  17.577  0.00  0.00    +0.000 C 
BRANCH  17  18
ATOM     18  O   UNL     1       8.522  10.056  18.620  0.00  0.00    +0.000 OA
BRANCH  18  19
ATOM     19  C   UNL     1       9.363  11.070  18.259  0.00  0.00    +0.000 A 
ATOM     20  C   UNL     1      10.759  11.011  18.258  0.00  0.00    +0.000 A 
ATOM     21  C   UNL     1      11.502  12.126  17.869  0.00  0.00    +0.000 A 
ATOM     22  C   UNL     1      10.854  13.293  17.484  0.00  0.00    +0.000 A 
ATOM     23  F   UNL     1      11.577  14.356  17.104  0.00  0.00    +0.000 F 
ATOM     24  C   UNL     1       9.467  13.371  17.483  0.00  0.00    +0.000 A 
ATOM     25  C   UNL     1       8.725  12.256  17.870  0.00  0.00    +0.000 A 
ENDBRANCH  18  19
ENDBRANCH  17  18
ENDBRANCH   4  17
TORSDOF 6
ENDMDL
MODEL 2
REMARK VINA RESULT:      -7.2      6.070      8.675
REMARK  Name = 
REMARK  8 active torsions:
REMARK  status: ('A' for Active; 'I' for Inactive)
REMARK    1  A    between atoms: C_1  and  C_2
REMARK    2  A    between atoms: C_2  and  N_3
REMARK    3  A    between atoms: N_3  and  C_4
REMARK    4  A    between atoms: N_3  and  C_11
REMARK    5  A    between atoms: N_7  and  C_8
REMARK    6  A    between atoms: C_14  and  C_16
REMARK    7  A    between atoms: C_16  and  O_17
REMARK    8  A    between atoms: O_17  and  C_18
REMARK                            x       y       z     vdW  Elec       q    Type
REMARK                         _______ _______ _______ _____ _____    ______ ____
ROOT
ATOM      1  C   UNL     1       1.954   6.172  19.789  0.00  0.00    +0.000 C 
ATOM      2  C   UNL     1       1.703   7.093  21.010  0.00  0.00    +0.000 C 
ATOM      3  N   UNL     1       1.604   8.174  20.059  0.00  0.00    +0.000 N 
ATOM      4  C   UNL     1       0.824   9.291  20.149  0.00  0.00    +0.000 C 
ATOM      5  O   UNL     1       0.093   9.502  21.113  0.00  0.00    +0.000 OA
ATOM      6  C   UNL     1       2.389   7.484  19.054  0.00  0.00    +0.000 C 
ENDROOT
BRANCH   1   7
ATOM      7  N   UNL     1       3.095   5.218  19.973  0.00  0.00    +0.000 NA
BRANCH   7   8
ATOM      8  C   UNL     1       4.016   5.320  18.775  0.00  0.00    +0.000 C 
ATOM      9  C   UNL     1       3.748   4.328  17.613  0.00  0.00    +0.000 C 
ATOM     10  C   UNL     1       4.732   4.531  16.455  0.00  0.00    +0.000 C 
ATOM     11  N   UNL     1       6.117   4.409  16.920  0.00  0.00    +0.000 NA
ATOM     12  C   UNL     1       7.058   4.506  15.804  0.00  0.00    +0.000 C 
ATOM     13  C   UNL     1       6.417   5.424  17.936  0.00  0.00    +0.000 C 
ATOM     14  C   UNL     1       5.510   5.252  19.161  0.00  0.00    +0.000 C 
ENDBRANCH   7   8
BRANCH   7  16
ATOM     15  C   UNL     1       1.120   3.588  20.229  0.00  0.00    +0.000 C 
ATOM     16  C   UNL     1       2.629   3.814  20.163  0.00  0.00    +0.000 C 
ENDBRANCH   7  16
ENDBRANCH   1   7
BRANCH   4  17
ATOM     17  C   UNL     1       0.914  10.272  18.997  0.00  0.00    +0.000 C 
BRANCH  17  18
ATOM     18  O   UNL     1       0.055   9.807  17.965  0.00  0.00    +0.000 OA
BRANCH  18  19
ATOM     19  C   UNL     1      -1.195  10.356  17.912  0.00  0.00    +0.000 A 
ATOM     20  C   UNL     1      -1.673  11.379  18.737  0.00  0.00    +0.000 A 
ATOM     21  C   UNL     1      -2.977  11.846  18.579  0.00  0.00    +0.000 A 
ATOM     22  C   UNL     1      -3.801  11.295  17.604  0.00  0.00    +0.000 A 
ATOM     23  F   UNL     1      -5.050  11.758  17.455  0.00  0.00    +0.000 F 
ATOM     24  C   UNL     1      -3.343  10.276  16.779  0.00  0.00    +0.000 A 
ATOM     25  C   UNL     1      -2.038   9.811  16.935  0.00  0.00    +0.000 A 
ENDBRANCH  18  19
ENDBRANCH  17  18
ENDBRANCH   4  17
TORSDOF 6
ENDMDL
MODEL 3
REMARK VINA RESULT:      -7.0      6.018      8.635
REMARK  Name = 
REMARK  8 active torsions:
REMARK  status: ('A' for Active; 'I' for Inactive)
REMARK    1  A    between atoms: C_1  and  C_2
REMARK    2  A    between atoms: C_2  and  N_3
REMARK    3  A    between atoms: N_3  and  C_4
REMARK    4  A    between atoms: N_3  and  C_11
REMARK    5  A    between atoms: N_7  and  C_8
REMARK    6  A    between atoms: C_14  and  C_16
REMARK    7  A    between atoms: C_16  and  O_17
REMARK    8  A    between atoms: O_17  and  C_18
REMARK                            x       y       z     vdW  Elec       q    Type
REMARK                         _______ _______ _______ _____ _____    ______ ____
ROOT
ATOM      1  C   UNL     1       2.089   5.914  19.786  0.00  0.00    +0.000 C 
ATOM      2  C   UNL     1       1.856   6.791  21.042  0.00  0.00    +0.000 C 
ATOM      3  N   UNL     1       1.692   7.896  20.128  0.00  0.00    +0.000 N 
ATOM      4  C   UNL     1       0.884   8.986  20.280  0.00  0.00    +0.000 C 
ATOM      5  O   UNL     1       0.183   9.148  21.274  0.00  0.00    +0.000 OA
ATOM      6  C   UNL     1       2.460   7.259  19.076  0.00  0.00    +0.000 C 
ENDROOT
BRANCH   1   7
ATOM      7  N   UNL     1       3.262   4.989  19.900  0.00  0.00    +0.000 NA
BRANCH   7   8
ATOM      8  C   UNL     1       4.138   5.157  18.676  0.00  0.00    +0.000 C 
ATOM      9  C   UNL     1       3.917   4.139  17.526  0.00  0.00    +0.000 C 
ATOM     10  C   UNL     1       4.849   4.414  16.340  0.00  0.00    +0.000 C 
ATOM     11  N   UNL     1       6.253   4.404  16.765  0.00  0.00    +0.000 NA
ATOM     12  C   UNL     1       7.151   4.569  15.623  0.00  0.00    +0.000 C 
ATOM     13  C   UNL     1       6.499   5.445  17.769  0.00  0.00    +0.000 C 
ATOM     14  C   UNL     1       5.643   5.209  19.020  0.00  0.00    +0.000 C 
ENDBRANCH   7   8
BRANCH   7  16
ATOM     15  C   UNL     1       2.336   3.142  21.436  0.00  0.00    +0.000 C 
ATOM     16  C   UNL     1       2.843   3.566  20.059  0.00  0.00    +0.000 C 
ENDBRANCH   7  16
ENDBRANCH   1   7
BRANCH   4  17
ATOM     17  C   UNL     1       0.904  10.003  19.155  0.00  0.00    +0.000 C 
BRANCH  17  18
ATOM     18  O   UNL     1      -0.143  10.933  19.394  0.00  0.00    +0.000 OA
BRANCH  18  19
ATOM     19  C   UNL     1      -1.238  10.847  18.582  0.00  0.00    +0.000 A 
ATOM     20  C   UNL     1      -1.342  10.056  17.434  0.00  0.00    +0.000 A 
ATOM     21  C   UNL     1      -2.522  10.063  16.690  0.00  0.00    +0.000 A 
ATOM     22  C   UNL     1      -3.592  10.857  17.089  0.00  0.00    +0.000 A 
ATOM     23  F   UNL     1      -4.724  10.850  16.371  0.00  0.00    +0.000 F 
ATOM     24  C   UNL     1      -3.503  11.652  18.225  0.00  0.00    +0.000 A 
ATOM     25  C   UNL     1      -2.325  11.642  18.970  0.00  0.00    +0.000 A 
ENDBRANCH  18  19
ENDBRANCH  17  18
ENDBRANCH   4  17
TORSDOF 6
ENDMDL
MODEL 4
REMARK VINA RESULT:      -7.0      5.825      8.186
REMARK  Name = 
REMARK  8 active torsions:
REMARK  status: ('A' for Active; 'I' for Inactive)
REMARK    1  A    between atoms: C_1  and  C_2
REMARK    2  A    between atoms: C_2  and  N_3
REMARK    3  A    between atoms: N_3  and  C_4
REMARK    4  A    between atoms: N_3  and  C_11
REMARK    5  A    between atoms: N_7  and  C_8
REMARK    6  A    between atoms: C_14  and  C_16
REMARK    7  A    between atoms: C_16  and  O_17
REMARK    8  A    between atoms: O_17  and  C_18
REMARK                            x       y       z     vdW  Elec       q    Type
REMARK                         _______ _______ _______ _____ _____    ______ ____
ROOT
ATOM      1  C   UNL     1       2.055   5.041  19.538  0.00  0.00    +0.000 C 
ATOM      2  C   UNL     1       2.218   5.817  20.869  0.00  0.00    +0.000 C 
ATOM      3  N   UNL     1       1.996   7.014  20.093  0.00  0.00    +0.000 N 
ATOM      4  C   UNL     1       1.385   8.166  20.499  0.00  0.00    +0.000 C 
ATOM      5  O   UNL     1       0.947   8.308  21.636  0.00  0.00    +0.000 OA
ATOM      6  C   UNL     1       2.426   6.399  18.852  0.00  0.00    +0.000 C 
ENDROOT
BRANCH   1   7
ATOM      7  N   UNL     1       3.099   3.989  19.317  0.00  0.00    +0.000 NA
BRANCH   7   8
ATOM      8  C   UNL     1       4.054   4.465  18.243  0.00  0.00    +0.000 C 
ATOM      9  C   UNL     1       3.954   3.754  16.868  0.00  0.00    +0.000 C 
ATOM     10  C   UNL     1       4.959   4.326  15.860  0.00  0.00    +0.000 C 
ATOM     11  N   UNL     1       6.327   4.239  16.380  0.00  0.00    +0.000 NA
ATOM     12  C   UNL     1       7.299   4.693  15.386  0.00  0.00    +0.000 C 
ATOM     13  C   UNL     1       6.462   5.009  17.622  0.00  0.00    +0.000 C 
ATOM     14  C   UNL     1       5.527   4.460  18.707  0.00  0.00    +0.000 C 
ENDBRANCH   7   8
BRANCH   7  16
ATOM     15  C   UNL     1       0.977   2.595  18.894  0.00  0.00    +0.000 C 
ATOM     16  C   UNL     1       2.502   2.673  18.947  0.00  0.00    +0.000 C 
ENDBRANCH   7  16
ENDBRANCH   1   7
BRANCH   4  17
ATOM     17  C   UNL     1       1.283   9.274  19.470  0.00  0.00    +0.000 C 
BRANCH  17  18
ATOM     18  O   UNL     1       0.578  10.355  20.065  0.00  0.00    +0.000 OA
BRANCH  18  19
ATOM     19  C   UNL     1      -0.561  10.767  19.433  0.00  0.00    +0.000 A 
ATOM     20  C   UNL     1      -1.468  11.712  19.921  0.00  0.00    +0.000 A 
ATOM     21  C   UNL     1      -2.599  12.040  19.174  0.00  0.00    +0.000 A 
ATOM     22  C   UNL     1      -2.824  11.427  17.947  0.00  0.00    +0.000 A 
ATOM     23  F   UNL     1      -3.910  11.756  17.232  0.00  0.00    +0.000 F 
ATOM     24  C   UNL     1      -1.935  10.483  17.449  0.00  0.00    +0.000 A 
ATOM     25  C   UNL     1      -0.803  10.157  18.195  0.00  0.00    +0.000 A 
ENDBRANCH  18  19
ENDBRANCH  17  18
ENDBRANCH   4  17
TORSDOF 6
ENDMDL
MODEL 5
REMARK VINA RESULT:      -7.0      4.849      7.294
REMARK  Name = 
REMARK  8 active torsions:
REMARK  status: ('A' for Active; 'I' for Inactive)
REMARK    1  A    between atoms: C_1  and  C_2
REMARK    2  A    between atoms: C_2  and  N_3
REMARK    3  A    between atoms: N_3  and  C_4
REMARK    4  A    between atoms: N_3  and  C_11
REMARK    5  A    between atoms: N_7  and  C_8
REMARK    6  A    between atoms: C_14  and  C_16
REMARK    7  A    between atoms: C_16  and  O_17
REMARK    8  A    between atoms: O_17  and  C_18
REMARK                            x       y       z     vdW  Elec       q    Type
REMARK                         _______ _______ _______ _____ _____    ______ ____
ROOT
ATOM      1  C   UNL     1       3.463   6.629  17.575  0.00  0.00    +0.000 C 
ATOM      2  C   UNL     1       4.737   7.318  18.126  0.00  0.00    +0.000 C 
ATOM      3  N   UNL     1       5.479   6.270  17.467  0.00  0.00    +0.000 N 
ATOM      4  C   UNL     1       6.721   6.358  16.907  0.00  0.00    +0.000 C 
ATOM      5  O   UNL     1       7.373   7.398  16.920  0.00  0.00    +0.000 OA
ATOM      6  C   UNL     1       4.359   5.349  17.470  0.00  0.00    +0.000 C 
ENDROOT
BRANCH   1   7
ATOM      7  N   UNL     1       2.369   6.476  18.588  0.00  0.00    +0.000 NA
BRANCH   7   8
ATOM      8  C   UNL     1       2.118   7.818  19.244  0.00  0.00    +0.000 C 
ATOM      9  C   UNL     1       1.391   7.790  20.614  0.00  0.00    +0.000 C 
ATOM     10  C   UNL     1       1.203   9.200  21.184  0.00  0.00    +0.000 C 
ATOM     11  N   UNL     1       0.475  10.053  20.239  0.00  0.00    +0.000 NA
ATOM     12  C   UNL     1       0.207  11.370  20.816  0.00  0.00    +0.000 C 
ATOM     13  C   UNL     1       1.215  10.183  18.979  0.00  0.00    +0.000 C 
ATOM     14  C   UNL     1       1.396   8.814  18.310  0.00  0.00    +0.000 C 
ENDBRANCH   7   8
BRANCH   7  16
ATOM     15  C   UNL     1       1.723   4.265  19.737  0.00  0.00    +0.000 C 
ATOM     16  C   UNL     1       2.691   5.440  19.611  0.00  0.00    +0.000 C 
ENDBRANCH   7  16
ENDBRANCH   1   7
BRANCH   4  17
ATOM     17  C   UNL     1       7.266   5.093  16.273  0.00  0.00    +0.000 C 
BRANCH  17  18
ATOM     18  O   UNL     1       7.657   5.409  14.944  0.00  0.00    +0.000 OA
BRANCH  18  19
ATOM     19  C   UNL     1       7.044   4.712  13.941  0.00  0.00    +0.000 A 
ATOM     20  C   UNL     1       7.571   4.481  12.667  0.00  0.00    +0.000 A 
ATOM     21  C   UNL     1       6.835   3.754  11.732  0.00  0.00    +0.000 A 
ATOM     22  C   UNL     1       5.579   3.261  12.066  0.00  0.00    +0.000 A 
ATOM     23  F   UNL     1       4.883   2.557  11.163  0.00  0.00    +0.000 F 
ATOM     24  C   UNL     1       5.038   3.485  13.326  0.00  0.00    +0.000 A 
ATOM     25  C   UNL     1       5.776   4.210  14.262  0.00  0.00    +0.000 A 
ENDBRANCH  18  19
ENDBRANCH  17  18
ENDBRANCH   4  17
TORSDOF 6
ENDMDL
MODEL 6
REMARK VINA RESULT:      -7.0      5.206      7.033
REMARK  Name = 
REMARK  8 active torsions:
REMARK  status: ('A' for Active; 'I' for Inactive)
REMARK    1  A    between atoms: C_1  and  C_2
REMARK    2  A    between atoms: C_2  and  N_3
REMARK    3  A    between atoms: N_3  and  C_4
REMARK    4  A    between atoms: N_3  and  C_11
REMARK    5  A    between atoms: N_7  and  C_8
REMARK    6  A    between atoms: C_14  and  C_16
REMARK    7  A    between atoms: C_16  and  O_17
REMARK    8  A    between atoms: O_17  and  C_18
REMARK                            x       y       z     vdW  Elec       q    Type
REMARK                         _______ _______ _______ _____ _____    ______ ____
ROOT
ATOM      1  C   UNL     1       3.988   6.195  18.441  0.00  0.00    +0.000 C 
ATOM      2  C   UNL     1       5.050   5.706  19.458  0.00  0.00    +0.000 C 
ATOM      3  N   UNL     1       5.752   5.156  18.323  0.00  0.00    +0.000 N 
ATOM      4  C   UNL     1       7.102   5.027  18.164  0.00  0.00    +0.000 C 
ATOM      5  O   UNL     1       7.899   5.379  19.028  0.00  0.00    +0.000 OA
ATOM      6  C   UNL     1       4.555   5.073  17.508  0.00  0.00    +0.000 C 
ENDROOT
BRANCH   1   7
ATOM      7  N   UNL     1       2.575   5.924  18.861  0.00  0.00    +0.000 NA
BRANCH   7   8
ATOM      8  C   UNL     1       1.810   7.231  18.874  0.00  0.00    +0.000 C 
ATOM      9  C   UNL     1       2.272   8.310  17.860  0.00  0.00    +0.000 C 
ATOM     10  C   UNL     1       1.420   9.581  17.957  0.00  0.00    +0.000 C 
ATOM     11  N   UNL     1       1.440  10.121  19.320  0.00  0.00    +0.000 NA
ATOM     12  C   UNL     1       0.709  11.385  19.398  0.00  0.00    +0.000 C 
ATOM     13  C   UNL     1       0.892   9.149  20.273  0.00  0.00    +0.000 C 
ATOM     14  C   UNL     1       1.728   7.863  20.281  0.00  0.00    +0.000 C 
ENDBRANCH   7   8
BRANCH   7  16
ATOM     15  C   UNL     1       1.376   4.247  20.403  0.00  0.00    +0.000 C 
ATOM     16  C   UNL     1       2.503   5.257  20.193  0.00  0.00    +0.000 C 
ENDBRANCH   7  16
ENDBRANCH   1   7
BRANCH   4  17
ATOM     17  C   UNL     1       7.572   4.412  16.860  0.00  0.00    +0.000 C 
BRANCH  17  18
ATOM     18  O   UNL     1       7.312   5.346  15.822  0.00  0.00    +0.000 OA
BRANCH  18  19
ATOM     19  C   UNL     1       6.945   4.832  14.610  0.00  0.00    +0.000 A 
ATOM     20  C   UNL     1       7.651   4.981  13.413  0.00  0.00    +0.000 A 
ATOM     21  C   UNL     1       7.161   4.405  12.241  0.00  0.00    +0.000 A 
ATOM     22  C   UNL     1       5.971   3.686  12.264  0.00  0.00    +0.000 A 
ATOM     23  F   UNL     1       5.513   3.129  11.134  0.00  0.00    +0.000 F 
ATOM     24  C   UNL     1       5.255   3.532  13.445  0.00  0.00    +0.000 A 
ATOM     25  C   UNL     1       5.747   4.105  14.616  0.00  0.00    +0.000 A 
ENDBRANCH  18  19
ENDBRANCH  17  18
ENDBRANCH   4  17
TORSDOF 6
ENDMDL
MODEL 7
REMARK VINA RESULT:      -6.8      6.329      8.982
REMARK  Name = 
REMARK  8 active torsions:
REMARK  status: ('A' for Active; 'I' for Inactive)
REMARK    1  A    between atoms: C_1  and  C_2
REMARK    2  A    between atoms: C_2  and  N_3
REMARK    3  A    between atoms: N_3  and  C_4
REMARK    4  A    between atoms: N_3  and  C_11
REMARK    5  A    between atoms: N_7  and  C_8
REMARK    6  A    between atoms: C_14  and  C_16
REMARK    7  A    between atoms: C_16  and  O_17
REMARK    8  A    between atoms: O_17  and  C_18
REMARK                            x       y       z     vdW  Elec       q    Type
REMARK                         _______ _______ _______ _____ _____    ______ ____
ROOT
ATOM      1  C   UNL     1       2.178   6.660  19.268  0.00  0.00    +0.000 C 
ATOM      2  C   UNL     1       1.892   7.526  20.520  0.00  0.00    +0.000 C 
ATOM      3  N   UNL     1       1.520   8.573  19.599  0.00  0.00    +0.000 N 
ATOM      4  C   UNL     1       0.573   9.540  19.780  0.00  0.00    +0.000 C 
ATOM      5  O   UNL     1      -0.088   9.625  20.811  0.00  0.00    +0.000 OA
ATOM      6  C   UNL     1       2.311   8.026  18.515  0.00  0.00    +0.000 C 
ENDROOT
BRANCH   1   7
ATOM      7  N   UNL     1       3.477   5.915  19.329  0.00  0.00    +0.000 NA
BRANCH   7   8
ATOM      8  C   UNL     1       3.931   5.608  17.917  0.00  0.00    +0.000 C 
ATOM      9  C   UNL     1       4.374   4.148  17.638  0.00  0.00    +0.000 C 
ATOM     10  C   UNL     1       4.801   3.954  16.178  0.00  0.00    +0.000 C 
ATOM     11  N   UNL     1       5.872   4.888  15.819  0.00  0.00    +0.000 NA
ATOM     12  C   UNL     1       6.350   4.644  14.458  0.00  0.00    +0.000 C 
ATOM     13  C   UNL     1       5.422   6.277  15.965  0.00  0.00    +0.000 C 
ATOM     14  C   UNL     1       5.030   6.572  17.419  0.00  0.00    +0.000 C 
ENDBRANCH   7   8
BRANCH   7  16
ATOM     15  C   UNL     1       1.980   4.048  20.278  0.00  0.00    +0.000 C 
ATOM     16  C   UNL     1       3.371   4.664  20.133  0.00  0.00    +0.000 C 
ENDBRANCH   7  16
ENDBRANCH   1   7
BRANCH   4  17
ATOM     17  C   UNL     1       0.383  10.520  18.639  0.00  0.00    +0.000 C 
BRANCH  17  18
ATOM     18  O   UNL     1      -0.460   9.905  17.674  0.00  0.00    +0.000 OA
BRANCH  18  19
ATOM     19  C   UNL     1      -1.723  10.411  17.551  0.00  0.00    +0.000 A 
ATOM     20  C   UNL     1      -2.379  11.205  18.495  0.00  0.00    +0.000 A 
ATOM     21  C   UNL     1      -3.676  11.655  18.243  0.00  0.00    +0.000 A 
ATOM     22  C   UNL     1      -4.313  11.312  17.057  0.00  0.00    +0.000 A 
ATOM     23  F   UNL     1      -5.556  11.755  16.822  0.00  0.00    +0.000 F 
ATOM     24  C   UNL     1      -3.676  10.520  16.109  0.00  0.00    +0.000 A 
ATOM     25  C   UNL     1      -2.379  10.074  16.360  0.00  0.00    +0.000 A 
ENDBRANCH  18  19
ENDBRANCH  17  18
ENDBRANCH   4  17
TORSDOF 6
ENDMDL
MODEL 8
REMARK VINA RESULT:      -6.7      4.989      7.238
REMARK  Name = 
REMARK  8 active torsions:
REMARK  status: ('A' for Active; 'I' for Inactive)
REMARK    1  A    between atoms: C_1  and  C_2
REMARK    2  A    between atoms: C_2  and  N_3
REMARK    3  A    between atoms: N_3  and  C_4
REMARK    4  A    between atoms: N_3  and  C_11
REMARK    5  A    between atoms: N_7  and  C_8
REMARK    6  A    between atoms: C_14  and  C_16
REMARK    7  A    between atoms: C_16  and  O_17
REMARK    8  A    between atoms: O_17  and  C_18
REMARK                            x       y       z     vdW  Elec       q    Type
REMARK                         _______ _______ _______ _____ _____    ______ ____
ROOT
ATOM      1  C   UNL     1       4.058   6.228  19.210  0.00  0.00    +0.000 C 
ATOM      2  C   UNL     1       4.694   4.855  18.878  0.00  0.00    +0.000 C 
ATOM      3  N   UNL     1       5.394   5.537  17.817  0.00  0.00    +0.000 N 
ATOM      4  C   UNL     1       6.640   5.260  17.331  0.00  0.00    +0.000 C 
ATOM      5  O   UNL     1       7.323   4.339  17.769  0.00  0.00    +0.000 OA
ATOM      6  C   UNL     1       4.415   6.604  17.732  0.00  0.00    +0.000 C 
ENDROOT
BRANCH   1   7
ATOM      7  N   UNL     1       2.578   6.172  19.440  0.00  0.00    +0.000 NA
BRANCH   7   8
ATOM      8  C   UNL     1       2.093   7.549  19.841  0.00  0.00    +0.000 C 
ATOM      9  C   UNL     1       1.060   7.607  20.996  0.00  0.00    +0.000 C 
ATOM     10  C   UNL     1       0.651   9.049  21.321  0.00  0.00    +0.000 C 
ATOM     11  N   UNL     1       0.122   9.722  20.130  0.00  0.00    +0.000 NA
ATOM     12  C   UNL     1      -0.359  11.065  20.454  0.00  0.00    +0.000 C 
ATOM     13  C   UNL     1       1.135   9.779  19.070  0.00  0.00    +0.000 C 
ATOM     14  C   UNL     1       1.557   8.367  18.645  0.00  0.00    +0.000 C 
ENDBRANCH   7   8
BRANCH   7  16
ATOM     15  C   UNL     1       1.167   4.115  20.074  0.00  0.00    +0.000 C 
ATOM     16  C   UNL     1       2.207   5.161  20.471  0.00  0.00    +0.000 C 
ENDBRANCH   7  16
ENDBRANCH   1   7
BRANCH   4  17
ATOM     17  C   UNL     1       7.138   6.145  16.205  0.00  0.00    +0.000 C 
BRANCH  17  18
ATOM     18  O   UNL     1       7.765   5.310  15.242  0.00  0.00    +0.000 OA
BRANCH  18  19
ATOM     19  C   UNL     1       6.950   4.717  14.320  0.00  0.00    +0.000 A 
ATOM     20  C   UNL     1       5.641   4.283  14.547  0.00  0.00    +0.000 A 
ATOM     21  C   UNL     1       4.917   3.687  13.514  0.00  0.00    +0.000 A 
ATOM     22  C   UNL     1       5.497   3.525  12.262  0.00  0.00    +0.000 A 
ATOM     23  F   UNL     1       4.790   2.958  11.274  0.00  0.00    +0.000 F 
ATOM     24  C   UNL     1       6.798   3.947  12.020  0.00  0.00    +0.000 A 
ATOM     25  C   UNL     1       7.520   4.545  13.052  0.00  0.00    +0.000 A 
ENDBRANCH  18  19
ENDBRANCH  17  18
ENDBRANCH   4  17
TORSDOF 6
ENDMDL
MODEL 9
REMARK VINA RESULT:      -6.7      0.884      1.081
REMARK  Name = 
REMARK  8 active torsions:
REMARK  status: ('A' for Active; 'I' for Inactive)
REMARK    1  A    between atoms: C_1  and  C_2
REMARK    2  A    between atoms: C_2  and  N_3
REMARK    3  A    between atoms: N_3  and  C_4
REMARK    4  A    between atoms: N_3  and  C_11
REMARK    5  A    between atoms: N_7  and  C_8
REMARK    6  A    between atoms: C_14  and  C_16
REMARK    7  A    between atoms: C_16  and  O_17
REMARK    8  A    between atoms: O_17  and  C_18
REMARK                            x       y       z     vdW  Elec       q    Type
REMARK                         _______ _______ _______ _____ _____    ______ ____
ROOT
ATOM      1  C   UNL     1       5.264   6.004  17.523  0.00  0.00    +0.000 C 
ATOM      2  C   UNL     1       6.685   5.510  17.893  0.00  0.00    +0.000 C 
ATOM      3  N   UNL     1       7.103   6.884  17.744  0.00  0.00    +0.000 N 
ATOM      4  C   UNL     1       8.088   7.532  18.433  0.00  0.00    +0.000 C 
ATOM      5  O   UNL     1       8.763   6.972  19.292  0.00  0.00    +0.000 OA
ATOM      6  C   UNL     1       6.000   7.219  16.865  0.00  0.00    +0.000 C 
ENDROOT
BRANCH   1   7
ATOM      7  N   UNL     1       4.567   5.145  16.511  0.00  0.00    +0.000 NA
BRANCH   7   8
ATOM      8  C   UNL     1       3.410   4.438  17.184  0.00  0.00    +0.000 C 
ATOM      9  C   UNL     1       2.813   5.131  18.437  0.00  0.00    +0.000 C 
ATOM     10  C   UNL     1       1.644   4.332  19.024  0.00  0.00    +0.000 C 
ATOM     11  N   UNL     1       2.058   2.963  19.348  0.00  0.00    +0.000 NA
ATOM     12  C   UNL     1       0.976   2.224  19.998  0.00  0.00    +0.000 C 
ATOM     13  C   UNL     1       2.513   2.258  18.145  0.00  0.00    +0.000 C 
ATOM     14  C   UNL     1       3.725   2.965  17.525  0.00  0.00    +0.000 C 
ENDBRANCH   7   8
BRANCH   7  16
ATOM     15  C   UNL     1       5.814   4.366  14.398  0.00  0.00    +0.000 C 
ATOM     16  C   UNL     1       5.491   4.162  15.877  0.00  0.00    +0.000 C 
ENDBRANCH   7  16
ENDBRANCH   1   7
BRANCH   4  17
ATOM     17  C   UNL     1       8.317   8.987  18.074  0.00  0.00    +0.000 C 
BRANCH  17  18
ATOM     18  O   UNL     1       8.963   9.608  19.176  0.00  0.00    +0.000 OA
BRANCH  18  19
ATOM     19  C   UNL     1       9.429  10.877  18.979  0.00  0.00    +0.000 A 
ATOM     20  C   UNL     1       9.250  11.957  19.848  0.00  0.00    +0.000 A 
ATOM     21  C   UNL     1       9.777  13.207  19.523  0.00  0.00    +0.000 A 
ATOM     22  C   UNL     1      10.479  13.377  18.336  0.00  0.00    +0.000 A 
ATOM     23  F   UNL     1      10.989  14.580  18.036  0.00  0.00    +0.000 F 
ATOM     24  C   UNL     1      10.663  12.316  17.458  0.00  0.00    +0.000 A 
ATOM     25  C   UNL     1      10.138  11.067  17.785  0.00  0.00    +0.000 A 
ENDBRANCH  18  19
ENDBRANCH  17  18
ENDBRANCH   4  17
TORSDOF 6
ENDMDL
