MODEL 1
REMARK VINA RESULT:      -7.5      0.000      0.000
REMARK  Name = 
REMARK  1 active torsions:
REMARK  status: ('A' for Active; 'I' for Inactive)
REMARK    1  A    between atoms: C_7  and  N_8
REMARK                            x       y       z     vdW  Elec       q    Type
REMARK                         _______ _______ _______ _____ _____    ______ ____
ROOT
ATOM      1  N   UNL     1       4.998   5.297  17.417  0.00  0.00    +0.000 NA
ATOM      2  C   UNL     1       5.284   5.513  18.858  0.00  0.00    +0.000 C 
ATOM      3  C   UNL     1       4.787   4.397  19.810  0.00  0.00    +0.000 C 
ATOM      4  N   UNL     1       3.348   4.108  19.661  0.00  0.00    +0.000 NA
ATOM      5  C   UNL     1       2.975   2.922  20.444  0.00  0.00    +0.000 C 
ATOM      6  C   UNL     1       1.467   2.663  20.377  0.00  0.00    +0.000 C 
ATOM      7  C   UNL     1       0.951   2.627  18.940  0.00  0.00    +0.000 C 
ATOM      8  C   UNL     1       1.451   3.832  18.144  0.00  0.00    +0.000 C 
ATOM      9  C   UNL     1       2.981   3.934  18.240  0.00  0.00    +0.000 C 
ATOM     10  C   UNL     1       3.526   5.075  17.328  0.00  0.00    +0.000 C 
ENDROOT
BRANCH   1  17
ATOM     11  O   UNL     1       8.112   4.356  17.447  0.00  0.00    +0.000 OA
ATOM     12  C   UNL     1       7.259   4.516  16.574  0.00  0.00    +0.000 C 
ATOM     13  N   UNL     1       7.627   5.095  15.392  0.00  0.00    +0.000 N 
ATOM     14  C   UNL     1       6.921   4.889  14.150  0.00  0.00    +0.000 C 
ATOM     15  C   UNL     1       5.423   4.732  14.339  0.00  0.00    +0.000 C 
ATOM     16  C   UNL     1       5.142   3.732  15.456  0.00  0.00    +0.000 C 
ATOM     17  C   UNL     1       5.766   4.170  16.799  0.00  0.00    +0.000 C 
ATOM     18  H   UNL     1       8.627   5.265  15.341  0.00  0.00    +0.000 HD
ENDBRANCH   1  17
TORSDOF 1
ENDMDL
MODEL 2
REMARK VINA RESULT:      -7.1      1.228      1.258
REMARK  Name = 
REMARK  1 active torsions:
REMARK  status: ('A' for Active; 'I' for Inactive)
REMARK    1  A    between atoms: C_7  and  N_8
REMARK                            x       y       z     vdW  Elec       q    Type
REMARK                         _______ _______ _______ _____ _____    ______ ____
ROOT
ATOM      1  N   UNL     1       4.124   5.380  17.091  0.00  0.00    +0.000 NA
ATOM      2  C   UNL     1       3.827   6.406  18.123  0.00  0.00    +0.000 C 
ATOM      3  C   UNL     1       3.578   5.861  19.551  0.00  0.00    +0.000 C 
ATOM      4  N   UNL     1       2.522   4.832  19.602  0.00  0.00    +0.000 NA
ATOM      5  C   UNL     1       2.461   4.219  20.935  0.00  0.00    +0.000 C 
ATOM      6  C   UNL     1       1.308   3.215  21.035  0.00  0.00    +0.000 C 
ATOM      7  C   UNL     1       1.333   2.195  19.900  0.00  0.00    +0.000 C 
ATOM      8  C   UNL     1       1.498   2.881  18.544  0.00  0.00    +0.000 C 
ATOM      9  C   UNL     1       2.727   3.802  18.562  0.00  0.00    +0.000 C 
ATOM     10  C   UNL     1       2.994   4.409  17.151  0.00  0.00    +0.000 C 
ENDROOT
BRANCH   1  17
ATOM     11  O   UNL     1       7.071   6.317  18.102  0.00  0.00    +0.000 OA
ATOM     12  C   UNL     1       6.643   5.677  17.142  0.00  0.00    +0.000 C 
ATOM     13  N   UNL     1       7.188   5.895  15.908  0.00  0.00    +0.000 N 
ATOM     14  C   UNL     1       7.170   4.919  14.845  0.00  0.00    +0.000 C 
ATOM     15  C   UNL     1       5.911   4.071  14.839  0.00  0.00    +0.000 C 
ATOM     16  C   UNL     1       5.628   3.552  16.246  0.00  0.00    +0.000 C 
ATOM     17  C   UNL     1       5.447   4.699  17.264  0.00  0.00    +0.000 C 
ATOM     18  H   UNL     1       7.974   6.538  15.943  0.00  0.00    +0.000 HD
ENDBRANCH   1  17
TORSDOF 1
ENDMDL
MODEL 3
REMARK VINA RESULT:      -6.7      2.196      3.096
REMARK  Name = 
REMARK  1 active torsions:
REMARK  status: ('A' for Active; 'I' for Inactive)
REMARK    1  A    between atoms: C_7  and  N_8
REMARK                            x       y       z     vdW  Elec       q    Type
REMARK                         _______ _______ _______ _____ _____    ______ ____
ROOT
ATOM      1  N   UNL     1       4.936   4.257  17.972  0.00  0.00    +0.000 NA
ATOM      2  C   UNL     1       3.733   4.108  17.116  0.00  0.00    +0.000 C 
ATOM      3  C   UNL     1       2.375   4.294  17.837  0.00  0.00    +0.000 C 
ATOM      4  N   UNL     1       2.220   3.416  19.012  0.00  0.00    +0.000 NA
ATOM      5  C   UNL     1       1.007   3.767  19.763  0.00  0.00    +0.000 C 
ATOM      6  C   UNL     1       0.778   2.806  20.933  0.00  0.00    +0.000 C 
ATOM      7  C   UNL     1       2.017   2.666  21.815  0.00  0.00    +0.000 C 
ATOM      8  C   UNL     1       3.265   2.401  20.974  0.00  0.00    +0.000 C 
ATOM      9  C   UNL     1       3.411   3.475  19.886  0.00  0.00    +0.000 C 
ATOM     10  C   UNL     1       4.747   3.303  19.102  0.00  0.00    +0.000 C 
ENDROOT
BRANCH   1  17
ATOM     11  O   UNL     1       4.147   7.227  16.905  0.00  0.00    +0.000 OA
ATOM     12  C   UNL     1       5.178   6.695  17.315  0.00  0.00    +0.000 C 
ATOM     13  N   UNL     1       6.358   6.972  16.683  0.00  0.00    +0.000 N 
ATOM     14  C   UNL     1       7.648   6.856  17.319  0.00  0.00    +0.000 C 
ATOM     15  C   UNL     1       7.718   5.714  18.317  0.00  0.00    +0.000 C 
ATOM     16  C   UNL     1       6.504   5.757  19.241  0.00  0.00    +0.000 C 
ATOM     17  C   UNL     1       5.175   5.652  18.461  0.00  0.00    +0.000 C 
ATOM     18  H   UNL     1       6.252   7.678  15.962  0.00  0.00    +0.000 HD
ENDBRANCH   1  17
TORSDOF 1
ENDMDL
MODEL 4
REMARK VINA RESULT:      -6.6      2.145      5.935
REMARK  Name = 
REMARK  1 active torsions:
REMARK  status: ('A' for Active; 'I' for Inactive)
REMARK    1  A    between atoms: C_7  and  N_8
REMARK                            x       y       z     vdW  Elec       q    Type
REMARK                         _______ _______ _______ _____ _____    ______ ____
ROOT
ATOM      1  N   UNL     1       3.670   4.876  19.588  0.00  0.00    +0.000 NA
ATOM      2  C   UNL     1       3.195   5.987  18.725  0.00  0.00    +0.000 C 
ATOM      3  C   UNL     1       3.620   5.904  17.239  0.00  0.00    +0.000 C 
ATOM      4  N   UNL     1       5.078   5.771  17.061  0.00  0.00    +0.000 NA
ATOM      5  C   UNL     1       5.406   5.506  15.654  0.00  0.00    +0.000 C 
ATOM      6  C   UNL     1       6.921   5.458  15.434  0.00  0.00    +0.000 C 
ATOM      7  C   UNL     1       7.615   4.507  16.406  0.00  0.00    +0.000 C 
ATOM      8  C   UNL     1       7.162   4.761  17.843  0.00  0.00    +0.000 C 
ATOM      9  C   UNL     1       5.630   4.712  17.934  0.00  0.00    +0.000 C 
ATOM     10  C   UNL     1       5.150   4.835  19.412  0.00  0.00    +0.000 C 
ENDROOT
BRANCH   1  17
ATOM     11  O   UNL     1       0.997   3.913  18.004  0.00  0.00    +0.000 OA
ATOM     12  C   UNL     1       1.507   3.648  19.092  0.00  0.00    +0.000 C 
ATOM     13  N   UNL     1       0.696   3.514  20.184  0.00  0.00    +0.000 N 
ATOM     14  C   UNL     1       1.050   2.737  21.348  0.00  0.00    +0.000 C 
ATOM     15  C   UNL     1       2.534   2.783  21.663  0.00  0.00    +0.000 C 
ATOM     16  C   UNL     1       3.343   2.519  20.397  0.00  0.00    +0.000 C 
ATOM     17  C   UNL     1       3.041   3.551  19.288  0.00  0.00    +0.000 C 
ATOM     18  H   UNL     1      -0.288   3.578  19.943  0.00  0.00    +0.000 HD
ENDBRANCH   1  17
TORSDOF 1
ENDMDL
MODEL 5
REMARK VINA RESULT:      -6.5      2.292      6.044
REMARK  Name = 
REMARK  1 active torsions:
REMARK  status: ('A' for Active; 'I' for Inactive)
REMARK    1  A    between atoms: C_7  and  N_8
REMARK                            x       y       z     vdW  Elec       q    Type
REMARK                         _______ _______ _______ _____ _____    ______ ____
ROOT
ATOM      1  N   UNL     1       2.889   4.648  19.129  0.00  0.00    +0.000 NA
ATOM      2  C   UNL     1       2.625   5.049  17.724  0.00  0.00    +0.000 C 
ATOM      3  C   UNL     1       3.660   4.555  16.685  0.00  0.00    +0.000 C 
ATOM      4  N   UNL     1       5.045   4.934  17.022  0.00  0.00    +0.000 NA
ATOM      5  C   UNL     1       5.997   4.281  16.113  0.00  0.00    +0.000 C 
ATOM      6  C   UNL     1       7.433   4.736  16.388  0.00  0.00    +0.000 C 
ATOM      7  C   UNL     1       7.810   4.596  17.861  0.00  0.00    +0.000 C 
ATOM      8  C   UNL     1       6.738   5.203  18.765  0.00  0.00    +0.000 C 
ATOM      9  C   UNL     1       5.361   4.609  18.430  0.00  0.00    +0.000 C 
ATOM     10  C   UNL     1       4.274   5.113  19.427  0.00  0.00    +0.000 C 
ENDROOT
BRANCH   1  17
ATOM     11  O   UNL     1       0.703   2.392  18.284  0.00  0.00    +0.000 OA
ATOM     12  C   UNL     1       1.251   2.722  19.335  0.00  0.00    +0.000 C 
ATOM     13  N   UNL     1       0.508   2.762  20.482  0.00  0.00    +0.000 N 
ATOM     14  C   UNL     1       1.074   2.624  21.802  0.00  0.00    +0.000 C 
ATOM     15  C   UNL     1       2.456   3.239  21.923  0.00  0.00    +0.000 C 
ATOM     16  C   UNL     1       3.330   2.785  20.757  0.00  0.00    +0.000 C 
ATOM     17  C   UNL     1       2.730   3.182  19.391  0.00  0.00    +0.000 C 
ATOM     18  H   UNL     1      -0.439   2.425  20.338  0.00  0.00    +0.000 HD
ENDBRANCH   1  17
TORSDOF 1
ENDMDL
MODEL 6
REMARK VINA RESULT:      -6.2      2.016      5.579
REMARK  Name = 
REMARK  1 active torsions:
REMARK  status: ('A' for Active; 'I' for Inactive)
REMARK    1  A    between atoms: C_7  and  N_8
REMARK                            x       y       z     vdW  Elec       q    Type
REMARK                         _______ _______ _______ _____ _____    ______ ____
ROOT
ATOM      1  N   UNL     1       4.137   4.096  18.830  0.00  0.00    +0.000 NA
ATOM      2  C   UNL     1       5.250   5.016  19.175  0.00  0.00    +0.000 C 
ATOM      3  C   UNL     1       5.774   5.891  18.010  0.00  0.00    +0.000 C 
ATOM      4  N   UNL     1       6.173   5.104  16.828  0.00  0.00    +0.000 NA
ATOM      5  C   UNL     1       6.478   5.989  15.696  0.00  0.00    +0.000 C 
ATOM      6  C   UNL     1       6.984   5.194  14.489  0.00  0.00    +0.000 C 
ATOM      7  C   UNL     1       6.049   4.044  14.123  0.00  0.00    +0.000 C 
ATOM      8  C   UNL     1       5.685   3.216  15.354  0.00  0.00    +0.000 C 
ATOM      9  C   UNL     1       5.127   4.126  16.459  0.00  0.00    +0.000 C 
ATOM     10  C   UNL     1       4.623   3.289  17.675  0.00  0.00    +0.000 C 
ENDROOT
BRANCH   1  17
ATOM     11  O   UNL     1       2.637   6.768  19.925  0.00  0.00    +0.000 OA
ATOM     12  C   UNL     1       2.298   5.604  19.714  0.00  0.00    +0.000 C 
ATOM     13  N   UNL     1       1.473   4.984  20.611  0.00  0.00    +0.000 N 
ATOM     14  C   UNL     1       0.613   3.878  20.270  0.00  0.00    +0.000 C 
ATOM     15  C   UNL     1       1.217   2.956  19.226  0.00  0.00    +0.000 C 
ATOM     16  C   UNL     1       1.764   3.777  18.063  0.00  0.00    +0.000 C 
ATOM     17  C   UNL     1       2.843   4.784  18.518  0.00  0.00    +0.000 C 
ATOM     18  H   UNL     1       1.161   5.614  21.345  0.00  0.00    +0.000 HD
ENDBRANCH   1  17
TORSDOF 1
ENDMDL
MODEL 7
REMARK VINA RESULT:      -5.9      2.056      5.745
REMARK  Name = 
REMARK  1 active torsions:
REMARK  status: ('A' for Active; 'I' for Inactive)
REMARK    1  A    between atoms: C_7  and  N_8
REMARK                            x       y       z     vdW  Elec       q    Type
REMARK                         _______ _______ _______ _____ _____    ______ ____
ROOT
ATOM      1  N   UNL     1       2.923   4.590  18.084  0.00  0.00    +0.000 NA
ATOM      2  C   UNL     1       3.345   3.749  16.936  0.00  0.00    +0.000 C 
ATOM      3  C   UNL     1       4.873   3.654  16.706  0.00  0.00    +0.000 C 
ATOM      4  N   UNL     1       5.522   4.973  16.578  0.00  0.00    +0.000 NA
ATOM      5  C   UNL     1       6.984   4.830  16.555  0.00  0.00    +0.000 C 
ATOM      6  C   UNL     1       7.672   6.180  16.328  0.00  0.00    +0.000 C 
ATOM      7  C   UNL     1       7.184   7.247  17.304  0.00  0.00    +0.000 C 
ATOM      8  C   UNL     1       5.657   7.284  17.363  0.00  0.00    +0.000 C 
ATOM      9  C   UNL     1       5.104   5.883  17.666  0.00  0.00    +0.000 C 
ATOM     10  C   UNL     1       3.558   5.921  17.864  0.00  0.00    +0.000 C 
ENDROOT
BRANCH   1  17
ATOM     11  O   UNL     1       3.779   1.648  19.178  0.00  0.00    +0.000 OA
ATOM     12  C   UNL     1       2.974   2.509  19.533  0.00  0.00    +0.000 C 
ATOM     13  N   UNL     1       1.737   2.117  19.964  0.00  0.00    +0.000 N 
ATOM     14  C   UNL     1       0.918   2.903  20.854  0.00  0.00    +0.000 C 
ATOM     15  C   UNL     1       1.066   4.398  20.633  0.00  0.00    +0.000 C 
ATOM     16  C   UNL     1       2.545   4.768  20.563  0.00  0.00    +0.000 C 
ATOM     17  C   UNL     1       3.278   4.024  19.425  0.00  0.00    +0.000 C 
ATOM     18  H   UNL     1       1.649   1.106  20.013  0.00  0.00    +0.000 HD
ENDBRANCH   1  17
TORSDOF 1
ENDMDL
MODEL 8
REMARK VINA RESULT:      -5.8      1.741      2.633
REMARK  Name = 
REMARK  1 active torsions:
REMARK  status: ('A' for Active; 'I' for Inactive)
REMARK    1  A    between atoms: C_7  and  N_8
REMARK                            x       y       z     vdW  Elec       q    Type
REMARK                         _______ _______ _______ _____ _____    ______ ____
ROOT
ATOM      1  N   UNL     1       5.269   4.000  17.802  0.00  0.00    +0.000 NA
ATOM      2  C   UNL     1       4.680   2.723  17.326  0.00  0.00    +0.000 C 
ATOM      3  C   UNL     1       3.134   2.652  17.354  0.00  0.00    +0.000 C 
ATOM      4  N   UNL     1       2.564   2.959  18.680  0.00  0.00    +0.000 NA
ATOM      5  C   UNL     1       1.101   3.064  18.603  0.00  0.00    +0.000 C 
ATOM      6  C   UNL     1       0.485   3.290  19.987  0.00  0.00    +0.000 C 
ATOM      7  C   UNL     1       1.137   4.456  20.725  0.00  0.00    +0.000 C 
ATOM      8  C   UNL     1       2.662   4.349  20.689  0.00  0.00    +0.000 C 
ATOM      9  C   UNL     1       3.148   4.197  19.240  0.00  0.00    +0.000 C 
ATOM     10  C   UNL     1       4.705   4.221  19.165  0.00  0.00    +0.000 C 
ENDROOT
BRANCH   1  17
ATOM     11  O   UNL     1       5.587   4.552  14.612  0.00  0.00    +0.000 OA
ATOM     12  C   UNL     1       5.905   5.156  15.636  0.00  0.00    +0.000 C 
ATOM     13  N   UNL     1       7.125   5.770  15.687  0.00  0.00    +0.000 N 
ATOM     14  C   UNL     1       7.418   6.890  16.549  0.00  0.00    +0.000 C 
ATOM     15  C   UNL     1       6.688   6.821  17.878  0.00  0.00    +0.000 C 
ATOM     16  C   UNL     1       5.213   6.508  17.646  0.00  0.00    +0.000 C 
ATOM     17  C   UNL     1       5.013   5.169  16.902  0.00  0.00    +0.000 C 
ATOM     18  H   UNL     1       7.620   5.717  14.801  0.00  0.00    +0.000 HD
ENDBRANCH   1  17
TORSDOF 1
ENDMDL
MODEL 9
REMARK VINA RESULT:      -5.7      2.785      5.724
REMARK  Name = 
REMARK  1 active torsions:
REMARK  status: ('A' for Active; 'I' for Inactive)
REMARK    1  A    between atoms: C_7  and  N_8
REMARK                            x       y       z     vdW  Elec       q    Type
REMARK                         _______ _______ _______ _____ _____    ______ ____
ROOT
ATOM      1  N   UNL     1       3.032   5.203  19.165  0.00  0.00    +0.000 NA
ATOM      2  C   UNL     1       2.836   6.537  18.543  0.00  0.00    +0.000 C 
ATOM      3  C   UNL     1       3.902   6.946  17.497  0.00  0.00    +0.000 C 
ATOM      4  N   UNL     1       5.280   6.875  18.016  0.00  0.00    +0.000 NA
ATOM      5  C   UNL     1       6.252   7.086  16.935  0.00  0.00    +0.000 C 
ATOM      6  C   UNL     1       7.686   7.109  17.472  0.00  0.00    +0.000 C 
ATOM      7  C   UNL     1       7.998   5.890  18.336  0.00  0.00    +0.000 C 
ATOM      8  C   UNL     1       6.905   5.658  19.379  0.00  0.00    +0.000 C 
ATOM      9  C   UNL     1       5.529   5.587  18.698  0.00  0.00    +0.000 C 
ATOM     10  C   UNL     1       4.414   5.218  19.724  0.00  0.00    +0.000 C 
ENDROOT
BRANCH   1  17
ATOM     11  O   UNL     1       0.731   4.375  17.019  0.00  0.00    +0.000 OA
ATOM     12  C   UNL     1       1.330   3.791  17.923  0.00  0.00    +0.000 C 
ATOM     13  N   UNL     1       0.631   2.943  18.736  0.00  0.00    +0.000 N 
ATOM     14  C   UNL     1       1.239   1.851  19.457  0.00  0.00    +0.000 C 
ATOM     15  C   UNL     1       2.648   2.162  19.929  0.00  0.00    +0.000 C 
ATOM     16  C   UNL     1       3.460   2.756  18.782  0.00  0.00    +0.000 C 
ATOM     17  C   UNL     1       2.826   4.052  18.230  0.00  0.00    +0.000 C 
ATOM     18  H   UNL     1      -0.333   2.831  18.437  0.00  0.00    +0.000 HD
ENDBRANCH   1  17
TORSDOF 1
ENDMDL
