MODEL 1
REMARK VINA RESULT:      -6.9      0.000      0.000
REMARK  Name = 
REMARK  9 active torsions:
REMARK  status: ('A' for Active; 'I' for Inactive)
REMARK    1  A    between atoms: C_1  and  C_2
REMARK    2  A    between atoms: C_4  and  C_5
REMARK    3  A    between atoms: C_5  and  C_7
REMARK    4  A    between atoms: C_7  and  C_8
REMARK    5  A    between atoms: C_7  and  C_9
REMARK    6  A    between atoms: C_10  and  O_11
REMARK    7  A    between atoms: C_14  and  O_15
REMARK    8  A    between atoms: O_15  and  C_16
REMARK    9  A    between atoms: C_16  and  C_18
REMARK                            x       y       z     vdW  Elec       q    Type
REMARK                         _______ _______ _______ _____ _____    ______ ____
ROOT
ATOM      1  C   UNL     1       2.550   7.908  18.063  0.00  0.00    +0.000 C 
ATOM      2  C   UNL     1       3.338   6.692  17.670  0.00  0.00    +0.000 A 
ATOM      3  C   UNL     1       4.645   6.876  17.194  0.00  0.00    +0.000 A 
ATOM      4  C   UNL     1       5.483   5.786  16.928  0.00  0.00    +0.000 A 
ATOM      5  C   UNL     1       4.974   4.484  17.019  0.00  0.00    +0.000 A 
ATOM      6  C   UNL     1       3.656   4.278  17.459  0.00  0.00    +0.000 A 
ATOM      7 BR   UNL     1       2.972   2.511  17.647  0.00  0.00    +0.000 Br
ATOM      8  C   UNL     1       2.858   5.382  17.808  0.00  0.00    +0.000 A 
ENDROOT
BRANCH   4   9
ATOM      9  C   UNL     1       6.939   6.015  16.650  0.00  0.00    +0.000 C 
ATOM     10  O   UNL     1       7.356   5.746  15.521  0.00  0.00    +0.000 OA
BRANCH   9  11
ATOM     11  C   UNL     1       7.861   6.495  17.782  0.00  0.00    +0.000 C 
ATOM     12  C   UNL     1       7.839   8.020  17.888  0.00  0.00    +0.000 C 
ATOM     13  C   UNL     1       7.462   5.885  19.125  0.00  0.00    +0.000 C 
ENDBRANCH   9  11
ENDBRANCH   4   9
BRANCH   5  14
ATOM     14  O   UNL     1       5.757   3.391  16.735  0.00  0.00    +0.000 OA
ATOM     15  H   UNL     1       5.178   2.603  16.628  0.00  0.00    +0.000 HD
ENDBRANCH   5  14
BRANCH   8  16
ATOM     16  O   UNL     1       1.667   5.135  18.535  0.00  0.00    +0.000 OA
BRANCH  16  17
ATOM     17  C   UNL     1       1.661   5.066  19.929  0.00  0.00    +0.000 C 
ATOM     18  O   UNL     1       2.255   5.818  20.689  0.00  0.00    +0.000 OA
BRANCH  17  19
ATOM     19  C   UNL     1       0.822   3.879  20.349  0.00  0.00    +0.000 C 
ATOM     20  I   UNL     1       1.977   2.627  21.602  0.00  0.00    +0.000 I 
ENDBRANCH  17  19
ENDBRANCH  16  17
ENDBRANCH   8  16
TORSDOF 6
ENDMDL
MODEL 2
REMARK VINA RESULT:      -6.6      2.321      3.544
REMARK  Name = 
REMARK  9 active torsions:
REMARK  status: ('A' for Active; 'I' for Inactive)
REMARK    1  A    between atoms: C_1  and  C_2
REMARK    2  A    between atoms: C_4  and  C_5
REMARK    3  A    between atoms: C_5  and  C_7
REMARK    4  A    between atoms: C_7  and  C_8
REMARK    5  A    between atoms: C_7  and  C_9
REMARK    6  A    between atoms: C_10  and  O_11
REMARK    7  A    between atoms: C_14  and  O_15
REMARK    8  A    between atoms: O_15  and  C_16
REMARK    9  A    between atoms: C_16  and  C_18
REMARK                            x       y       z     vdW  Elec       q    Type
REMARK                         _______ _______ _______ _____ _____    ______ ____
ROOT
ATOM      1  C   UNL     1       3.463   2.297  17.749  0.00  0.00    +0.000 C 
ATOM      2  C   UNL     1       4.018   3.611  17.280  0.00  0.00    +0.000 A 
ATOM      3  C   UNL     1       5.122   3.592  16.414  0.00  0.00    +0.000 A 
ATOM      4  C   UNL     1       5.613   4.769  15.836  0.00  0.00    +0.000 A 
ATOM      5  C   UNL     1       5.077   6.005  16.219  0.00  0.00    +0.000 A 
ATOM      6  C   UNL     1       3.995   6.050  17.114  0.00  0.00    +0.000 A 
ATOM      7 BR   UNL     1       3.216   7.719  17.596  0.00  0.00    +0.000 Br
ATOM      8  C   UNL     1       3.456   4.851  17.615  0.00  0.00    +0.000 A 
ENDROOT
BRANCH   4   9
ATOM      9  C   UNL     1       6.634   4.691  14.739  0.00  0.00    +0.000 C 
ATOM     10  O   UNL     1       7.634   5.405  14.835  0.00  0.00    +0.000 OA
BRANCH   9  11
ATOM     11  C   UNL     1       6.367   3.798  13.517  0.00  0.00    +0.000 C 
ATOM     12  C   UNL     1       4.906   3.904  13.078  0.00  0.00    +0.000 C 
ATOM     13  C   UNL     1       7.279   4.162  12.347  0.00  0.00    +0.000 C 
ENDBRANCH   9  11
ENDBRANCH   4   9
BRANCH   5  14
ATOM     14  O   UNL     1       5.556   7.183  15.698  0.00  0.00    +0.000 OA
ATOM     15  H   UNL     1       4.834   7.851  15.705  0.00  0.00    +0.000 HD
ENDBRANCH   5  14
BRANCH   8  16
ATOM     16  O   UNL     1       2.190   4.909  18.250  0.00  0.00    +0.000 OA
BRANCH  16  17
ATOM     17  C   UNL     1       2.068   4.939  19.640  0.00  0.00    +0.000 C 
ATOM     18  O   UNL     1       2.710   5.647  20.403  0.00  0.00    +0.000 OA
BRANCH  17  19
ATOM     19  C   UNL     1       1.030   3.919  20.054  0.00  0.00    +0.000 C 
ATOM     20  I   UNL     1       1.833   2.702  21.587  0.00  0.00    +0.000 I 
ENDBRANCH  17  19
ENDBRANCH  16  17
ENDBRANCH   8  16
TORSDOF 6
ENDMDL
MODEL 3
REMARK VINA RESULT:      -6.5      2.504      3.819
REMARK  Name = 
REMARK  9 active torsions:
REMARK  status: ('A' for Active; 'I' for Inactive)
REMARK    1  A    between atoms: C_1  and  C_2
REMARK    2  A    between atoms: C_4  and  C_5
REMARK    3  A    between atoms: C_5  and  C_7
REMARK    4  A    between atoms: C_7  and  C_8
REMARK    5  A    between atoms: C_7  and  C_9
REMARK    6  A    between atoms: C_10  and  O_11
REMARK    7  A    between atoms: C_14  and  O_15
REMARK    8  A    between atoms: O_15  and  C_16
REMARK    9  A    between atoms: C_16  and  C_18
REMARK                            x       y       z     vdW  Elec       q    Type
REMARK                         _______ _______ _______ _____ _____    ______ ____
ROOT
ATOM      1  C   UNL     1       4.228   2.164  18.116  0.00  0.00    +0.000 C 
ATOM      2  C   UNL     1       4.536   3.496  17.494  0.00  0.00    +0.000 A 
ATOM      3  C   UNL     1       5.468   3.537  16.446  0.00  0.00    +0.000 A 
ATOM      4  C   UNL     1       5.712   4.718  15.735  0.00  0.00    +0.000 A 
ATOM      5  C   UNL     1       5.109   5.913  16.150  0.00  0.00    +0.000 A 
ATOM      6  C   UNL     1       4.200   5.902  17.221  0.00  0.00    +0.000 A 
ATOM      7 BR   UNL     1       3.326   7.507  17.755  0.00  0.00    +0.000 Br
ATOM      8  C   UNL     1       3.899   4.689  17.866  0.00  0.00    +0.000 A 
ENDROOT
BRANCH   4   9
ATOM      9  C   UNL     1       6.531   4.677  14.478  0.00  0.00    +0.000 C 
ATOM     10  O   UNL     1       7.424   5.515  14.348  0.00  0.00    +0.000 OA
BRANCH   9  11
ATOM     11  C   UNL     1       6.183   3.657  13.381  0.00  0.00    +0.000 C 
ATOM     12  C   UNL     1       4.725   3.807  12.945  0.00  0.00    +0.000 C 
ATOM     13  C   UNL     1       7.097   3.809  12.167  0.00  0.00    +0.000 C 
ENDBRANCH   9  11
ENDBRANCH   4   9
BRANCH   5  14
ATOM     14  O   UNL     1       5.350   7.097  15.496  0.00  0.00    +0.000 OA
ATOM     15  H   UNL     1       4.841   7.105  14.654  0.00  0.00    +0.000 HD
ENDBRANCH   5  14
BRANCH   8  16
ATOM     16  O   UNL     1       2.765   4.653  18.714  0.00  0.00    +0.000 OA
BRANCH  16  17
ATOM     17  C   UNL     1       1.553   4.102  18.295  0.00  0.00    +0.000 C 
ATOM     18  O   UNL     1       1.175   3.994  17.137  0.00  0.00    +0.000 OA
BRANCH  17  19
ATOM     19  C   UNL     1       0.764   3.689  19.518  0.00  0.00    +0.000 C 
ATOM     20  I   UNL     1       2.108   3.268  21.096  0.00  0.00    +0.000 I 
ENDBRANCH  17  19
ENDBRANCH  16  17
ENDBRANCH   8  16
TORSDOF 6
ENDMDL
MODEL 4
REMARK VINA RESULT:      -6.5      2.121      3.245
REMARK  Name = 
REMARK  9 active torsions:
REMARK  status: ('A' for Active; 'I' for Inactive)
REMARK    1  A    between atoms: C_1  and  C_2
REMARK    2  A    between atoms: C_4  and  C_5
REMARK    3  A    between atoms: C_5  and  C_7
REMARK    4  A    between atoms: C_7  and  C_8
REMARK    5  A    between atoms: C_7  and  C_9
REMARK    6  A    between atoms: C_10  and  O_11
REMARK    7  A    between atoms: C_14  and  O_15
REMARK    8  A    between atoms: O_15  and  C_16
REMARK    9  A    between atoms: C_16  and  C_18
REMARK                            x       y       z     vdW  Elec       q    Type
REMARK                         _______ _______ _______ _____ _____    ______ ____
ROOT
ATOM      1  C   UNL     1       3.094   2.287  17.821  0.00  0.00    +0.000 C 
ATOM      2  C   UNL     1       3.759   3.594  17.495  0.00  0.00    +0.000 A 
ATOM      3  C   UNL     1       4.971   3.562  16.789  0.00  0.00    +0.000 A 
ATOM      4  C   UNL     1       5.583   4.739  16.341  0.00  0.00    +0.000 A 
ATOM      5  C   UNL     1       5.046   5.981  16.706  0.00  0.00    +0.000 A 
ATOM      6  C   UNL     1       3.853   6.036  17.445  0.00  0.00    +0.000 A 
ATOM      7 BR   UNL     1       3.079   7.717  17.895  0.00  0.00    +0.000 Br
ATOM      8  C   UNL     1       3.204   4.843  17.809  0.00  0.00    +0.000 A 
ENDROOT
BRANCH   4   9
ATOM      9  C   UNL     1       6.742   4.662  15.392  0.00  0.00    +0.000 C 
ATOM     10  O   UNL     1       7.867   4.513  15.872  0.00  0.00    +0.000 OA
BRANCH   9  11
ATOM     11  C   UNL     1       6.502   4.845  13.885  0.00  0.00    +0.000 C 
ATOM     12  C   UNL     1       7.804   5.203  13.168  0.00  0.00    +0.000 C 
ATOM     13  C   UNL     1       5.902   3.589  13.257  0.00  0.00    +0.000 C 
ENDBRANCH   9  11
ENDBRANCH   4   9
BRANCH   5  14
ATOM     14  O   UNL     1       5.637   7.157  16.311  0.00  0.00    +0.000 OA
ATOM     15  H   UNL     1       5.658   7.189  15.328  0.00  0.00    +0.000 HD
ENDBRANCH   5  14
BRANCH   8  16
ATOM     16  O   UNL     1       1.866   4.930  18.267  0.00  0.00    +0.000 OA
BRANCH  16  17
ATOM     17  C   UNL     1       1.557   4.966  19.628  0.00  0.00    +0.000 C 
ATOM     18  O   UNL     1       1.834   5.870  20.404  0.00  0.00    +0.000 OA
BRANCH  17  19
ATOM     19  C   UNL     1       0.850   3.681  19.996  0.00  0.00    +0.000 C 
ATOM     20  I   UNL     1       1.908   2.739  21.567  0.00  0.00    +0.000 I 
ENDBRANCH  17  19
ENDBRANCH  16  17
ENDBRANCH   8  16
TORSDOF 6
ENDMDL
MODEL 5
REMARK VINA RESULT:      -6.4      3.384      4.630
REMARK  Name = 
REMARK  9 active torsions:
REMARK  status: ('A' for Active; 'I' for Inactive)
REMARK    1  A    between atoms: C_1  and  C_2
REMARK    2  A    between atoms: C_4  and  C_5
REMARK    3  A    between atoms: C_5  and  C_7
REMARK    4  A    between atoms: C_7  and  C_8
REMARK    5  A    between atoms: C_7  and  C_9
REMARK    6  A    between atoms: C_10  and  O_11
REMARK    7  A    between atoms: C_14  and  O_15
REMARK    8  A    between atoms: O_15  and  C_16
REMARK    9  A    between atoms: C_16  and  C_18
REMARK                            x       y       z     vdW  Elec       q    Type
REMARK                         _______ _______ _______ _____ _____    ______ ____
ROOT
ATOM      1  C   UNL     1       3.166   3.547  16.825  0.00  0.00    +0.000 C 
ATOM      2  C   UNL     1       4.462   4.089  16.293  0.00  0.00    +0.000 A 
ATOM      3  C   UNL     1       4.911   3.626  15.047  0.00  0.00    +0.000 A 
ATOM      4  C   UNL     1       6.041   4.177  14.431  0.00  0.00    +0.000 A 
ATOM      5  C   UNL     1       6.814   5.121  15.119  0.00  0.00    +0.000 A 
ATOM      6  C   UNL     1       6.403   5.572  16.385  0.00  0.00    +0.000 A 
ATOM      7 BR   UNL     1       7.409   6.901  17.305  0.00  0.00    +0.000 Br
ATOM      8  C   UNL     1       5.215   5.073  16.949  0.00  0.00    +0.000 A 
ENDROOT
BRANCH   4   9
ATOM      9  C   UNL     1       6.356   3.831  13.005  0.00  0.00    +0.000 C 
ATOM     10  O   UNL     1       7.212   4.504  12.428  0.00  0.00    +0.000 OA
BRANCH   9  11
ATOM     11  C   UNL     1       5.561   2.719  12.302  0.00  0.00    +0.000 C 
ATOM     12  C   UNL     1       4.436   3.312  11.454  0.00  0.00    +0.000 C 
ATOM     13  C   UNL     1       6.464   1.857  11.421  0.00  0.00    +0.000 C 
ENDBRANCH   9  11
ENDBRANCH   4   9
BRANCH   5  14
ATOM     14  O   UNL     1       7.947   5.660  14.559  0.00  0.00    +0.000 OA
ATOM     15  H   UNL     1       7.920   6.637  14.665  0.00  0.00    +0.000 HD
ENDBRANCH   5  14
BRANCH   8  16
ATOM     16  O   UNL     1       4.667   5.764  18.058  0.00  0.00    +0.000 OA
BRANCH  16  17
ATOM     17  C   UNL     1       4.613   5.187  19.328  0.00  0.00    +0.000 C 
ATOM     18  O   UNL     1       5.465   4.465  19.826  0.00  0.00    +0.000 OA
BRANCH  17  19
ATOM     19  C   UNL     1       3.304   5.575  19.978  0.00  0.00    +0.000 C 
ATOM     20  I   UNL     1       2.315   3.824  20.634  0.00  0.00    +0.000 I 
ENDBRANCH  17  19
ENDBRANCH  16  17
ENDBRANCH   8  16
TORSDOF 6
ENDMDL
MODEL 6
REMARK VINA RESULT:      -6.2      2.664      3.798
REMARK  Name = 
REMARK  9 active torsions:
REMARK  status: ('A' for Active; 'I' for Inactive)
REMARK    1  A    between atoms: C_1  and  C_2
REMARK    2  A    between atoms: C_4  and  C_5
REMARK    3  A    between atoms: C_5  and  C_7
REMARK    4  A    between atoms: C_7  and  C_8
REMARK    5  A    between atoms: C_7  and  C_9
REMARK    6  A    between atoms: C_10  and  O_11
REMARK    7  A    between atoms: C_14  and  O_15
REMARK    8  A    between atoms: O_15  and  C_16
REMARK    9  A    between atoms: C_16  and  C_18
REMARK                            x       y       z     vdW  Elec       q    Type
REMARK                         _______ _______ _______ _____ _____    ______ ____
ROOT
ATOM      1  C   UNL     1       2.542   3.210  17.115  0.00  0.00    +0.000 C 
ATOM      2  C   UNL     1       3.954   3.716  17.031  0.00  0.00    +0.000 A 
ATOM      3  C   UNL     1       4.577   3.732  15.774  0.00  0.00    +0.000 A 
ATOM      4  C   UNL     1       5.843   4.305  15.596  0.00  0.00    +0.000 A 
ATOM      5  C   UNL     1       6.558   4.763  16.711  0.00  0.00    +0.000 A 
ATOM      6  C   UNL     1       5.967   4.722  17.984  0.00  0.00    +0.000 A 
ATOM      7 BR   UNL     1       6.903   5.399  19.499  0.00  0.00    +0.000 Br
ATOM      8  C   UNL     1       4.659   4.226  18.130  0.00  0.00    +0.000 A 
ENDROOT
BRANCH   4   9
ATOM      9  C   UNL     1       6.377   4.518  14.211  0.00  0.00    +0.000 C 
ATOM     10  O   UNL     1       6.975   5.571  13.983  0.00  0.00    +0.000 OA
BRANCH   9  11
ATOM     11  C   UNL     1       6.098   3.470  13.121  0.00  0.00    +0.000 C 
ATOM     12  C   UNL     1       4.730   3.707  12.480  0.00  0.00    +0.000 C 
ATOM     13  C   UNL     1       7.177   3.485  12.041  0.00  0.00    +0.000 C 
ENDBRANCH   9  11
ENDBRANCH   4   9
BRANCH   5  14
ATOM     14  O   UNL     1       7.815   5.302  16.579  0.00  0.00    +0.000 OA
ATOM     15  H   UNL     1       7.844   6.161  17.056  0.00  0.00    +0.000 HD
ENDBRANCH   5  14
BRANCH   8  16
ATOM     16  O   UNL     1       3.984   4.487  19.348  0.00  0.00    +0.000 OA
BRANCH  16  17
ATOM     17  C   UNL     1       3.141   5.589  19.498  0.00  0.00    +0.000 C 
ATOM     18  O   UNL     1       3.200   6.630  18.859  0.00  0.00    +0.000 OA
BRANCH  17  19
ATOM     19  C   UNL     1       2.161   5.298  20.612  0.00  0.00    +0.000 C 
ATOM     20  I   UNL     1       2.187   3.224  21.030  0.00  0.00    +0.000 I 
ENDBRANCH  17  19
ENDBRANCH  16  17
ENDBRANCH   8  16
TORSDOF 6
ENDMDL
MODEL 7
REMARK VINA RESULT:      -6.2      2.978      4.100
REMARK  Name = 
REMARK  9 active torsions:
REMARK  status: ('A' for Active; 'I' for Inactive)
REMARK    1  A    between atoms: C_1  and  C_2
REMARK    2  A    between atoms: C_4  and  C_5
REMARK    3  A    between atoms: C_5  and  C_7
REMARK    4  A    between atoms: C_7  and  C_8
REMARK    5  A    between atoms: C_7  and  C_9
REMARK    6  A    between atoms: C_10  and  O_11
REMARK    7  A    between atoms: C_14  and  O_15
REMARK    8  A    between atoms: O_15  and  C_16
REMARK    9  A    between atoms: C_16  and  C_18
REMARK                            x       y       z     vdW  Elec       q    Type
REMARK                         _______ _______ _______ _____ _____    ______ ____
ROOT
ATOM      1  C   UNL     1       2.826   2.694  17.226  0.00  0.00    +0.000 C 
ATOM      2  C   UNL     1       4.161   3.368  17.094  0.00  0.00    +0.000 A 
ATOM      3  C   UNL     1       4.712   3.501  15.810  0.00  0.00    +0.000 A 
ATOM      4  C   UNL     1       5.889   4.227  15.595  0.00  0.00    +0.000 A 
ATOM      5  C   UNL     1       6.603   4.729  16.691  0.00  0.00    +0.000 A 
ATOM      6  C   UNL     1       6.089   4.575  17.989  0.00  0.00    +0.000 A 
ATOM      7 BR   UNL     1       7.016   5.306  19.483  0.00  0.00    +0.000 Br
ATOM      8  C   UNL     1       4.858   3.920  18.178  0.00  0.00    +0.000 A 
ENDROOT
BRANCH   4   9
ATOM      9  C   UNL     1       6.321   4.550  14.195  0.00  0.00    +0.000 C 
ATOM     10  O   UNL     1       6.773   5.676  13.980  0.00  0.00    +0.000 OA
BRANCH   9  11
ATOM     11  C   UNL     1       6.118   3.511  13.081  0.00  0.00    +0.000 C 
ATOM     12  C   UNL     1       4.727   3.648  12.460  0.00  0.00    +0.000 C 
ATOM     13  C   UNL     1       7.179   3.645  11.990  0.00  0.00    +0.000 C 
ENDBRANCH   9  11
ENDBRANCH   4   9
BRANCH   5  14
ATOM     14  O   UNL     1       7.779   5.419  16.521  0.00  0.00    +0.000 OA
ATOM     15  H   UNL     1       7.688   6.308  16.931  0.00  0.00    +0.000 HD
ENDBRANCH   5  14
BRANCH   8  16
ATOM     16  O   UNL     1       4.221   4.057  19.436  0.00  0.00    +0.000 OA
BRANCH  16  17
ATOM     17  C   UNL     1       4.071   2.974  20.303  0.00  0.00    +0.000 C 
ATOM     18  O   UNL     1       4.890   2.085  20.491  0.00  0.00    +0.000 OA
BRANCH  17  19
ATOM     19  C   UNL     1       2.707   3.060  20.950  0.00  0.00    +0.000 C 
ATOM     20  I   UNL     1       1.838   4.931  20.480  0.00  0.00    +0.000 I 
ENDBRANCH  17  19
ENDBRANCH  16  17
ENDBRANCH   8  16
TORSDOF 6
ENDMDL
MODEL 8
REMARK VINA RESULT:      -6.1      1.787      2.638
REMARK  Name = 
REMARK  9 active torsions:
REMARK  status: ('A' for Active; 'I' for Inactive)
REMARK    1  A    between atoms: C_1  and  C_2
REMARK    2  A    between atoms: C_4  and  C_5
REMARK    3  A    between atoms: C_5  and  C_7
REMARK    4  A    between atoms: C_7  and  C_8
REMARK    5  A    between atoms: C_7  and  C_9
REMARK    6  A    between atoms: C_10  and  O_11
REMARK    7  A    between atoms: C_14  and  O_15
REMARK    8  A    between atoms: O_15  and  C_16
REMARK    9  A    between atoms: C_16  and  C_18
REMARK                            x       y       z     vdW  Elec       q    Type
REMARK                         _______ _______ _______ _____ _____    ______ ____
ROOT
ATOM      1  C   UNL     1       3.601   2.078  17.764  0.00  0.00    +0.000 C 
ATOM      2  C   UNL     1       3.860   3.557  17.761  0.00  0.00    +0.000 A 
ATOM      3  C   UNL     1       5.176   3.998  17.551  0.00  0.00    +0.000 A 
ATOM      4  C   UNL     1       5.473   5.359  17.410  0.00  0.00    +0.000 A 
ATOM      5  C   UNL     1       4.465   6.312  17.604  0.00  0.00    +0.000 A 
ATOM      6  C   UNL     1       3.147   5.893  17.854  0.00  0.00    +0.000 A 
ATOM      7 BR   UNL     1       1.754   7.176  18.058  0.00  0.00    +0.000 Br
ATOM      8  C   UNL     1       2.850   4.519  17.902  0.00  0.00    +0.000 A 
ENDROOT
BRANCH   4   9
ATOM      9  C   UNL     1       6.838   5.781  16.952  0.00  0.00    +0.000 C 
ATOM     10  O   UNL     1       7.103   5.664  15.754  0.00  0.00    +0.000 OA
BRANCH   9  11
ATOM     11  C   UNL     1       7.869   6.262  17.986  0.00  0.00    +0.000 C 
ATOM     12  C   UNL     1       7.964   7.788  17.985  0.00  0.00    +0.000 C 
ATOM     13  C   UNL     1       7.523   5.772  19.391  0.00  0.00    +0.000 C 
ENDBRANCH   9  11
ENDBRANCH   4   9
BRANCH   5  14
ATOM     14  O   UNL     1       4.726   7.657  17.505  0.00  0.00    +0.000 OA
ATOM     15  H   UNL     1       5.684   7.808  17.667  0.00  0.00    +0.000 HD
ENDBRANCH   5  14
BRANCH   8  16
ATOM     16  O   UNL     1       1.488   4.133  17.838  0.00  0.00    +0.000 OA
BRANCH  16  17
ATOM     17  C   UNL     1       0.890   3.385  18.852  0.00  0.00    +0.000 C 
ATOM     18  O   UNL     1       0.299   2.323  18.709  0.00  0.00    +0.000 OA
BRANCH  17  19
ATOM     19  C   UNL     1       1.063   4.122  20.162  0.00  0.00    +0.000 C 
ATOM     20  I   UNL     1       2.094   2.875  21.524  0.00  0.00    +0.000 I 
ENDBRANCH  17  19
ENDBRANCH  16  17
ENDBRANCH   8  16
TORSDOF 6
ENDMDL
MODEL 9
REMARK VINA RESULT:      -6.0      3.518      4.874
REMARK  Name = 
REMARK  9 active torsions:
REMARK  status: ('A' for Active; 'I' for Inactive)
REMARK    1  A    between atoms: C_1  and  C_2
REMARK    2  A    between atoms: C_4  and  C_5
REMARK    3  A    between atoms: C_5  and  C_7
REMARK    4  A    between atoms: C_7  and  C_8
REMARK    5  A    between atoms: C_7  and  C_9
REMARK    6  A    between atoms: C_10  and  O_11
REMARK    7  A    between atoms: C_14  and  O_15
REMARK    8  A    between atoms: O_15  and  C_16
REMARK    9  A    between atoms: C_16  and  C_18
REMARK                            x       y       z     vdW  Elec       q    Type
REMARK                         _______ _______ _______ _____ _____    ______ ____
ROOT
ATOM      1  C   UNL     1       3.383   3.183  17.167  0.00  0.00    +0.000 C 
ATOM      2  C   UNL     1       4.606   3.835  16.589  0.00  0.00    +0.000 A 
ATOM      3  C   UNL     1       5.003   3.468  15.294  0.00  0.00    +0.000 A 
ATOM      4  C   UNL     1       6.055   4.123  14.643  0.00  0.00    +0.000 A 
ATOM      5  C   UNL     1       6.810   5.079  15.335  0.00  0.00    +0.000 A 
ATOM      6  C   UNL     1       6.454   5.434  16.646  0.00  0.00    +0.000 A 
ATOM      7 BR   UNL     1       7.433   6.776  17.577  0.00  0.00    +0.000 Br
ATOM      8  C   UNL     1       5.338   4.830  17.253  0.00  0.00    +0.000 A 
ENDROOT
BRANCH   4   9
ATOM      9  C   UNL     1       6.299   3.873  13.183  0.00  0.00    +0.000 C 
ATOM     10  O   UNL     1       7.151   4.562  12.619  0.00  0.00    +0.000 OA
BRANCH   9  11
ATOM     11  C   UNL     1       5.440   2.840  12.437  0.00  0.00    +0.000 C 
ATOM     12  C   UNL     1       4.370   3.534  11.594  0.00  0.00    +0.000 C 
ATOM     13  C   UNL     1       6.294   1.943  11.543  0.00  0.00    +0.000 C 
ENDBRANCH   9  11
ENDBRANCH   4   9
BRANCH   5  14
ATOM     14  O   UNL     1       7.870   5.719  14.738  0.00  0.00    +0.000 OA
ATOM     15  H   UNL     1       7.527   6.305  14.027  0.00  0.00    +0.000 HD
ENDBRANCH   5  14
BRANCH   8  16
ATOM     16  O   UNL     1       4.821   5.425  18.430  0.00  0.00    +0.000 OA
BRANCH  16  17
ATOM     17  C   UNL     1       3.595   6.091  18.438  0.00  0.00    +0.000 C 
ATOM     18  O   UNL     1       2.591   5.742  19.043  0.00  0.00    +0.000 OA
BRANCH  17  19
ATOM     19  C   UNL     1       3.700   7.305  17.541  0.00  0.00    +0.000 C 
ATOM     20  I   UNL     1       2.135   8.648  18.013  0.00  0.00    +0.000 I 
ENDBRANCH  17  19
ENDBRANCH  16  17
ENDBRANCH   8  16
TORSDOF 6
ENDMDL
