MODEL 1
REMARK VINA RESULT:      -8.0      0.000      0.000
REMARK  Name = 
REMARK  5 active torsions:
REMARK  status: ('A' for Active; 'I' for Inactive)
REMARK    1  A    between atoms: C_8  and  C_9
REMARK    2  A    between atoms: C_9  and  O_10
REMARK    3  A    between atoms: O_10  and  C_11
REMARK    4  A    between atoms: C_11  and  C_12
REMARK    5  A    between atoms: C_20  and  C_21
REMARK                            x       y       z     vdW  Elec       q    Type
REMARK                         _______ _______ _______ _____ _____    ______ ____
ROOT
ATOM      1  O   UNL     1       5.661   6.569  15.403  0.00  0.00    +0.000 OA
ATOM      2  C   UNL     1       5.615   6.611  16.625  0.00  0.00    +0.000 C 
ATOM      3  N   UNL     1       4.613   6.113  17.457  0.00  0.00    +0.000 N 
ATOM      4  C   UNL     1       4.451   6.501  18.867  0.00  0.00    +0.000 C 
ATOM      5  C   UNL     1       2.984   6.701  19.243  0.00  0.00    +0.000 C 
ATOM      6  C   UNL     1       2.105   5.640  18.664  0.00  0.00    +0.000 C 
ATOM      7  C   UNL     1       2.522   4.848  17.669  0.00  0.00    +0.000 C 
ATOM      8  C   UNL     1       3.880   4.921  17.000  0.00  0.00    +0.000 C 
ATOM      9  N   UNL     1       6.671   7.210  17.327  0.00  0.00    +0.000 N 
ATOM     10  C   UNL     1       7.163   8.487  17.226  0.00  0.00    +0.000 A 
ATOM     11  C   UNL     1       8.147   8.550  18.188  0.00  0.00    +0.000 A 
ATOM     12  N   UNL     1       8.262   7.326  18.795  0.00  0.00    +0.000 NA
ATOM     13  N   UNL     1       7.351   6.516  18.278  0.00  0.00    +0.000 NA
ENDROOT
BRANCH  11  14
ATOM     14  C   UNL     1       8.941   9.707  18.562  0.00  0.00    +0.000 A 
ATOM     15  C   UNL     1       9.518  10.551  17.600  0.00  0.00    +0.000 A 
ATOM     16  C   UNL     1      10.271  11.660  17.989  0.00  0.00    +0.000 A 
ATOM     17  C   UNL     1      10.458  11.936  19.341  0.00  0.00    +0.000 A 
ATOM     18 BR   UNL     1      11.484  13.432  19.862  0.00  0.00    +0.000 Br
ATOM     19  C   UNL     1       9.886  11.115  20.311  0.00  0.00    +0.000 A 
ATOM     20  C   UNL     1       9.128  10.007  19.920  0.00  0.00    +0.000 A 
ENDBRANCH  11  14
BRANCH   8  21
ATOM     21  C   UNL     1       4.711   3.655  17.309  0.00  0.00    +0.000 C 
BRANCH  21  22
ATOM     22  O   UNL     1       3.949   2.459  17.134  0.00  0.00    +0.000 OA
BRANCH  22  23
ATOM     23  C   UNL     1       4.047   1.632  18.294  0.00  0.00    +0.000 C 
BRANCH  23  24
ATOM     24  C   UNL     1       3.055   2.096  19.323  0.00  0.00    +0.000 A 
ATOM     25  C   UNL     1       3.497   2.653  20.531  0.00  0.00    +0.000 A 
ATOM     26  C   UNL     1       2.580   3.088  21.488  0.00  0.00    +0.000 A 
ATOM     27  C   UNL     1       1.213   2.974  21.246  0.00  0.00    +0.000 A 
ATOM     28  C   UNL     1       0.760   2.431  20.045  0.00  0.00    +0.000 A 
ATOM     29  C   UNL     1       1.676   1.995  19.086  0.00  0.00    +0.000 A 
ENDBRANCH  23  24
ENDBRANCH  22  23
ENDBRANCH  21  22
ENDBRANCH   8  21
TORSDOF 5
ENDMDL
MODEL 2
REMARK VINA RESULT:      -7.8      0.349      1.312
REMARK  Name = 
REMARK  5 active torsions:
REMARK  status: ('A' for Active; 'I' for Inactive)
REMARK    1  A    between atoms: C_8  and  C_9
REMARK    2  A    between atoms: C_9  and  O_10
REMARK    3  A    between atoms: O_10  and  C_11
REMARK    4  A    between atoms: C_11  and  C_12
REMARK    5  A    between atoms: C_20  and  C_21
REMARK                            x       y       z     vdW  Elec       q    Type
REMARK                         _______ _______ _______ _____ _____    ______ ____
ROOT
ATOM      1  O   UNL     1       6.208   6.166  15.397  0.00  0.00    +0.000 OA
ATOM      2  C   UNL     1       5.975   6.334  16.587  0.00  0.00    +0.000 C 
ATOM      3  N   UNL     1       4.858   5.905  17.305  0.00  0.00    +0.000 N 
ATOM      4  C   UNL     1       4.481   6.435  18.625  0.00  0.00    +0.000 C 
ATOM      5  C   UNL     1       2.973   6.645  18.750  0.00  0.00    +0.000 C 
ATOM      6  C   UNL     1       2.197   5.512  18.159  0.00  0.00    +0.000 C 
ATOM      7  C   UNL     1       2.764   4.630  17.329  0.00  0.00    +0.000 C 
ATOM      8  C   UNL     1       4.209   4.658  16.870  0.00  0.00    +0.000 C 
ATOM      9  N   UNL     1       6.908   7.023  17.374  0.00  0.00    +0.000 N 
ATOM     10  C   UNL     1       7.407   8.292  17.215  0.00  0.00    +0.000 A 
ATOM     11  C   UNL     1       8.231   8.473  18.303  0.00  0.00    +0.000 A 
ATOM     12  N   UNL     1       8.255   7.322  19.046  0.00  0.00    +0.000 NA
ATOM     13  N   UNL     1       7.437   6.445  18.485  0.00  0.00    +0.000 NA
ENDROOT
BRANCH  11  14
ATOM     14  C   UNL     1       8.954   9.678  18.669  0.00  0.00    +0.000 A 
ATOM     15  C   UNL     1       9.204  10.013  20.009  0.00  0.00    +0.000 A 
ATOM     16  C   UNL     1       9.909  11.175  20.330  0.00  0.00    +0.000 A 
ATOM     17  C   UNL     1      10.368  12.014  19.319  0.00  0.00    +0.000 A 
ATOM     18 BR   UNL     1      11.312  13.588  19.759  0.00  0.00    +0.000 Br
ATOM     19  C   UNL     1      10.137  11.695  17.982  0.00  0.00    +0.000 A 
ATOM     20  C   UNL     1       9.435  10.529  17.661  0.00  0.00    +0.000 A 
ENDBRANCH  11  14
BRANCH   8  21
ATOM     21  C   UNL     1       4.986   3.447  17.434  0.00  0.00    +0.000 C 
BRANCH  21  22
ATOM     22  O   UNL     1       4.214   2.246  17.387  0.00  0.00    +0.000 OA
BRANCH  22  23
ATOM     23  C   UNL     1       4.175   1.629  18.674  0.00  0.00    +0.000 C 
BRANCH  23  24
ATOM     24  C   UNL     1       3.047   2.216  19.475  0.00  0.00    +0.000 A 
ATOM     25  C   UNL     1       1.721   2.068  19.043  0.00  0.00    +0.000 A 
ATOM     26  C   UNL     1       0.670   2.609  19.783  0.00  0.00    +0.000 A 
ATOM     27  C   UNL     1       0.933   3.300  20.965  0.00  0.00    +0.000 A 
ATOM     28  C   UNL     1       2.246   3.445  21.410  0.00  0.00    +0.000 A 
ATOM     29  C   UNL     1       3.299   2.905  20.670  0.00  0.00    +0.000 A 
ENDBRANCH  23  24
ENDBRANCH  22  23
ENDBRANCH  21  22
ENDBRANCH   8  21
TORSDOF 5
ENDMDL
MODEL 3
REMARK VINA RESULT:      -7.8      4.536      7.494
REMARK  Name = 
REMARK  5 active torsions:
REMARK  status: ('A' for Active; 'I' for Inactive)
REMARK    1  A    between atoms: C_8  and  C_9
REMARK    2  A    between atoms: C_9  and  O_10
REMARK    3  A    between atoms: O_10  and  C_11
REMARK    4  A    between atoms: C_11  and  C_12
REMARK    5  A    between atoms: C_20  and  C_21
REMARK                            x       y       z     vdW  Elec       q    Type
REMARK                         _______ _______ _______ _____ _____    ______ ____
ROOT
ATOM      1  O   UNL     1       3.248   4.173  17.441  0.00  0.00    +0.000 OA
ATOM      2  C   UNL     1       3.924   5.160  17.700  0.00  0.00    +0.000 C 
ATOM      3  N   UNL     1       5.315   5.269  17.680  0.00  0.00    +0.000 N 
ATOM      4  C   UNL     1       6.060   6.358  18.331  0.00  0.00    +0.000 C 
ATOM      5  C   UNL     1       7.320   5.853  19.031  0.00  0.00    +0.000 C 
ATOM      6  C   UNL     1       8.054   4.843  18.210  0.00  0.00    +0.000 C 
ATOM      7  C   UNL     1       7.476   4.227  17.173  0.00  0.00    +0.000 C 
ATOM      8  C   UNL     1       6.047   4.437  16.712  0.00  0.00    +0.000 C 
ATOM      9  N   UNL     1       3.281   6.354  18.056  0.00  0.00    +0.000 N 
ATOM     10  C   UNL     1       2.403   6.592  19.084  0.00  0.00    +0.000 A 
ATOM     11  C   UNL     1       2.141   7.941  19.003  0.00  0.00    +0.000 A 
ATOM     12  N   UNL     1       2.804   8.465  17.923  0.00  0.00    +0.000 NA
ATOM     13  N   UNL     1       3.509   7.497  17.356  0.00  0.00    +0.000 NA
ENDROOT
BRANCH  11  14
ATOM     14  C   UNL     1       1.328   8.736  19.906  0.00  0.00    +0.000 A 
ATOM     15  C   UNL     1       0.620   9.865  19.464  0.00  0.00    +0.000 A 
ATOM     16  C   UNL     1      -0.159  10.607  20.354  0.00  0.00    +0.000 A 
ATOM     17  C   UNL     1      -0.236  10.232  21.693  0.00  0.00    +0.000 A 
ATOM     18 BR   UNL     1      -1.284  11.243  22.894  0.00  0.00    +0.000 Br
ATOM     19  C   UNL     1       0.453   9.110  22.149  0.00  0.00    +0.000 A 
ATOM     20  C   UNL     1       1.230   8.365  21.256  0.00  0.00    +0.000 A 
ENDBRANCH  11  14
BRANCH   8  21
ATOM     21  C   UNL     1       6.015   5.114  15.322  0.00  0.00    +0.000 C 
BRANCH  21  22
ATOM     22  O   UNL     1       7.076   4.660  14.480  0.00  0.00    +0.000 OA
BRANCH  22  23
ATOM     23  C   UNL     1       6.807   4.992  13.118  0.00  0.00    +0.000 C 
BRANCH  23  24
ATOM     24  C   UNL     1       6.534   3.734  12.342  0.00  0.00    +0.000 A 
ATOM     25  C   UNL     1       5.215   3.307  12.130  0.00  0.00    +0.000 A 
ATOM     26  C   UNL     1       4.956   2.142  11.408  0.00  0.00    +0.000 A 
ATOM     27  C   UNL     1       6.011   1.394  10.889  0.00  0.00    +0.000 A 
ATOM     28  C   UNL     1       7.326   1.813  11.085  0.00  0.00    +0.000 A 
ATOM     29  C   UNL     1       7.587   2.979  11.807  0.00  0.00    +0.000 A 
ENDBRANCH  23  24
ENDBRANCH  22  23
ENDBRANCH  21  22
ENDBRANCH   8  21
TORSDOF 5
ENDMDL
MODEL 4
REMARK VINA RESULT:      -7.7      0.981      1.320
REMARK  Name = 
REMARK  5 active torsions:
REMARK  status: ('A' for Active; 'I' for Inactive)
REMARK    1  A    between atoms: C_8  and  C_9
REMARK    2  A    between atoms: C_9  and  O_10
REMARK    3  A    between atoms: O_10  and  C_11
REMARK    4  A    between atoms: C_11  and  C_12
REMARK    5  A    between atoms: C_20  and  C_21
REMARK                            x       y       z     vdW  Elec       q    Type
REMARK                         _______ _______ _______ _____ _____    ______ ____
ROOT
ATOM      1  O   UNL     1       7.092   5.944  15.593  0.00  0.00    +0.000 OA
ATOM      2  C   UNL     1       6.655   6.268  16.689  0.00  0.00    +0.000 C 
ATOM      3  N   UNL     1       5.435   5.905  17.260  0.00  0.00    +0.000 N 
ATOM      4  C   UNL     1       4.829   6.601  18.407  0.00  0.00    +0.000 C 
ATOM      5  C   UNL     1       3.320   6.772  18.241  0.00  0.00    +0.000 C 
ATOM      6  C   UNL     1       2.670   5.542  17.696  0.00  0.00    +0.000 C 
ATOM      7  C   UNL     1       3.382   4.573  17.110  0.00  0.00    +0.000 C 
ATOM      8  C   UNL     1       4.883   4.588  16.904  0.00  0.00    +0.000 C 
ATOM      9  N   UNL     1       7.430   7.093  17.517  0.00  0.00    +0.000 N 
ATOM     10  C   UNL     1       7.935   8.344  17.264  0.00  0.00    +0.000 A 
ATOM     11  C   UNL     1       8.555   8.705  18.439  0.00  0.00    +0.000 A 
ATOM     12  N   UNL     1       8.462   7.669  19.334  0.00  0.00    +0.000 NA
ATOM     13  N   UNL     1       7.763   6.694  18.773  0.00  0.00    +0.000 NA
ENDROOT
BRANCH  11  14
ATOM     14  C   UNL     1       9.192   9.973  18.746  0.00  0.00    +0.000 A 
ATOM     15  C   UNL     1       9.626  10.847  17.737  0.00  0.00    +0.000 A 
ATOM     16  C   UNL     1      10.229  12.064  18.063  0.00  0.00    +0.000 A 
ATOM     17  C   UNL     1      10.406  12.418  19.397  0.00  0.00    +0.000 A 
ATOM     18 BR   UNL     1      11.229  14.060  19.832  0.00  0.00    +0.000 Br
ATOM     19  C   UNL     1       9.974  11.568  20.414  0.00  0.00    +0.000 A 
ATOM     20  C   UNL     1       9.367  10.352  20.087  0.00  0.00    +0.000 A 
ENDBRANCH  11  14
BRANCH   8  21
ATOM     21  C   UNL     1       5.564   3.495  17.760  0.00  0.00    +0.000 C 
BRANCH  21  22
ATOM     22  O   UNL     1       5.324   3.682  19.156  0.00  0.00    +0.000 OA
BRANCH  22  23
ATOM     23  C   UNL     1       4.707   2.521  19.715  0.00  0.00    +0.000 C 
BRANCH  23  24
ATOM     24  C   UNL     1       3.225   2.747  19.823  0.00  0.00    +0.000 A 
ATOM     25  C   UNL     1       2.337   2.012  19.024  0.00  0.00    +0.000 A 
ATOM     26  C   UNL     1       0.961   2.216  19.122  0.00  0.00    +0.000 A 
ATOM     27  C   UNL     1       0.458   3.153  20.022  0.00  0.00    +0.000 A 
ATOM     28  C   UNL     1       1.329   3.883  20.829  0.00  0.00    +0.000 A 
ATOM     29  C   UNL     1       2.706   3.681  20.732  0.00  0.00    +0.000 A 
ENDBRANCH  23  24
ENDBRANCH  22  23
ENDBRANCH  21  22
ENDBRANCH   8  21
TORSDOF 5
ENDMDL
MODEL 5
REMARK VINA RESULT:      -7.5      4.343      7.337
REMARK  Name = 
REMARK  5 active torsions:
REMARK  status: ('A' for Active; 'I' for Inactive)
REMARK    1  A    between atoms: C_8  and  C_9
REMARK    2  A    between atoms: C_9  and  O_10
REMARK    3  A    between atoms: O_10  and  C_11
REMARK    4  A    between atoms: C_11  and  C_12
REMARK    5  A    between atoms: C_20  and  C_21
REMARK                            x       y       z     vdW  Elec       q    Type
REMARK                         _______ _______ _______ _____ _____    ______ ____
ROOT
ATOM      1  O   UNL     1       4.053   7.152  17.170  0.00  0.00    +0.000 OA
ATOM      2  C   UNL     1       3.238   6.653  17.934  0.00  0.00    +0.000 C 
ATOM      3  N   UNL     1       2.957   5.298  18.114  0.00  0.00    +0.000 N 
ATOM      4  C   UNL     1       1.744   4.795  18.777  0.00  0.00    +0.000 C 
ATOM      5  C   UNL     1       1.162   3.577  18.060  0.00  0.00    +0.000 C 
ATOM      6  C   UNL     1       2.224   2.616  17.632  0.00  0.00    +0.000 C 
ATOM      7  C   UNL     1       3.513   2.970  17.580  0.00  0.00    +0.000 C 
ATOM      8  C   UNL     1       4.060   4.344  17.913  0.00  0.00    +0.000 C 
ATOM      9  N   UNL     1       2.472   7.491  18.758  0.00  0.00    +0.000 N 
ATOM     10  C   UNL     1       1.630   8.515  18.407  0.00  0.00    +0.000 A 
ATOM     11  C   UNL     1       1.098   8.944  19.602  0.00  0.00    +0.000 A 
ATOM     12  N   UNL     1       1.658   8.226  20.627  0.00  0.00    +0.000 NA
ATOM     13  N   UNL     1       2.485   7.331  20.108  0.00  0.00    +0.000 NA
ENDROOT
BRANCH  11  14
ATOM     14  C   UNL     1       0.083   9.964  19.800  0.00  0.00    +0.000 A 
ATOM     15  C   UNL     1      -0.803  10.334  18.776  0.00  0.00    +0.000 A 
ATOM     16  C   UNL     1      -1.774  11.313  18.998  0.00  0.00    +0.000 A 
ATOM     17  C   UNL     1      -1.866  11.934  20.241  0.00  0.00    +0.000 A 
ATOM     18 BR   UNL     1      -3.174  13.264  20.532  0.00  0.00    +0.000 Br
ATOM     19  C   UNL     1      -1.001  11.575  21.272  0.00  0.00    +0.000 A 
ATOM     20  C   UNL     1      -0.032  10.591  21.051  0.00  0.00    +0.000 A 
ENDBRANCH  11  14
BRANCH   8  21
ATOM     21  C   UNL     1       4.935   4.291  19.186  0.00  0.00    +0.000 C 
BRANCH  21  22
ATOM     22  O   UNL     1       6.302   4.008  18.885  0.00  0.00    +0.000 OA
BRANCH  22  23
ATOM     23  C   UNL     1       6.670   4.600  17.638  0.00  0.00    +0.000 C 
BRANCH  23  24
ATOM     24  C   UNL     1       7.280   5.951  17.889  0.00  0.00    +0.000 A 
ATOM     25  C   UNL     1       7.099   6.990  16.964  0.00  0.00    +0.000 A 
ATOM     26  C   UNL     1       7.660   8.247  17.193  0.00  0.00    +0.000 A 
ATOM     27  C   UNL     1       8.403   8.478  18.349  0.00  0.00    +0.000 A 
ATOM     28  C   UNL     1       8.581   7.457  19.280  0.00  0.00    +0.000 A 
ATOM     29  C   UNL     1       8.021   6.199  19.053  0.00  0.00    +0.000 A 
ENDBRANCH  23  24
ENDBRANCH  22  23
ENDBRANCH  21  22
ENDBRANCH   8  21
TORSDOF 5
ENDMDL
MODEL 6
REMARK VINA RESULT:      -7.4      3.875      5.888
REMARK  Name = 
REMARK  5 active torsions:
REMARK  status: ('A' for Active; 'I' for Inactive)
REMARK    1  A    between atoms: C_8  and  C_9
REMARK    2  A    between atoms: C_9  and  O_10
REMARK    3  A    between atoms: O_10  and  C_11
REMARK    4  A    between atoms: C_11  and  C_12
REMARK    5  A    between atoms: C_20  and  C_21
REMARK                            x       y       z     vdW  Elec       q    Type
REMARK                         _______ _______ _______ _____ _____    ______ ____
ROOT
ATOM      1  O   UNL     1       3.269   5.431  20.140  0.00  0.00    +0.000 OA
ATOM      2  C   UNL     1       3.530   6.128  19.169  0.00  0.00    +0.000 C 
ATOM      3  N   UNL     1       4.607   5.996  18.291  0.00  0.00    +0.000 N 
ATOM      4  C   UNL     1       5.049   7.058  17.373  0.00  0.00    +0.000 C 
ATOM      5  C   UNL     1       6.572   7.160  17.306  0.00  0.00    +0.000 C 
ATOM      6  C   UNL     1       7.224   5.816  17.251  0.00  0.00    +0.000 C 
ATOM      7  C   UNL     1       6.562   4.701  17.577  0.00  0.00    +0.000 C 
ATOM      8  C   UNL     1       5.123   4.639  18.049  0.00  0.00    +0.000 C 
ATOM      9  N   UNL     1       2.679   7.195  18.845  0.00  0.00    +0.000 N 
ATOM     10  C   UNL     1       2.309   8.270  19.612  0.00  0.00    +0.000 A 
ATOM     11  C   UNL     1       1.519   9.028  18.777  0.00  0.00    +0.000 A 
ATOM     12  N   UNL     1       1.388   8.384  17.574  0.00  0.00    +0.000 NA
ATOM     13  N   UNL     1       2.108   7.273  17.614  0.00  0.00    +0.000 NA
ENDROOT
BRANCH  11  14
ATOM     14  C   UNL     1       0.924  10.322  19.062  0.00  0.00    +0.000 A 
ATOM     15  C   UNL     1       1.551  11.522  18.694  0.00  0.00    +0.000 A 
ATOM     16  C   UNL     1       0.951  12.752  18.975  0.00  0.00    +0.000 A 
ATOM     17  C   UNL     1      -0.277  12.794  19.628  0.00  0.00    +0.000 A 
ATOM     18 BR   UNL     1      -1.080  14.459  20.013  0.00  0.00    +0.000 Br
ATOM     19  C   UNL     1      -0.920  11.614  19.993  0.00  0.00    +0.000 A 
ATOM     20  C   UNL     1      -0.321  10.383  19.708  0.00  0.00    +0.000 A 
ENDBRANCH  11  14
BRANCH   8  21
ATOM     21  C   UNL     1       4.235   3.927  17.005  0.00  0.00    +0.000 C 
BRANCH  21  22
ATOM     22  O   UNL     1       4.054   2.543  17.310  0.00  0.00    +0.000 OA
BRANCH  22  23
ATOM     23  C   UNL     1       2.668   2.250  17.493  0.00  0.00    +0.000 C 
BRANCH  23  24
ATOM     24  C   UNL     1       2.303   2.449  18.937  0.00  0.00    +0.000 A 
ATOM     25  C   UNL     1       1.037   2.941  19.285  0.00  0.00    +0.000 A 
ATOM     26  C   UNL     1       0.693   3.126  20.624  0.00  0.00    +0.000 A 
ATOM     27  C   UNL     1       1.607   2.816  21.628  0.00  0.00    +0.000 A 
ATOM     28  C   UNL     1       2.865   2.316  21.296  0.00  0.00    +0.000 A 
ATOM     29  C   UNL     1       3.212   2.131  19.957  0.00  0.00    +0.000 A 
ENDBRANCH  23  24
ENDBRANCH  22  23
ENDBRANCH  21  22
ENDBRANCH   8  21
TORSDOF 5
ENDMDL
MODEL 7
REMARK VINA RESULT:      -7.4      3.859      5.853
REMARK  Name = 
REMARK  5 active torsions:
REMARK  status: ('A' for Active; 'I' for Inactive)
REMARK    1  A    between atoms: C_8  and  C_9
REMARK    2  A    between atoms: C_9  and  O_10
REMARK    3  A    between atoms: O_10  and  C_11
REMARK    4  A    between atoms: C_11  and  C_12
REMARK    5  A    between atoms: C_20  and  C_21
REMARK                            x       y       z     vdW  Elec       q    Type
REMARK                         _______ _______ _______ _____ _____    ______ ____
ROOT
ATOM      1  O   UNL     1       3.317   5.454  20.127  0.00  0.00    +0.000 OA
ATOM      2  C   UNL     1       3.565   6.147  19.150  0.00  0.00    +0.000 C 
ATOM      3  N   UNL     1       4.634   6.017  18.263  0.00  0.00    +0.000 N 
ATOM      4  C   UNL     1       5.061   7.076  17.335  0.00  0.00    +0.000 C 
ATOM      5  C   UNL     1       6.583   7.189  17.254  0.00  0.00    +0.000 C 
ATOM      6  C   UNL     1       7.244   5.850  17.202  0.00  0.00    +0.000 C 
ATOM      7  C   UNL     1       6.593   4.731  17.540  0.00  0.00    +0.000 C 
ATOM      8  C   UNL     1       5.159   4.662  18.025  0.00  0.00    +0.000 C 
ATOM      9  N   UNL     1       2.704   7.205  18.827  0.00  0.00    +0.000 N 
ATOM     10  C   UNL     1       2.332   8.282  19.591  0.00  0.00    +0.000 A 
ATOM     11  C   UNL     1       1.529   9.030  18.759  0.00  0.00    +0.000 A 
ATOM     12  N   UNL     1       1.392   8.377  17.560  0.00  0.00    +0.000 NA
ATOM     13  N   UNL     1       2.121   7.272  17.601  0.00  0.00    +0.000 NA
ENDROOT
BRANCH  11  14
ATOM     14  C   UNL     1       0.927  10.320  19.041  0.00  0.00    +0.000 A 
ATOM     15  C   UNL     1      -0.293  10.434  19.726  0.00  0.00    +0.000 A 
ATOM     16  C   UNL     1      -0.844  11.690  19.990  0.00  0.00    +0.000 A 
ATOM     17  C   UNL     1      -0.186  12.842  19.568  0.00  0.00    +0.000 A 
ATOM     18 BR   UNL     1      -0.941  14.537  19.919  0.00  0.00    +0.000 Br
ATOM     19  C   UNL     1       1.030  12.750  18.894  0.00  0.00    +0.000 A 
ATOM     20  C   UNL     1       1.584  11.493  18.635  0.00  0.00    +0.000 A 
ENDBRANCH  11  14
BRANCH   8  21
ATOM     21  C   UNL     1       4.267   3.937  16.993  0.00  0.00    +0.000 C 
BRANCH  21  22
ATOM     22  O   UNL     1       4.058   2.566  17.335  0.00  0.00    +0.000 OA
BRANCH  22  23
ATOM     23  C   UNL     1       2.663   2.297  17.485  0.00  0.00    +0.000 C 
BRANCH  23  24
ATOM     24  C   UNL     1       2.272   2.481  18.924  0.00  0.00    +0.000 A 
ATOM     25  C   UNL     1       3.170   2.150  19.949  0.00  0.00    +0.000 A 
ATOM     26  C   UNL     1       2.813   2.322  21.286  0.00  0.00    +0.000 A 
ATOM     27  C   UNL     1       1.556   2.828  21.613  0.00  0.00    +0.000 A 
ATOM     28  C   UNL     1       0.658   3.169  20.603  0.00  0.00    +0.000 A 
ATOM     29  C   UNL     1       1.014   2.998  19.264  0.00  0.00    +0.000 A 
ENDBRANCH  23  24
ENDBRANCH  22  23
ENDBRANCH  21  22
ENDBRANCH   8  21
TORSDOF 5
ENDMDL
MODEL 8
REMARK VINA RESULT:      -7.4      7.321     10.619
REMARK  Name = 
REMARK  5 active torsions:
REMARK  status: ('A' for Active; 'I' for Inactive)
REMARK    1  A    between atoms: C_8  and  C_9
REMARK    2  A    between atoms: C_9  and  O_10
REMARK    3  A    between atoms: O_10  and  C_11
REMARK    4  A    between atoms: C_11  and  C_12
REMARK    5  A    between atoms: C_20  and  C_21
REMARK                            x       y       z     vdW  Elec       q    Type
REMARK                         _______ _______ _______ _____ _____    ______ ____
ROOT
ATOM      1  O   UNL     1       1.088  10.831  21.227  0.00  0.00    +0.000 OA
ATOM      2  C   UNL     1       0.713  10.439  20.130  0.00  0.00    +0.000 C 
ATOM      3  N   UNL     1      -0.324  10.953  19.352  0.00  0.00    +0.000 N 
ATOM      4  C   UNL     1      -0.940  10.229  18.228  0.00  0.00    +0.000 C 
ATOM      5  C   UNL     1      -2.458  10.398  18.199  0.00  0.00    +0.000 C 
ATOM      6  C   UNL     1      -2.873  11.805  18.489  0.00  0.00    +0.000 C 
ATOM      7  C   UNL     1      -2.031  12.686  19.042  0.00  0.00    +0.000 C 
ATOM      8  C   UNL     1      -0.603  12.394  19.457  0.00  0.00    +0.000 C 
ATOM      9  N   UNL     1       1.371   9.355  19.531  0.00  0.00    +0.000 N 
ATOM     10  C   UNL     1       1.552   8.082  20.008  0.00  0.00    +0.000 A 
ATOM     11  C   UNL     1       2.203   7.425  18.987  0.00  0.00    +0.000 A 
ATOM     12  N   UNL     1       2.443   8.307  17.965  0.00  0.00    +0.000 NA
ATOM     13  N   UNL     1       1.922   9.480  18.294  0.00  0.00    +0.000 NA
ENDROOT
BRANCH  11  14
ATOM     14  C   UNL     1       2.570   6.021  18.935  0.00  0.00    +0.000 A 
ATOM     15  C   UNL     1       2.224   5.128  19.961  0.00  0.00    +0.000 A 
ATOM     16  C   UNL     1       2.584   3.781  19.880  0.00  0.00    +0.000 A 
ATOM     17  C   UNL     1       3.296   3.315  18.778  0.00  0.00    +0.000 A 
ATOM     18 BR   UNL     1       3.788   1.495  18.678  0.00  0.00    +0.000 Br
ATOM     19  C   UNL     1       3.641   4.184  17.746  0.00  0.00    +0.000 A 
ATOM     20  C   UNL     1       3.276   5.532  17.825  0.00  0.00    +0.000 A 
ENDBRANCH  11  14
BRANCH   8  21
ATOM     21  C   UNL     1       0.394  13.179  18.575  0.00  0.00    +0.000 C 
BRANCH  21  22
ATOM     22  O   UNL     1       1.235  14.035  19.350  0.00  0.00    +0.000 OA
BRANCH  22  23
ATOM     23  C   UNL     1       0.531  15.221  19.723  0.00  0.00    +0.000 C 
BRANCH  23  24
ATOM     24  C   UNL     1       0.727  16.271  18.665  0.00  0.00    +0.000 A 
ATOM     25  C   UNL     1      -0.364  17.017  18.199  0.00  0.00    +0.000 A 
ATOM     26  C   UNL     1      -0.187  17.994  17.220  0.00  0.00    +0.000 A 
ATOM     27  C   UNL     1       1.082  18.238  16.699  0.00  0.00    +0.000 A 
ATOM     28  C   UNL     1       2.177  17.510  17.162  0.00  0.00    +0.000 A 
ATOM     29  C   UNL     1       2.002  16.531  18.142  0.00  0.00    +0.000 A 
ENDBRANCH  23  24
ENDBRANCH  22  23
ENDBRANCH  21  22
ENDBRANCH   8  21
TORSDOF 5
ENDMDL
MODEL 9
REMARK VINA RESULT:      -7.3      4.998      7.605
REMARK  Name = 
REMARK  5 active torsions:
REMARK  status: ('A' for Active; 'I' for Inactive)
REMARK    1  A    between atoms: C_8  and  C_9
REMARK    2  A    between atoms: C_9  and  O_10
REMARK    3  A    between atoms: O_10  and  C_11
REMARK    4  A    between atoms: C_11  and  C_12
REMARK    5  A    between atoms: C_20  and  C_21
REMARK                            x       y       z     vdW  Elec       q    Type
REMARK                         _______ _______ _______ _____ _____    ______ ____
ROOT
ATOM      1  O   UNL     1       2.796   7.605  17.963  0.00  0.00    +0.000 OA
ATOM      2  C   UNL     1       2.323   7.148  18.995  0.00  0.00    +0.000 C 
ATOM      3  N   UNL     1       2.256   5.809  19.382  0.00  0.00    +0.000 N 
ATOM      4  C   UNL     1       1.376   5.309  20.450  0.00  0.00    +0.000 C 
ATOM      5  C   UNL     1       0.726   3.977  20.080  0.00  0.00    +0.000 C 
ATOM      6  C   UNL     1       1.689   3.045  19.419  0.00  0.00    +0.000 C 
ATOM      7  C   UNL     1       2.850   3.477  18.914  0.00  0.00    +0.000 C 
ATOM      8  C   UNL     1       3.330   4.914  18.920  0.00  0.00    +0.000 C 
ATOM      9  N   UNL     1       1.778   8.026  19.943  0.00  0.00    +0.000 N 
ATOM     10  C   UNL     1       0.766   8.941  19.794  0.00  0.00    +0.000 A 
ATOM     11  C   UNL     1       0.602   9.475  21.053  0.00  0.00    +0.000 A 
ATOM     12  N   UNL     1       1.530   8.926  21.899  0.00  0.00    +0.000 NA
ATOM     13  N   UNL     1       2.236   8.033  21.223  0.00  0.00    +0.000 NA
ENDROOT
BRANCH  11  14
ATOM     14  C   UNL     1      -0.396  10.440  21.477  0.00  0.00    +0.000 A 
ATOM     15  C   UNL     1      -0.997  11.330  20.572  0.00  0.00    +0.000 A 
ATOM     16  C   UNL     1      -1.960  12.242  21.008  0.00  0.00    +0.000 A 
ATOM     17  C   UNL     1      -2.329  12.279  22.350  0.00  0.00    +0.000 A 
ATOM     18 BR   UNL     1      -3.624  13.521  22.936  0.00  0.00    +0.000 Br
ATOM     19  C   UNL     1      -1.750  11.398  23.262  0.00  0.00    +0.000 A 
ATOM     20  C   UNL     1      -0.790  10.481  22.824  0.00  0.00    +0.000 A 
ENDBRANCH  11  14
BRANCH   8  21
ATOM     21  C   UNL     1       4.565   5.076  19.834  0.00  0.00    +0.000 C 
BRANCH  21  22
ATOM     22  O   UNL     1       5.692   4.345  19.347  0.00  0.00    +0.000 OA
BRANCH  22  23
ATOM     23  C   UNL     1       6.578   5.211  18.637  0.00  0.00    +0.000 C 
BRANCH  23  24
ATOM     24  C   UNL     1       6.259   5.157  17.169  0.00  0.00    +0.000 A 
ATOM     25  C   UNL     1       6.558   4.008  16.423  0.00  0.00    +0.000 A 
ATOM     26  C   UNL     1       6.262   3.952  15.061  0.00  0.00    +0.000 A 
ATOM     27  C   UNL     1       5.661   5.041  14.432  0.00  0.00    +0.000 A 
ATOM     28  C   UNL     1       5.350   6.185  15.165  0.00  0.00    +0.000 A 
ATOM     29  C   UNL     1       5.646   6.243  16.528  0.00  0.00    +0.000 A 
ENDBRANCH  23  24
ENDBRANCH  22  23
ENDBRANCH  21  22
ENDBRANCH   8  21
TORSDOF 5
ENDMDL
