MODEL 1
REMARK VINA RESULT:      -7.4      0.000      0.000
REMARK  Name = 
REMARK  7 active torsions:
REMARK  status: ('A' for Active; 'I' for Inactive)
REMARK    1  A    between atoms: C_1  and  C_2
REMARK    2  A    between atoms: C_2  and  O_3
REMARK    3  A    between atoms: O_3  and  C_4
REMARK    4  A    between atoms: C_9  and  N_10
REMARK    5  A    between atoms: N_10  and  C_11
REMARK    6  A    between atoms: C_11  and  C_12
REMARK    7  A    between atoms: C_16  and  C_17
REMARK                            x       y       z     vdW  Elec       q    Type
REMARK                         _______ _______ _______ _____ _____    ______ ____
ROOT
ATOM      1  N   UNL     1       7.010   5.326  18.503  0.00  0.00    +0.000 NA
ATOM      2  H   UNL     1       7.682   5.765  19.137  0.00  0.00    +0.000 HD
ENDROOT
BRANCH   1   8
ATOM      3  C   UNL     1       2.964   2.833  18.295  0.00  0.00    +0.000 C 
ATOM      4  O   UNL     1       3.368   1.725  17.958  0.00  0.00    +0.000 OA
ATOM      5  N   UNL     1       3.774   3.781  18.866  0.00  0.00    +0.000 N 
ATOM      6  C   UNL     1       3.405   5.114  19.291  0.00  0.00    +0.000 C 
ATOM      7  C   UNL     1       4.640   5.932  18.949  0.00  0.00    +0.000 C 
ATOM      8  C   UNL     1       5.802   4.973  19.271  0.00  0.00    +0.000 C 
ATOM      9  C   UNL     1       5.202   3.576  18.990  0.00  0.00    +0.000 C 
BRANCH   3  10
ATOM     10  O   UNL     1       1.691   3.270  18.114  0.00  0.00    +0.000 OA
BRANCH  10  12
ATOM     11  C   UNL     1       0.669   3.089  20.320  0.00  0.00    +0.000 C 
ATOM     12  C   UNL     1       0.688   2.589  18.885  0.00  0.00    +0.000 C 
ENDBRANCH  10  12
ENDBRANCH   3  10
ENDBRANCH   1   8
BRANCH   1  13
ATOM     13  C   UNL     1       6.699   6.306  17.451  0.00  0.00    +0.000 C 
BRANCH  13  14
ATOM     14  C   UNL     1       6.565   5.652  16.116  0.00  0.00    +0.000 A 
ATOM     15  N   UNL     1       5.535   4.951  15.685  0.00  0.00    +0.000 NA
ATOM     16  C   UNL     1       5.884   4.511  14.432  0.00  0.00    +0.000 A 
ATOM     17  C   UNL     1       5.164   3.713  13.531  0.00  0.00    +0.000 A 
ATOM     18  C   UNL     1       5.738   3.393  12.288  0.00  0.00    +0.000 A 
ATOM     19  C   UNL     1       4.993   2.539  11.304  0.00  0.00    +0.000 C 
ATOM     20  C   UNL     1       7.016   3.877  11.965  0.00  0.00    +0.000 A 
ATOM     21  C   UNL     1       7.751   4.672  12.856  0.00  0.00    +0.000 A 
ATOM     22  C   UNL     1       7.150   4.964  14.081  0.00  0.00    +0.000 A 
ATOM     23  N   UNL     1       7.562   5.688  15.171  0.00  0.00    +0.000 N 
ATOM     24  H   UNL     1       8.441   6.175  15.273  0.00  0.00    +0.000 HD
ENDBRANCH  13  14
ENDBRANCH   1  13
TORSDOF 5
ENDMDL
MODEL 2
REMARK VINA RESULT:      -7.4      2.897      4.943
REMARK  Name = 
REMARK  7 active torsions:
REMARK  status: ('A' for Active; 'I' for Inactive)
REMARK    1  A    between atoms: C_1  and  C_2
REMARK    2  A    between atoms: C_2  and  O_3
REMARK    3  A    between atoms: O_3  and  C_4
REMARK    4  A    between atoms: C_9  and  N_10
REMARK    5  A    between atoms: N_10  and  C_11
REMARK    6  A    between atoms: C_11  and  C_12
REMARK    7  A    between atoms: C_16  and  C_17
REMARK                            x       y       z     vdW  Elec       q    Type
REMARK                         _______ _______ _______ _____ _____    ______ ____
ROOT
ATOM      1  N   UNL     1       2.279   1.694  18.283  0.00  0.00    +0.000 NA
ATOM      2  H   UNL     1       1.810   0.801  18.461  0.00  0.00    +0.000 HD
ENDROOT
BRANCH   1   8
ATOM      3  C   UNL     1       2.195   6.364  19.183  0.00  0.00    +0.000 C 
ATOM      4  O   UNL     1       2.580   6.832  18.116  0.00  0.00    +0.000 OA
ATOM      5  N   UNL     1       1.676   5.099  19.298  0.00  0.00    +0.000 N 
ATOM      6  C   UNL     1       1.203   4.449  20.501  0.00  0.00    +0.000 C 
ATOM      7  C   UNL     1       1.631   3.004  20.295  0.00  0.00    +0.000 C 
ATOM      8  C   UNL     1       1.420   2.782  18.785  0.00  0.00    +0.000 C 
ATOM      9  C   UNL     1       1.672   4.181  18.178  0.00  0.00    +0.000 C 
BRANCH   3  10
ATOM     10  O   UNL     1       2.265   7.014  20.372  0.00  0.00    +0.000 OA
BRANCH  10  12
ATOM     11  C   UNL     1       0.396   8.250  21.335  0.00  0.00    +0.000 C 
ATOM     12  C   UNL     1       1.609   8.291  20.420  0.00  0.00    +0.000 C 
ENDBRANCH  10  12
ENDBRANCH   3  10
ENDBRANCH   1   8
BRANCH   1  13
ATOM     13  C   UNL     1       3.563   1.661  18.999  0.00  0.00    +0.000 C 
BRANCH  13  14
ATOM     14  C   UNL     1       4.459   2.773  18.567  0.00  0.00    +0.000 A 
ATOM     15  N   UNL     1       5.072   3.638  19.352  0.00  0.00    +0.000 NA
ATOM     16  C   UNL     1       5.736   4.496  18.511  0.00  0.00    +0.000 A 
ATOM     17  C   UNL     1       6.532   5.611  18.816  0.00  0.00    +0.000 A 
ATOM     18  C   UNL     1       7.117   6.343  17.768  0.00  0.00    +0.000 A 
ATOM     19  C   UNL     1       7.972   7.541  18.063  0.00  0.00    +0.000 C 
ATOM     20  C   UNL     1       6.901   5.950  16.438  0.00  0.00    +0.000 A 
ATOM     21  C   UNL     1       6.104   4.841  16.116  0.00  0.00    +0.000 A 
ATOM     22  C   UNL     1       5.537   4.143  17.182  0.00  0.00    +0.000 A 
ATOM     23  N   UNL     1       4.720   3.043  17.245  0.00  0.00    +0.000 N 
ATOM     24  H   UNL     1       4.369   2.508  16.464  0.00  0.00    +0.000 HD
ENDBRANCH  13  14
ENDBRANCH   1  13
TORSDOF 5
ENDMDL
MODEL 3
REMARK VINA RESULT:      -7.1      1.045      1.178
REMARK  Name = 
REMARK  7 active torsions:
REMARK  status: ('A' for Active; 'I' for Inactive)
REMARK    1  A    between atoms: C_1  and  C_2
REMARK    2  A    between atoms: C_2  and  O_3
REMARK    3  A    between atoms: O_3  and  C_4
REMARK    4  A    between atoms: C_9  and  N_10
REMARK    5  A    between atoms: N_10  and  C_11
REMARK    6  A    between atoms: C_11  and  C_12
REMARK    7  A    between atoms: C_16  and  C_17
REMARK                            x       y       z     vdW  Elec       q    Type
REMARK                         _______ _______ _______ _____ _____    ______ ____
ROOT
ATOM      1  N   UNL     1       6.117   7.063  17.620  0.00  0.00    +0.000 NA
ATOM      2  H   UNL     1       5.723   7.345  16.719  0.00  0.00    +0.000 HD
ENDROOT
BRANCH   1   8
ATOM      3  C   UNL     1       3.929   3.196  19.317  0.00  0.00    +0.000 C 
ATOM      4  O   UNL     1       4.870   2.551  19.768  0.00  0.00    +0.000 OA
ATOM      5  N   UNL     1       3.992   4.546  19.082  0.00  0.00    +0.000 N 
ATOM      6  C   UNL     1       2.951   5.396  18.548  0.00  0.00    +0.000 C 
ATOM      7  C   UNL     1       3.728   6.381  17.687  0.00  0.00    +0.000 C 
ATOM      8  C   UNL     1       5.017   6.620  18.495  0.00  0.00    +0.000 C 
ATOM      9  C   UNL     1       5.232   5.278  19.233  0.00  0.00    +0.000 C 
BRANCH   3  10
ATOM     10  O   UNL     1       2.734   2.657  18.964  0.00  0.00    +0.000 OA
BRANCH  10  12
ATOM     11  C   UNL     1       0.777   3.249  20.294  0.00  0.00    +0.000 C 
ATOM     12  C   UNL     1       1.893   2.245  20.053  0.00  0.00    +0.000 C 
ENDBRANCH  10  12
ENDBRANCH   3  10
ENDBRANCH   1   8
BRANCH   1  13
ATOM     13  C   UNL     1       7.059   5.964  17.358  0.00  0.00    +0.000 C 
BRANCH  13  14
ATOM     14  C   UNL     1       6.844   5.371  16.005  0.00  0.00    +0.000 A 
ATOM     15  N   UNL     1       5.878   4.544  15.655  0.00  0.00    +0.000 NA
ATOM     16  C   UNL     1       6.116   4.232  14.339  0.00  0.00    +0.000 A 
ATOM     17  C   UNL     1       5.405   3.381  13.478  0.00  0.00    +0.000 A 
ATOM     18  C   UNL     1       5.847   3.223  12.153  0.00  0.00    +0.000 A 
ATOM     19  C   UNL     1       5.110   2.318  11.209  0.00  0.00    +0.000 C 
ATOM     20  C   UNL     1       6.986   3.914  11.710  0.00  0.00    +0.000 A 
ATOM     21  C   UNL     1       7.711   4.764  12.559  0.00  0.00    +0.000 A 
ATOM     22  C   UNL     1       7.244   4.892  13.868  0.00  0.00    +0.000 A 
ATOM     23  N   UNL     1       7.688   5.611  14.948  0.00  0.00    +0.000 N 
ATOM     24  H   UNL     1       8.492   6.221  14.976  0.00  0.00    +0.000 HD
ENDBRANCH  13  14
ENDBRANCH   1  13
TORSDOF 5
ENDMDL
MODEL 4
REMARK VINA RESULT:      -7.1      3.546      6.717
REMARK  Name = 
REMARK  7 active torsions:
REMARK  status: ('A' for Active; 'I' for Inactive)
REMARK    1  A    between atoms: C_1  and  C_2
REMARK    2  A    between atoms: C_2  and  O_3
REMARK    3  A    between atoms: O_3  and  C_4
REMARK    4  A    between atoms: C_9  and  N_10
REMARK    5  A    between atoms: N_10  and  C_11
REMARK    6  A    between atoms: C_11  and  C_12
REMARK    7  A    between atoms: C_16  and  C_17
REMARK                            x       y       z     vdW  Elec       q    Type
REMARK                         _______ _______ _______ _____ _____    ______ ____
ROOT
ATOM      1  N   UNL     1       5.120   6.761  17.571  0.00  0.00    +0.000 NA
ATOM      2  H   UNL     1       5.187   7.252  18.467  0.00  0.00    +0.000 HD
ENDROOT
BRANCH   1   8
ATOM      3  C   UNL     1       2.688   2.720  18.183  0.00  0.00    +0.000 C 
ATOM      4  O   UNL     1       1.949   2.720  17.203  0.00  0.00    +0.000 OA
ATOM      5  N   UNL     1       3.840   3.461  18.249  0.00  0.00    +0.000 N 
ATOM      6  C   UNL     1       4.773   3.541  19.352  0.00  0.00    +0.000 C 
ATOM      7  C   UNL     1       5.210   4.997  19.321  0.00  0.00    +0.000 C 
ATOM      8  C   UNL     1       5.278   5.317  17.815  0.00  0.00    +0.000 C 
ATOM      9  C   UNL     1       4.191   4.401  17.205  0.00  0.00    +0.000 C 
BRANCH   3  10
ATOM     10  O   UNL     1       2.444   2.025  19.323  0.00  0.00    +0.000 OA
BRANCH  10  12
ATOM     11  C   UNL     1       1.832   2.744  21.571  0.00  0.00    +0.000 C 
ATOM     12  C   UNL     1       1.373   2.527  20.138  0.00  0.00    +0.000 C 
ENDBRANCH  10  12
ENDBRANCH   3  10
ENDBRANCH   1   8
BRANCH   1  13
ATOM     13  C   UNL     1       3.794   7.061  17.010  0.00  0.00    +0.000 C 
BRANCH  13  14
ATOM     14  C   UNL     1       2.908   7.714  18.018  0.00  0.00    +0.000 A 
ATOM     15  N   UNL     1       2.674   7.296  19.247  0.00  0.00    +0.000 NA
ATOM     16  C   UNL     1       1.766   8.180  19.774  0.00  0.00    +0.000 A 
ATOM     17  C   UNL     1       1.165   8.197  21.041  0.00  0.00    +0.000 A 
ATOM     18  C   UNL     1       0.255   9.222  21.355  0.00  0.00    +0.000 A 
ATOM     19  C   UNL     1      -0.406   9.265  22.701  0.00  0.00    +0.000 C 
ATOM     20  C   UNL     1      -0.036  10.212  20.402  0.00  0.00    +0.000 A 
ATOM     21  C   UNL     1       0.553  10.207  19.129  0.00  0.00    +0.000 A 
ATOM     22  C   UNL     1       1.447   9.172  18.854  0.00  0.00    +0.000 A 
ATOM     23  N   UNL     1       2.187   8.852  17.744  0.00  0.00    +0.000 N 
ATOM     24  H   UNL     1       2.214   9.359  16.872  0.00  0.00    +0.000 HD
ENDBRANCH  13  14
ENDBRANCH   1  13
TORSDOF 5
ENDMDL
MODEL 5
REMARK VINA RESULT:      -7.1      4.869      8.718
REMARK  Name = 
REMARK  7 active torsions:
REMARK  status: ('A' for Active; 'I' for Inactive)
REMARK    1  A    between atoms: C_1  and  C_2
REMARK    2  A    between atoms: C_2  and  O_3
REMARK    3  A    between atoms: O_3  and  C_4
REMARK    4  A    between atoms: C_9  and  N_10
REMARK    5  A    between atoms: N_10  and  C_11
REMARK    6  A    between atoms: C_11  and  C_12
REMARK    7  A    between atoms: C_16  and  C_17
REMARK                            x       y       z     vdW  Elec       q    Type
REMARK                         _______ _______ _______ _____ _____    ______ ____
ROOT
ATOM      1  N   UNL     1       2.649   5.862  20.464  0.00  0.00    +0.000 NA
ATOM      2  H   UNL     1       1.760   5.722  20.952  0.00  0.00    +0.000 HD
ENDROOT
BRANCH   1   8
ATOM      3  C   UNL     1       5.394   4.251  16.929  0.00  0.00    +0.000 C 
ATOM      4  O   UNL     1       6.519   4.499  17.351  0.00  0.00    +0.000 OA
ATOM      5  N   UNL     1       4.293   4.164  17.743  0.00  0.00    +0.000 N 
ATOM      6  C   UNL     1       2.928   3.888  17.352  0.00  0.00    +0.000 C 
ATOM      7  C   UNL     1       2.121   4.764  18.297  0.00  0.00    +0.000 C 
ATOM      8  C   UNL     1       2.910   4.684  19.618  0.00  0.00    +0.000 C 
ATOM      9  C   UNL     1       4.371   4.491  19.152  0.00  0.00    +0.000 C 
BRANCH   3  10
ATOM     10  O   UNL     1       5.092   4.071  15.618  0.00  0.00    +0.000 OA
BRANCH  10  12
ATOM     11  C   UNL     1       6.242   3.864  13.477  0.00  0.00    +0.000 C 
ATOM     12  C   UNL     1       5.956   4.740  14.686  0.00  0.00    +0.000 C 
ENDBRANCH  10  12
ENDBRANCH   3  10
ENDBRANCH   1   8
BRANCH   1  13
ATOM     13  C   UNL     1       2.510   7.078  19.648  0.00  0.00    +0.000 C 
BRANCH  13  14
ATOM     14  C   UNL     1       1.617   8.077  20.304  0.00  0.00    +0.000 A 
ATOM     15  N   UNL     1       1.024   9.103  19.724  0.00  0.00    +0.000 NA
ATOM     16  C   UNL     1       0.354   9.761  20.725  0.00  0.00    +0.000 A 
ATOM     17  C   UNL     1      -0.426  10.925  20.664  0.00  0.00    +0.000 A 
ATOM     18  C   UNL     1      -1.023  11.412  21.841  0.00  0.00    +0.000 A 
ATOM     19  C   UNL     1      -1.861  12.657  21.808  0.00  0.00    +0.000 C 
ATOM     20  C   UNL     1      -0.833  10.730  23.053  0.00  0.00    +0.000 A 
ATOM     21  C   UNL     1      -0.052   9.567  23.131  0.00  0.00    +0.000 A 
ATOM     22  C   UNL     1       0.527   9.118  21.944  0.00  0.00    +0.000 A 
ATOM     23  N   UNL     1       1.335   8.049  21.649  0.00  0.00    +0.000 N 
ATOM     24  H   UNL     1       1.667   7.349  22.297  0.00  0.00    +0.000 HD
ENDBRANCH  13  14
ENDBRANCH   1  13
TORSDOF 5
ENDMDL
MODEL 6
REMARK VINA RESULT:      -7.1      3.562      7.157
REMARK  Name = 
REMARK  7 active torsions:
REMARK  status: ('A' for Active; 'I' for Inactive)
REMARK    1  A    between atoms: C_1  and  C_2
REMARK    2  A    between atoms: C_2  and  O_3
REMARK    3  A    between atoms: O_3  and  C_4
REMARK    4  A    between atoms: C_9  and  N_10
REMARK    5  A    between atoms: N_10  and  C_11
REMARK    6  A    between atoms: C_11  and  C_12
REMARK    7  A    between atoms: C_16  and  C_17
REMARK                            x       y       z     vdW  Elec       q    Type
REMARK                         _______ _______ _______ _____ _____    ______ ____
ROOT
ATOM      1  N   UNL     1       2.774   3.543  18.435  0.00  0.00    +0.000 NA
ATOM      2  H   UNL     1       2.309   4.155  17.759  0.00  0.00    +0.000 HD
ENDROOT
BRANCH   1   8
ATOM      3  C   UNL     1       7.141   5.413  18.681  0.00  0.00    +0.000 C 
ATOM      4  O   UNL     1       7.282   5.564  19.890  0.00  0.00    +0.000 OA
ATOM      5  N   UNL     1       6.221   4.551  18.139  0.00  0.00    +0.000 N 
ATOM      6  C   UNL     1       5.967   4.304  16.736  0.00  0.00    +0.000 C 
ATOM      7  C   UNL     1       4.461   4.102  16.696  0.00  0.00    +0.000 C 
ATOM      8  C   UNL     1       4.168   3.341  18.003  0.00  0.00    +0.000 C 
ATOM      9  C   UNL     1       5.261   3.855  18.969  0.00  0.00    +0.000 C 
BRANCH   3  10
ATOM     10  O   UNL     1       7.840   6.095  17.739  0.00  0.00    +0.000 OA
BRANCH  10  12
ATOM     11  C   UNL     1       8.252   8.479  18.047  0.00  0.00    +0.000 C 
ATOM     12  C   UNL     1       7.353   7.413  17.440  0.00  0.00    +0.000 C 
ENDBRANCH  10  12
ENDBRANCH   3  10
ENDBRANCH   1   8
BRANCH   1  13
ATOM     13  C   UNL     1       2.717   4.217  19.741  0.00  0.00    +0.000 C 
BRANCH  13  14
ATOM     14  C   UNL     1       2.385   5.665  19.596  0.00  0.00    +0.000 A 
ATOM     15  N   UNL     1       1.864   6.448  20.520  0.00  0.00    +0.000 NA
ATOM     16  C   UNL     1       1.691   7.669  19.918  0.00  0.00    +0.000 A 
ATOM     17  C   UNL     1       1.159   8.858  20.441  0.00  0.00    +0.000 A 
ATOM     18  C   UNL     1       1.086   9.996  19.619  0.00  0.00    +0.000 A 
ATOM     19  C   UNL     1       0.520  11.281  20.149  0.00  0.00    +0.000 C 
ATOM     20  C   UNL     1       1.546   9.930  18.294  0.00  0.00    +0.000 A 
ATOM     21  C   UNL     1       2.076   8.749  17.755  0.00  0.00    +0.000 A 
ATOM     22  C   UNL     1       2.128   7.639  18.599  0.00  0.00    +0.000 A 
ATOM     23  N   UNL     1       2.565   6.352  18.419  0.00  0.00    +0.000 N 
ATOM     24  H   UNL     1       2.960   5.963  17.575  0.00  0.00    +0.000 HD
ENDBRANCH  13  14
ENDBRANCH   1  13
TORSDOF 5
ENDMDL
MODEL 7
REMARK VINA RESULT:      -7.0      3.559      6.981
REMARK  Name = 
REMARK  7 active torsions:
REMARK  status: ('A' for Active; 'I' for Inactive)
REMARK    1  A    between atoms: C_1  and  C_2
REMARK    2  A    between atoms: C_2  and  O_3
REMARK    3  A    between atoms: O_3  and  C_4
REMARK    4  A    between atoms: C_9  and  N_10
REMARK    5  A    between atoms: N_10  and  C_11
REMARK    6  A    between atoms: C_11  and  C_12
REMARK    7  A    between atoms: C_16  and  C_17
REMARK                            x       y       z     vdW  Elec       q    Type
REMARK                         _______ _______ _______ _____ _____    ______ ____
ROOT
ATOM      1  N   UNL     1       1.248   4.040  20.344  0.00  0.00    +0.000 NA
ATOM      2  H   UNL     1       0.536   4.564  19.828  0.00  0.00    +0.000 HD
ENDROOT
BRANCH   1   8
ATOM      3  C   UNL     1       5.293   3.991  17.843  0.00  0.00    +0.000 C 
ATOM      4  O   UNL     1       6.130   4.209  18.714  0.00  0.00    +0.000 OA
ATOM      5  N   UNL     1       4.035   3.521  18.118  0.00  0.00    +0.000 N 
ATOM      6  C   UNL     1       2.974   3.240  17.176  0.00  0.00    +0.000 C 
ATOM      7  C   UNL     1       1.726   3.663  17.934  0.00  0.00    +0.000 C 
ATOM      8  C   UNL     1       2.030   3.241  19.384  0.00  0.00    +0.000 C 
ATOM      9  C   UNL     1       3.567   3.374  19.481  0.00  0.00    +0.000 C 
BRANCH   3  10
ATOM     10  O   UNL     1       5.491   4.219  16.520  0.00  0.00    +0.000 OA
BRANCH  10  12
ATOM     11  C   UNL     1       4.985   6.597  16.336  0.00  0.00    +0.000 C 
ATOM     12  C   UNL     1       6.034   5.507  16.187  0.00  0.00    +0.000 C 
ENDBRANCH  10  12
ENDBRANCH   3  10
ENDBRANCH   1   8
BRANCH   1  13
ATOM     13  C   UNL     1       2.099   5.023  21.031  0.00  0.00    +0.000 C 
BRANCH  13  14
ATOM     14  C   UNL     1       1.942   6.387  20.445  0.00  0.00    +0.000 A 
ATOM     15  N   UNL     1       1.306   7.407  20.989  0.00  0.00    +0.000 NA
ATOM     16  C   UNL     1       1.382   8.424  20.070  0.00  0.00    +0.000 A 
ATOM     17  C   UNL     1       0.862   9.726  20.130  0.00  0.00    +0.000 A 
ATOM     18  C   UNL     1       1.076  10.600  19.050  0.00  0.00    +0.000 A 
ATOM     19  C   UNL     1       0.529  11.997  19.084  0.00  0.00    +0.000 C 
ATOM     20  C   UNL     1       1.806  10.163  17.933  0.00  0.00    +0.000 A 
ATOM     21  C   UNL     1       2.329   8.864  17.855  0.00  0.00    +0.000 A 
ATOM     22  C   UNL     1       2.092   8.024  18.944  0.00  0.00    +0.000 A 
ATOM     23  N   UNL     1       2.437   6.723  19.208  0.00  0.00    +0.000 N 
ATOM     24  H   UNL     1       2.969   6.108  18.610  0.00  0.00    +0.000 HD
ENDBRANCH  13  14
ENDBRANCH   1  13
TORSDOF 5
ENDMDL
MODEL 8
REMARK VINA RESULT:      -6.9      3.566      7.264
REMARK  Name = 
REMARK  7 active torsions:
REMARK  status: ('A' for Active; 'I' for Inactive)
REMARK    1  A    between atoms: C_1  and  C_2
REMARK    2  A    between atoms: C_2  and  O_3
REMARK    3  A    between atoms: O_3  and  C_4
REMARK    4  A    between atoms: C_9  and  N_10
REMARK    5  A    between atoms: N_10  and  C_11
REMARK    6  A    between atoms: C_11  and  C_12
REMARK    7  A    between atoms: C_16  and  C_17
REMARK                            x       y       z     vdW  Elec       q    Type
REMARK                         _______ _______ _______ _____ _____    ______ ____
ROOT
ATOM      1  N   UNL     1       4.184   3.565  17.639  0.00  0.00    +0.000 NA
ATOM      2  H   UNL     1       3.426   4.026  17.128  0.00  0.00    +0.000 HD
ENDROOT
BRANCH   1   8
ATOM      3  C   UNL     1       7.759   6.688  17.938  0.00  0.00    +0.000 C 
ATOM      4  O   UNL     1       8.076   6.596  19.120  0.00  0.00    +0.000 OA
ATOM      5  N   UNL     1       7.052   5.717  17.276  0.00  0.00    +0.000 N 
ATOM      6  C   UNL     1       6.622   5.728  15.895  0.00  0.00    +0.000 C 
ATOM      7  C   UNL     1       5.265   5.044  15.959  0.00  0.00    +0.000 C 
ATOM      8  C   UNL     1       5.467   3.950  17.025  0.00  0.00    +0.000 C 
ATOM      9  C   UNL     1       6.519   4.565  17.975  0.00  0.00    +0.000 C 
BRANCH   3  10
ATOM     10  O   UNL     1       8.030   7.764  17.157  0.00  0.00    +0.000 OA
BRANCH  10  12
ATOM     11  C   UNL     1       8.803   9.776  18.298  0.00  0.00    +0.000 C 
ATOM     12  C   UNL     1       7.624   9.035  17.689  0.00  0.00    +0.000 C 
ENDBRANCH  10  12
ENDBRANCH   3  10
ENDBRANCH   1   8
BRANCH   1  13
ATOM     13  C   UNL     1       4.108   4.023  19.035  0.00  0.00    +0.000 C 
BRANCH  13  14
ATOM     14  C   UNL     1       3.347   5.301  19.151  0.00  0.00    +0.000 A 
ATOM     15  N   UNL     1       3.175   6.202  18.203  0.00  0.00    +0.000 NA
ATOM     16  C   UNL     1       2.459   7.219  18.782  0.00  0.00    +0.000 A 
ATOM     17  C   UNL     1       2.016   8.431  18.230  0.00  0.00    +0.000 A 
ATOM     18  C   UNL     1       1.286   9.324  19.033  0.00  0.00    +0.000 A 
ATOM     19  C   UNL     1       0.802  10.629  18.470  0.00  0.00    +0.000 C 
ATOM     20  C   UNL     1       1.008   8.994  20.368  0.00  0.00    +0.000 A 
ATOM     21  C   UNL     1       1.447   7.789  20.938  0.00  0.00    +0.000 A 
ATOM     22  C   UNL     1       2.172   6.931  20.111  0.00  0.00    +0.000 A 
ATOM     23  N   UNL     1       2.749   5.704  20.321  0.00  0.00    +0.000 N 
ATOM     24  H   UNL     1       2.738   5.172  21.179  0.00  0.00    +0.000 HD
ENDBRANCH  13  14
ENDBRANCH   1  13
TORSDOF 5
ENDMDL
MODEL 9
REMARK VINA RESULT:      -6.9      3.761      6.908
REMARK  Name = 
REMARK  7 active torsions:
REMARK  status: ('A' for Active; 'I' for Inactive)
REMARK    1  A    between atoms: C_1  and  C_2
REMARK    2  A    between atoms: C_2  and  O_3
REMARK    3  A    between atoms: O_3  and  C_4
REMARK    4  A    between atoms: C_9  and  N_10
REMARK    5  A    between atoms: N_10  and  C_11
REMARK    6  A    between atoms: C_11  and  C_12
REMARK    7  A    between atoms: C_16  and  C_17
REMARK                            x       y       z     vdW  Elec       q    Type
REMARK                         _______ _______ _______ _____ _____    ______ ____
ROOT
ATOM      1  N   UNL     1       4.919   7.015  17.582  0.00  0.00    +0.000 NA
ATOM      2  H   UNL     1       4.947   7.456  18.505  0.00  0.00    +0.000 HD
ENDROOT
BRANCH   1   8
ATOM      3  C   UNL     1       2.781   2.809  18.182  0.00  0.00    +0.000 C 
ATOM      4  O   UNL     1       1.968   2.806  17.263  0.00  0.00    +0.000 OA
ATOM      5  N   UNL     1       3.889   3.616  18.196  0.00  0.00    +0.000 N 
ATOM      6  C   UNL     1       4.901   3.705  19.227  0.00  0.00    +0.000 C 
ATOM      7  C   UNL     1       5.249   5.185  19.233  0.00  0.00    +0.000 C 
ATOM      8  C   UNL     1       5.179   5.573  17.743  0.00  0.00    +0.000 C 
ATOM      9  C   UNL     1       4.103   4.620  17.175  0.00  0.00    +0.000 C 
BRANCH   3  10
ATOM     10  O   UNL     1       2.668   2.051  19.303  0.00  0.00    +0.000 OA
BRANCH  10  12
ATOM     11  C   UNL     1       2.099   2.832  21.541  0.00  0.00    +0.000 C 
ATOM     12  C   UNL     1       1.584   2.398  20.179  0.00  0.00    +0.000 C 
ENDBRANCH  10  12
ENDBRANCH   3  10
ENDBRANCH   1   8
BRANCH   1  13
ATOM     13  C   UNL     1       3.578   7.252  17.028  0.00  0.00    +0.000 C 
BRANCH  13  14
ATOM     14  C   UNL     1       2.682   7.908  18.025  0.00  0.00    +0.000 A 
ATOM     15  N   UNL     1       2.035   9.047  17.870  0.00  0.00    +0.000 NA
ATOM     16  C   UNL     1       1.387   9.270  19.059  0.00  0.00    +0.000 A 
ATOM     17  C   UNL     1       0.569  10.344  19.445  0.00  0.00    +0.000 A 
ATOM     18  C   UNL     1       0.007  10.348  20.734  0.00  0.00    +0.000 A 
ATOM     19  C   UNL     1      -0.870  11.483  21.176  0.00  0.00    +0.000 C 
ATOM     20  C   UNL     1       0.268   9.285  21.612  0.00  0.00    +0.000 A 
ATOM     21  C   UNL     1       1.087   8.207  21.244  0.00  0.00    +0.000 A 
ATOM     22  C   UNL     1       1.630   8.240  19.959  0.00  0.00    +0.000 A 
ATOM     23  N   UNL     1       2.457   7.385  19.276  0.00  0.00    +0.000 N 
ATOM     24  H   UNL     1       2.838   6.515  19.618  0.00  0.00    +0.000 HD
ENDBRANCH  13  14
ENDBRANCH   1  13
TORSDOF 5
ENDMDL
