MODEL 1
REMARK VINA RESULT:      -7.8      0.000      0.000
REMARK  Name = 
REMARK  6 active torsions:
REMARK  status: ('A' for Active; 'I' for Inactive)
REMARK    1  A    between atoms: C_1  and  C_2
REMARK    2  A    between atoms: C_5  and  S_6
REMARK    3  A    between atoms: S_6  and  C_9
REMARK    4  A    between atoms: C_10  and  C_11
REMARK    5  A    between atoms: C_13  and  C_14
REMARK    6  A    between atoms: C_16  and  O_17
REMARK                            x       y       z     vdW  Elec       q    Type
REMARK                         _______ _______ _______ _____ _____    ______ ____
ROOT
ATOM      1  S   UNL     1       6.231   5.329  17.894  0.00  0.00    +0.000 S 
ATOM      2  O   UNL     1       7.182   4.436  18.534  0.00  0.00    +0.000 OA
ATOM      3  O   UNL     1       6.451   6.763  17.939  0.00  0.00    +0.000 OA
ENDROOT
BRANCH   1   4
ATOM      4  C   UNL     1       4.647   5.039  18.630  0.00  0.00    +0.000 A 
ATOM      5  C   UNL     1       3.557   5.924  18.513  0.00  0.00    +0.000 A 
ATOM      6  C   UNL     1       3.533   7.220  17.751  0.00  0.00    +0.000 C 
ATOM      7  C   UNL     1       2.345   5.560  19.135  0.00  0.00    +0.000 A 
ATOM      8  C   UNL     1       2.250   4.365  19.837  0.00  0.00    +0.000 A 
ATOM      9  C   UNL     1       0.966   3.934  20.479  0.00  0.00    +0.000 C 
ATOM     10  N   UNL     1       3.293   3.521  19.953  0.00  0.00    +0.000 NA
ATOM     11  C   UNL     1       4.441   3.876  19.347  0.00  0.00    +0.000 A 
BRANCH  11  12
ATOM     12  O   UNL     1       5.367   2.910  19.512  0.00  0.00    +0.000 OA
ATOM     13  H   UNL     1       4.837   2.124  19.280  0.00  0.00    +0.000 HD
ENDBRANCH  11  12
ENDBRANCH   1   4
BRANCH   1  18
ATOM     14  C   UNL     1       6.409   3.515  12.093  0.00  0.00    +0.000 C 
ATOM     15  C   UNL     1       6.343   4.010  13.508  0.00  0.00    +0.000 A 
ATOM     16  C   UNL     1       7.394   4.757  14.054  0.00  0.00    +0.000 A 
ATOM     17  C   UNL     1       7.352   5.168  15.387  0.00  0.00    +0.000 A 
ATOM     18  C   UNL     1       6.252   4.827  16.181  0.00  0.00    +0.000 A 
ATOM     19  C   UNL     1       5.169   4.136  15.632  0.00  0.00    +0.000 A 
ATOM     20  C   UNL     1       5.228   3.709  14.304  0.00  0.00    +0.000 A 
ENDBRANCH   1  18
TORSDOF 3
ENDMDL
MODEL 2
REMARK VINA RESULT:      -7.7      0.095      1.116
REMARK  Name = 
REMARK  6 active torsions:
REMARK  status: ('A' for Active; 'I' for Inactive)
REMARK    1  A    between atoms: C_1  and  C_2
REMARK    2  A    between atoms: C_5  and  S_6
REMARK    3  A    between atoms: S_6  and  C_9
REMARK    4  A    between atoms: C_10  and  C_11
REMARK    5  A    between atoms: C_13  and  C_14
REMARK    6  A    between atoms: C_16  and  O_17
REMARK                            x       y       z     vdW  Elec       q    Type
REMARK                         _______ _______ _______ _____ _____    ______ ____
ROOT
ATOM      1  S   UNL     1       6.173   5.395  17.896  0.00  0.00    +0.000 S 
ATOM      2  O   UNL     1       7.164   4.580  18.578  0.00  0.00    +0.000 OA
ATOM      3  O   UNL     1       6.317   6.839  17.884  0.00  0.00    +0.000 OA
ENDROOT
BRANCH   1   4
ATOM      4  C   UNL     1       4.599   5.052  18.631  0.00  0.00    +0.000 A 
ATOM      5  C   UNL     1       3.487   5.911  18.535  0.00  0.00    +0.000 A 
ATOM      6  C   UNL     1       3.429   7.221  17.799  0.00  0.00    +0.000 C 
ATOM      7  C   UNL     1       2.288   5.505  19.155  0.00  0.00    +0.000 A 
ATOM      8  C   UNL     1       2.224   4.295  19.833  0.00  0.00    +0.000 A 
ATOM      9  C   UNL     1       0.954   3.819  20.470  0.00  0.00    +0.000 C 
ATOM     10  N   UNL     1       3.288   3.475  19.929  0.00  0.00    +0.000 NA
ATOM     11  C   UNL     1       4.425   3.870  19.326  0.00  0.00    +0.000 A 
BRANCH  11  12
ATOM     12  O   UNL     1       5.375   2.924  19.469  0.00  0.00    +0.000 OA
ATOM     13  H   UNL     1       4.842   2.121  19.313  0.00  0.00    +0.000 HD
ENDBRANCH  11  12
ENDBRANCH   1   4
BRANCH   1  18
ATOM     14  C   UNL     1       6.278   3.557  12.101  0.00  0.00    +0.000 C 
ATOM     15  C   UNL     1       6.275   3.963  13.545  0.00  0.00    +0.000 A 
ATOM     16  C   UNL     1       5.201   3.629  14.380  0.00  0.00    +0.000 A 
ATOM     17  C   UNL     1       5.178   4.057  15.708  0.00  0.00    +0.000 A 
ATOM     18  C   UNL     1       6.236   4.826  16.205  0.00  0.00    +0.000 A 
ATOM     19  C   UNL     1       7.342   5.112  15.401  0.00  0.00    +0.000 A 
ATOM     20  C   UNL     1       7.347   4.701  14.067  0.00  0.00    +0.000 A 
ENDBRANCH   1  18
TORSDOF 3
ENDMDL
MODEL 3
REMARK VINA RESULT:      -6.9      2.045      5.895
REMARK  Name = 
REMARK  6 active torsions:
REMARK  status: ('A' for Active; 'I' for Inactive)
REMARK    1  A    between atoms: C_1  and  C_2
REMARK    2  A    between atoms: C_5  and  S_6
REMARK    3  A    between atoms: S_6  and  C_9
REMARK    4  A    between atoms: C_10  and  C_11
REMARK    5  A    between atoms: C_13  and  C_14
REMARK    6  A    between atoms: C_16  and  O_17
REMARK                            x       y       z     vdW  Elec       q    Type
REMARK                         _______ _______ _______ _____ _____    ______ ____
ROOT
ATOM      1  S   UNL     1       5.463   5.909  18.263  0.00  0.00    +0.000 S 
ATOM      2  O   UNL     1       4.739   7.153  18.067  0.00  0.00    +0.000 OA
ATOM      3  O   UNL     1       6.750   5.925  18.933  0.00  0.00    +0.000 OA
ENDROOT
BRANCH   1   4
ATOM      4  C   UNL     1       5.736   5.193  16.666  0.00  0.00    +0.000 A 
ATOM      5  C   UNL     1       4.853   4.281  16.056  0.00  0.00    +0.000 A 
ATOM      6  C   UNL     1       3.552   3.781  16.621  0.00  0.00    +0.000 C 
ATOM      7  C   UNL     1       5.185   3.802  14.773  0.00  0.00    +0.000 A 
ATOM      8  C   UNL     1       6.350   4.228  14.146  0.00  0.00    +0.000 A 
ATOM      9  C   UNL     1       6.712   3.765  12.768  0.00  0.00    +0.000 C 
ATOM     10  N   UNL     1       7.197   5.096  14.730  0.00  0.00    +0.000 NA
ATOM     11  C   UNL     1       6.864   5.552  15.952  0.00  0.00    +0.000 A 
BRANCH  11  12
ATOM     12  O   UNL     1       7.781   6.446  16.376  0.00  0.00    +0.000 OA
ATOM     13  H   UNL     1       8.108   6.774  15.518  0.00  0.00    +0.000 HD
ENDBRANCH  11  12
ENDBRANCH   1   4
BRANCH   1  18
ATOM     14  C   UNL     1       1.575   2.506  21.469  0.00  0.00    +0.000 C 
ATOM     15  C   UNL     1       2.558   3.362  20.725  0.00  0.00    +0.000 A 
ATOM     16  C   UNL     1       2.281   4.711  20.469  0.00  0.00    +0.000 A 
ATOM     17  C   UNL     1       3.173   5.487  19.729  0.00  0.00    +0.000 A 
ATOM     18  C   UNL     1       4.350   4.910  19.239  0.00  0.00    +0.000 A 
ATOM     19  C   UNL     1       4.667   3.583  19.540  0.00  0.00    +0.000 A 
ATOM     20  C   UNL     1       3.759   2.806  20.261  0.00  0.00    +0.000 A 
ENDBRANCH   1  18
TORSDOF 3
ENDMDL
MODEL 4
REMARK VINA RESULT:      -6.8      2.022      5.880
REMARK  Name = 
REMARK  6 active torsions:
REMARK  status: ('A' for Active; 'I' for Inactive)
REMARK    1  A    between atoms: C_1  and  C_2
REMARK    2  A    between atoms: C_5  and  S_6
REMARK    3  A    between atoms: S_6  and  C_9
REMARK    4  A    between atoms: C_10  and  C_11
REMARK    5  A    between atoms: C_13  and  C_14
REMARK    6  A    between atoms: C_16  and  O_17
REMARK                            x       y       z     vdW  Elec       q    Type
REMARK                         _______ _______ _______ _____ _____    ______ ____
ROOT
ATOM      1  S   UNL     1       5.407   5.896  18.258  0.00  0.00    +0.000 S 
ATOM      2  O   UNL     1       4.705   7.153  18.061  0.00  0.00    +0.000 OA
ATOM      3  O   UNL     1       6.679   5.887  18.957  0.00  0.00    +0.000 OA
ENDROOT
BRANCH   1   4
ATOM      4  C   UNL     1       5.706   5.194  16.660  0.00  0.00    +0.000 A 
ATOM      5  C   UNL     1       4.833   4.285  16.029  0.00  0.00    +0.000 A 
ATOM      6  C   UNL     1       3.525   3.778  16.570  0.00  0.00    +0.000 C 
ATOM      7  C   UNL     1       5.185   3.818  14.747  0.00  0.00    +0.000 A 
ATOM      8  C   UNL     1       6.358   4.251  14.141  0.00  0.00    +0.000 A 
ATOM      9  C   UNL     1       6.741   3.800  12.764  0.00  0.00    +0.000 C 
ATOM     10  N   UNL     1       7.194   5.117  14.745  0.00  0.00    +0.000 NA
ATOM     11  C   UNL     1       6.842   5.562  15.965  0.00  0.00    +0.000 A 
BRANCH  11  12
ATOM     12  O   UNL     1       7.751   6.454  16.410  0.00  0.00    +0.000 OA
ATOM     13  H   UNL     1       8.538   6.157  15.915  0.00  0.00    +0.000 HD
ENDBRANCH  11  12
ENDBRANCH   1   4
BRANCH   1  18
ATOM     14  C   UNL     1       1.590   2.527  21.581  0.00  0.00    +0.000 C 
ATOM     15  C   UNL     1       2.509   3.337  20.715  0.00  0.00    +0.000 A 
ATOM     16  C   UNL     1       3.737   2.813  20.289  0.00  0.00    +0.000 A 
ATOM     17  C   UNL     1       4.612   3.591  19.531  0.00  0.00    +0.000 A 
ATOM     18  C   UNL     1       4.259   4.903  19.198  0.00  0.00    +0.000 A 
ATOM     19  C   UNL     1       3.012   5.416  19.563  0.00  0.00    +0.000 A 
ATOM     20  C   UNL     1       2.151   4.640  20.342  0.00  0.00    +0.000 A 
ENDBRANCH   1  18
TORSDOF 3
ENDMDL
MODEL 5
REMARK VINA RESULT:      -6.8      1.131      1.342
REMARK  Name = 
REMARK  6 active torsions:
REMARK  status: ('A' for Active; 'I' for Inactive)
REMARK    1  A    between atoms: C_1  and  C_2
REMARK    2  A    between atoms: C_5  and  S_6
REMARK    3  A    between atoms: S_6  and  C_9
REMARK    4  A    between atoms: C_10  and  C_11
REMARK    5  A    between atoms: C_13  and  C_14
REMARK    6  A    between atoms: C_16  and  O_17
REMARK                            x       y       z     vdW  Elec       q    Type
REMARK                         _______ _______ _______ _____ _____    ______ ____
ROOT
ATOM      1  S   UNL     1       6.960   5.465  16.831  0.00  0.00    +0.000 S 
ATOM      2  O   UNL     1       7.807   4.471  17.469  0.00  0.00    +0.000 OA
ATOM      3  O   UNL     1       7.458   6.814  16.637  0.00  0.00    +0.000 OA
ENDROOT
BRANCH   1   4
ATOM      4  C   UNL     1       5.483   5.608  17.799  0.00  0.00    +0.000 A 
ATOM      5  C   UNL     1       4.445   6.515  17.510  0.00  0.00    +0.000 A 
ATOM      6  C   UNL     1       4.393   7.480  16.358  0.00  0.00    +0.000 C 
ATOM      7  C   UNL     1       3.316   6.512  18.354  0.00  0.00    +0.000 A 
ATOM      8  C   UNL     1       3.248   5.635  19.429  0.00  0.00    +0.000 A 
ATOM      9  C   UNL     1       2.046   5.582  20.322  0.00  0.00    +0.000 C 
ATOM     10  N   UNL     1       4.242   4.770  19.708  0.00  0.00    +0.000 NA
ATOM     11  C   UNL     1       5.311   4.778  18.890  0.00  0.00    +0.000 A 
BRANCH  11  12
ATOM     12  O   UNL     1       6.189   3.828  19.270  0.00  0.00    +0.000 OA
ATOM     13  H   UNL     1       6.917   4.389  19.596  0.00  0.00    +0.000 HD
ENDBRANCH  11  12
ENDBRANCH   1   4
BRANCH   1  18
ATOM     14  C   UNL     1       5.904   3.004  11.373  0.00  0.00    +0.000 C 
ATOM     15  C   UNL     1       6.138   3.657  12.703  0.00  0.00    +0.000 A 
ATOM     16  C   UNL     1       7.273   4.449  12.921  0.00  0.00    +0.000 A 
ATOM     17  C   UNL     1       7.514   5.008  14.176  0.00  0.00    +0.000 A 
ATOM     18  C   UNL     1       6.616   4.772  15.222  0.00  0.00    +0.000 A 
ATOM     19  C   UNL     1       5.450   4.035  15.002  0.00  0.00    +0.000 A 
ATOM     20  C   UNL     1       5.227   3.460  13.750  0.00  0.00    +0.000 A 
ENDBRANCH   1  18
TORSDOF 3
ENDMDL
MODEL 6
REMARK VINA RESULT:      -6.8      2.025      5.967
REMARK  Name = 
REMARK  6 active torsions:
REMARK  status: ('A' for Active; 'I' for Inactive)
REMARK    1  A    between atoms: C_1  and  C_2
REMARK    2  A    between atoms: C_5  and  S_6
REMARK    3  A    between atoms: S_6  and  C_9
REMARK    4  A    between atoms: C_10  and  C_11
REMARK    5  A    between atoms: C_13  and  C_14
REMARK    6  A    between atoms: C_16  and  O_17
REMARK                            x       y       z     vdW  Elec       q    Type
REMARK                         _______ _______ _______ _____ _____    ______ ____
ROOT
ATOM      1  S   UNL     1       5.237   4.150  19.282  0.00  0.00    +0.000 S 
ATOM      2  O   UNL     1       6.329   4.760  20.021  0.00  0.00    +0.000 OA
ATOM      3  O   UNL     1       4.878   2.768  19.541  0.00  0.00    +0.000 OA
ENDROOT
BRANCH   1   4
ATOM      4  C   UNL     1       5.635   4.251  17.559  0.00  0.00    +0.000 A 
ATOM      5  C   UNL     1       4.688   4.101  16.528  0.00  0.00    +0.000 A 
ATOM      6  C   UNL     1       3.214   3.856  16.694  0.00  0.00    +0.000 C 
ATOM      7  C   UNL     1       5.140   4.223  15.198  0.00  0.00    +0.000 A 
ATOM      8  C   UNL     1       6.479   4.483  14.934  0.00  0.00    +0.000 A 
ATOM      9  C   UNL     1       6.982   4.654  13.533  0.00  0.00    +0.000 C 
ATOM     10  N   UNL     1       7.385   4.623  15.920  0.00  0.00    +0.000 NA
ATOM     11  C   UNL     1       6.940   4.512  17.185  0.00  0.00    +0.000 A 
BRANCH  11  12
ATOM     12  O   UNL     1       7.952   4.725  18.050  0.00  0.00    +0.000 OA
ATOM     13  H   UNL     1       8.675   4.917  17.423  0.00  0.00    +0.000 HD
ENDBRANCH  11  12
ENDBRANCH   1   4
BRANCH   1  18
ATOM     14  C   UNL     1       0.479   7.626  20.784  0.00  0.00    +0.000 C 
ATOM     15  C   UNL     1       1.624   6.747  20.371  0.00  0.00    +0.000 A 
ATOM     16  C   UNL     1       1.736   5.441  20.864  0.00  0.00    +0.000 A 
ATOM     17  C   UNL     1       2.832   4.648  20.521  0.00  0.00    +0.000 A 
ATOM     18  C   UNL     1       3.824   5.166  19.681  0.00  0.00    +0.000 A 
ATOM     19  C   UNL     1       3.692   6.444  19.133  0.00  0.00    +0.000 A 
ATOM     20  C   UNL     1       2.605   7.240  19.499  0.00  0.00    +0.000 A 
ENDBRANCH   1  18
TORSDOF 3
ENDMDL
MODEL 7
REMARK VINA RESULT:      -6.7      2.126      5.963
REMARK  Name = 
REMARK  6 active torsions:
REMARK  status: ('A' for Active; 'I' for Inactive)
REMARK    1  A    between atoms: C_1  and  C_2
REMARK    2  A    between atoms: C_5  and  S_6
REMARK    3  A    between atoms: S_6  and  C_9
REMARK    4  A    between atoms: C_10  and  C_11
REMARK    5  A    between atoms: C_13  and  C_14
REMARK    6  A    between atoms: C_16  and  O_17
REMARK                            x       y       z     vdW  Elec       q    Type
REMARK                         _______ _______ _______ _____ _____    ______ ____
ROOT
ATOM      1  S   UNL     1       5.032   5.070  18.756  0.00  0.00    +0.000 S 
ATOM      2  O   UNL     1       6.093   5.578  19.608  0.00  0.00    +0.000 OA
ATOM      3  O   UNL     1       4.403   3.801  19.072  0.00  0.00    +0.000 OA
ENDROOT
BRANCH   1   4
ATOM      4  C   UNL     1       5.691   4.911  17.119  0.00  0.00    +0.000 A 
ATOM      5  C   UNL     1       5.082   4.151  16.102  0.00  0.00    +0.000 A 
ATOM      6  C   UNL     1       3.795   3.380  16.208  0.00  0.00    +0.000 C 
ATOM      7  C   UNL     1       5.705   4.126  14.838  0.00  0.00    +0.000 A 
ATOM      8  C   UNL     1       6.882   4.832  14.623  0.00  0.00    +0.000 A 
ATOM      9  C   UNL     1       7.548   4.854  13.281  0.00  0.00    +0.000 C 
ATOM     10  N   UNL     1       7.467   5.555  15.596  0.00  0.00    +0.000 NA
ATOM     11  C   UNL     1       6.857   5.578  16.796  0.00  0.00    +0.000 A 
BRANCH  11  12
ATOM     12  O   UNL     1       7.534   6.381  17.642  0.00  0.00    +0.000 OA
ATOM     13  H   UNL     1       8.239   6.700  17.047  0.00  0.00    +0.000 HD
ENDBRANCH  11  12
ENDBRANCH   1   4
BRANCH   1  18
ATOM     14  C   UNL     1       0.833   9.453  19.114  0.00  0.00    +0.000 C 
ATOM     15  C   UNL     1       1.832   8.339  19.001  0.00  0.00    +0.000 A 
ATOM     16  C   UNL     1       1.949   7.379  20.015  0.00  0.00    +0.000 A 
ATOM     17  C   UNL     1       2.917   6.378  19.932  0.00  0.00    +0.000 A 
ATOM     18  C   UNL     1       3.776   6.336  18.828  0.00  0.00    +0.000 A 
ATOM     19  C   UNL     1       3.629   7.250  17.782  0.00  0.00    +0.000 A 
ATOM     20  C   UNL     1       2.674   8.263  17.883  0.00  0.00    +0.000 A 
ENDBRANCH   1  18
TORSDOF 3
ENDMDL
MODEL 8
REMARK VINA RESULT:      -6.5      2.148      5.887
REMARK  Name = 
REMARK  6 active torsions:
REMARK  status: ('A' for Active; 'I' for Inactive)
REMARK    1  A    between atoms: C_1  and  C_2
REMARK    2  A    between atoms: C_5  and  S_6
REMARK    3  A    between atoms: S_6  and  C_9
REMARK    4  A    between atoms: C_10  and  C_11
REMARK    5  A    between atoms: C_13  and  C_14
REMARK    6  A    between atoms: C_16  and  O_17
REMARK                            x       y       z     vdW  Elec       q    Type
REMARK                         _______ _______ _______ _____ _____    ______ ____
ROOT
ATOM      1  S   UNL     1       5.008   5.080  18.735  0.00  0.00    +0.000 S 
ATOM      2  O   UNL     1       6.073   5.553  19.603  0.00  0.00    +0.000 OA
ATOM      3  O   UNL     1       4.346   3.823  19.032  0.00  0.00    +0.000 OA
ENDROOT
BRANCH   1   4
ATOM      4  C   UNL     1       5.678   4.922  17.103  0.00  0.00    +0.000 A 
ATOM      5  C   UNL     1       5.068   4.176  16.076  0.00  0.00    +0.000 A 
ATOM      6  C   UNL     1       3.771   3.420  16.168  0.00  0.00    +0.000 C 
ATOM      7  C   UNL     1       5.702   4.150  14.817  0.00  0.00    +0.000 A 
ATOM      8  C   UNL     1       6.888   4.843  14.616  0.00  0.00    +0.000 A 
ATOM      9  C   UNL     1       7.566   4.864  13.280  0.00  0.00    +0.000 C 
ATOM     10  N   UNL     1       7.475   5.553  15.599  0.00  0.00    +0.000 NA
ATOM     11  C   UNL     1       6.855   5.577  16.793  0.00  0.00    +0.000 A 
BRANCH  11  12
ATOM     12  O   UNL     1       7.535   6.366  17.650  0.00  0.00    +0.000 OA
ATOM     13  H   UNL     1       6.916   6.372  18.404  0.00  0.00    +0.000 HD
ENDBRANCH  11  12
ENDBRANCH   1   4
BRANCH   1  18
ATOM     14  C   UNL     1       0.753   9.421  18.878  0.00  0.00    +0.000 C 
ATOM     15  C   UNL     1       1.839   8.384  18.867  0.00  0.00    +0.000 A 
ATOM     16  C   UNL     1       2.738   8.303  17.796  0.00  0.00    +0.000 A 
ATOM     17  C   UNL     1       3.710   7.302  17.764  0.00  0.00    +0.000 A 
ATOM     18  C   UNL     1       3.782   6.375  18.810  0.00  0.00    +0.000 A 
ATOM     19  C   UNL     1       2.931   6.484  19.913  0.00  0.00    +0.000 A 
ATOM     20  C   UNL     1       1.947   7.473  19.926  0.00  0.00    +0.000 A 
ENDBRANCH   1  18
TORSDOF 3
ENDMDL
MODEL 9
REMARK VINA RESULT:      -6.5      1.071      1.680
REMARK  Name = 
REMARK  6 active torsions:
REMARK  status: ('A' for Active; 'I' for Inactive)
REMARK    1  A    between atoms: C_1  and  C_2
REMARK    2  A    between atoms: C_5  and  S_6
REMARK    3  A    between atoms: S_6  and  C_9
REMARK    4  A    between atoms: C_10  and  C_11
REMARK    5  A    between atoms: C_13  and  C_14
REMARK    6  A    between atoms: C_16  and  O_17
REMARK                            x       y       z     vdW  Elec       q    Type
REMARK                         _______ _______ _______ _____ _____    ______ ____
ROOT
ATOM      1  S   UNL     1       5.506   6.342  17.158  0.00  0.00    +0.000 S 
ATOM      2  O   UNL     1       6.812   6.613  17.734  0.00  0.00    +0.000 OA
ATOM      3  O   UNL     1       4.639   7.448  16.793  0.00  0.00    +0.000 OA
ENDROOT
BRANCH   1   4
ATOM      4  C   UNL     1       4.602   5.358  18.321  0.00  0.00    +0.000 A 
ATOM      5  C   UNL     1       3.283   5.639  18.725  0.00  0.00    +0.000 A 
ATOM      6  C   UNL     1       2.422   6.775  18.244  0.00  0.00    +0.000 C 
ATOM      7  C   UNL     1       2.675   4.761  19.645  0.00  0.00    +0.000 A 
ATOM      8  C   UNL     1       3.372   3.660  20.127  0.00  0.00    +0.000 A 
ATOM      9  C   UNL     1       2.742   2.689  21.078  0.00  0.00    +0.000 C 
ATOM     10  N   UNL     1       4.636   3.393  19.744  0.00  0.00    +0.000 NA
ATOM     11  C   UNL     1       5.201   4.235  18.859  0.00  0.00    +0.000 A 
BRANCH  11  12
ATOM     12  O   UNL     1       6.439   3.805  18.541  0.00  0.00    +0.000 OA
ATOM     13  H   UNL     1       6.217   2.987  18.058  0.00  0.00    +0.000 HD
ENDBRANCH  11  12
ENDBRANCH   1   4
BRANCH   1  18
ATOM     14  C   UNL     1       6.651   3.293  12.024  0.00  0.00    +0.000 C 
ATOM     15  C   UNL     1       6.386   4.002  13.320  0.00  0.00    +0.000 A 
ATOM     16  C   UNL     1       5.153   3.867  13.969  0.00  0.00    +0.000 A 
ATOM     17  C   UNL     1       4.891   4.572  15.144  0.00  0.00    +0.000 A 
ATOM     18  C   UNL     1       5.870   5.420  15.673  0.00  0.00    +0.000 A 
ATOM     19  C   UNL     1       7.126   5.516  15.070  0.00  0.00    +0.000 A 
ATOM     20  C   UNL     1       7.372   4.826  13.882  0.00  0.00    +0.000 A 
ENDBRANCH   1  18
TORSDOF 3
ENDMDL
