MODEL 1
REMARK VINA RESULT:      -7.6      0.000      0.000
REMARK  Name = 
REMARK  5 active torsions:
REMARK  status: ('A' for Active; 'I' for Inactive)
REMARK    1  A    between atoms: C_1  and  C_2
REMARK    2  A    between atoms: C_3  and  C_4
REMARK    3  A    between atoms: N_9  and  C_10
REMARK    4  A    between atoms: C_25  and  C_26
REMARK    5  A    between atoms: C_25  and  C_27
REMARK                            x       y       z     vdW  Elec       q    Type
REMARK                         _______ _______ _______ _____ _____    ______ ____
ROOT
ATOM      1  C   UNL     1       1.467  10.482  18.765  0.00  0.00    +0.000 C 
ATOM      2  O   UNL     1       2.336  11.331  18.565  0.00  0.00    +0.000 OA
ATOM      3  N   UNL     1       0.117  10.830  18.793  0.00  0.00    +0.000 N 
ATOM      4  C   UNL     1      -0.308  12.152  18.323  0.00  0.00    +0.000 C 
ATOM      5  C   UNL     1      -1.637  12.081  17.528  0.00  0.00    +0.000 C 
ATOM      6  N   UNL     1      -2.640  11.321  18.300  0.00  0.00    +0.000 N 
ATOM      7  C   UNL     1      -2.201   9.969  18.694  0.00  0.00    +0.000 C 
ATOM      8  C   UNL     1      -0.923  10.095  19.534  0.00  0.00    +0.000 C 
ENDROOT
BRANCH   1  11
ATOM      9  C   UNL     1       1.102   8.450  21.342  0.00  0.00    +0.000 C 
ATOM     10  C   UNL     1       1.693   8.193  20.003  0.00  0.00    +0.000 A 
ATOM     11  C   UNL     1       1.795   9.072  18.922  0.00  0.00    +0.000 A 
ATOM     12  O   UNL     1       2.401   8.431  17.866  0.00  0.00    +0.000 OA
ATOM     13  C   UNL     1       2.642   7.168  18.257  0.00  0.00    +0.000 A 
ATOM     14  C   UNL     1       2.272   6.965  19.562  0.00  0.00    +0.000 A 
ATOM     15  C   UNL     1       2.500   5.673  20.183  0.00  0.00    +0.000 C 
ATOM     16  O   UNL     1       2.135   5.417  21.327  0.00  0.00    +0.000 OA
ATOM     17  C   UNL     1       3.308   4.669  19.345  0.00  0.00    +0.000 C 
ATOM     18  C   UNL     1       3.024   4.763  17.815  0.00  0.00    +0.000 C 
ATOM     19  C   UNL     1       3.986   3.837  17.050  0.00  0.00    +0.000 C 
ATOM     20  C   UNL     1       1.582   4.292  17.528  0.00  0.00    +0.000 C 
ATOM     21  C   UNL     1       3.244   6.215  17.302  0.00  0.00    +0.000 C 
ENDBRANCH   1  11
BRANCH   6  22
ATOM     22  C   UNL     1      -3.980  11.671  18.316  0.00  0.00    +0.000 A 
ATOM     23  C   UNL     1      -4.530  12.274  19.464  0.00  0.00    +0.000 A 
ATOM     24  C   UNL     1      -5.857  12.720  19.511  0.00  0.00    +0.000 A 
ATOM     25  C   UNL     1      -6.680  12.573  18.402  0.00  0.00    +0.000 A 
ATOM     26  C   UNL     1      -6.177  11.972  17.252  0.00  0.00    +0.000 A 
ATOM     27  C   UNL     1      -4.848  11.532  17.218  0.00  0.00    +0.000 A 
ATOM     28  F   UNL     1      -4.431  10.937  16.088  0.00  0.00    +0.000 F 
ENDBRANCH   6  22
TORSDOF 2
ENDMDL
MODEL 2
REMARK VINA RESULT:      -7.4      3.526      8.971
REMARK  Name = 
REMARK  5 active torsions:
REMARK  status: ('A' for Active; 'I' for Inactive)
REMARK    1  A    between atoms: C_1  and  C_2
REMARK    2  A    between atoms: C_3  and  C_4
REMARK    3  A    between atoms: N_9  and  C_10
REMARK    4  A    between atoms: C_25  and  C_26
REMARK    5  A    between atoms: C_25  and  C_27
REMARK                            x       y       z     vdW  Elec       q    Type
REMARK                         _______ _______ _______ _____ _____    ______ ____
ROOT
ATOM      1  C   UNL     1      -1.278  13.129  21.504  0.00  0.00    +0.000 C 
ATOM      2  O   UNL     1      -0.715  14.005  22.161  0.00  0.00    +0.000 OA
ATOM      3  N   UNL     1      -0.544  12.125  20.870  0.00  0.00    +0.000 N 
ATOM      4  C   UNL     1       0.874  11.942  21.191  0.00  0.00    +0.000 C 
ATOM      5  C   UNL     1       1.260  10.442  21.254  0.00  0.00    +0.000 C 
ATOM      6  N   UNL     1       0.783   9.751  20.039  0.00  0.00    +0.000 N 
ATOM      7  C   UNL     1      -0.663   9.903  19.789  0.00  0.00    +0.000 C 
ATOM      8  C   UNL     1      -0.985  11.398  19.667  0.00  0.00    +0.000 C 
ENDROOT
BRANCH   1  11
ATOM      9  C   UNL     1      -3.572  12.448  23.777  0.00  0.00    +0.000 C 
ATOM     10  C   UNL     1      -3.725  12.735  22.327  0.00  0.00    +0.000 A 
ATOM     11  C   UNL     1      -2.728  13.057  21.403  0.00  0.00    +0.000 A 
ATOM     12  O   UNL     1      -3.298  13.256  20.166  0.00  0.00    +0.000 OA
ATOM     13  C   UNL     1      -4.624  13.101  20.314  0.00  0.00    +0.000 A 
ATOM     14  C   UNL     1      -4.951  12.743  21.596  0.00  0.00    +0.000 A 
ATOM     15  C   UNL     1      -6.336  12.480  21.941  0.00  0.00    +0.000 C 
ATOM     16  O   UNL     1      -6.693  12.215  23.086  0.00  0.00    +0.000 OA
ATOM     17  C   UNL     1      -7.321  12.468  20.762  0.00  0.00    +0.000 C 
ATOM     18  C   UNL     1      -6.974  13.505  19.650  0.00  0.00    +0.000 C 
ATOM     19  C   UNL     1      -7.917  13.312  18.448  0.00  0.00    +0.000 C 
ATOM     20  C   UNL     1      -7.184  14.934  20.194  0.00  0.00    +0.000 C 
ATOM     21  C   UNL     1      -5.513  13.311  19.152  0.00  0.00    +0.000 C 
ENDBRANCH   1  11
BRANCH   6  22
ATOM     22  C   UNL     1       1.516   8.753  19.420  0.00  0.00    +0.000 A 
ATOM     23  C   UNL     1       2.032   8.965  18.128  0.00  0.00    +0.000 A 
ATOM     24  C   UNL     1       2.846   8.023  17.484  0.00  0.00    +0.000 A 
ATOM     25  C   UNL     1       3.166   6.831  18.120  0.00  0.00    +0.000 A 
ATOM     26  C   UNL     1       2.666   6.579  19.394  0.00  0.00    +0.000 A 
ATOM     27  C   UNL     1       1.856   7.530  20.026  0.00  0.00    +0.000 A 
ATOM     28  F   UNL     1       1.384   7.215  21.245  0.00  0.00    +0.000 F 
ENDBRANCH   6  22
TORSDOF 2
ENDMDL
MODEL 3
REMARK VINA RESULT:      -7.4      6.406      8.380
REMARK  Name = 
REMARK  5 active torsions:
REMARK  status: ('A' for Active; 'I' for Inactive)
REMARK    1  A    between atoms: C_1  and  C_2
REMARK    2  A    between atoms: C_3  and  C_4
REMARK    3  A    between atoms: N_9  and  C_10
REMARK    4  A    between atoms: C_25  and  C_26
REMARK    5  A    between atoms: C_25  and  C_27
REMARK                            x       y       z     vdW  Elec       q    Type
REMARK                         _______ _______ _______ _____ _____    ______ ____
ROOT
ATOM      1  C   UNL     1       3.776  16.285  18.448  0.00  0.00    +0.000 C 
ATOM      2  O   UNL     1       3.344  17.096  17.628  0.00  0.00    +0.000 OA
ATOM      3  N   UNL     1       2.909  15.571  19.275  0.00  0.00    +0.000 N 
ATOM      4  C   UNL     1       1.469  15.575  19.003  0.00  0.00    +0.000 C 
ATOM      5  C   UNL     1       0.832  14.183  19.248  0.00  0.00    +0.000 C 
ATOM      6  N   UNL     1       1.234  13.677  20.576  0.00  0.00    +0.000 N 
ATOM      7  C   UNL     1       2.692  13.623  20.786  0.00  0.00    +0.000 C 
ATOM      8  C   UNL     1       3.267  15.034  20.599  0.00  0.00    +0.000 C 
ENDROOT
BRANCH   1  11
ATOM      9  C   UNL     1       6.222  17.912  19.953  0.00  0.00    +0.000 C 
ATOM     10  C   UNL     1       6.264  16.665  19.146  0.00  0.00    +0.000 A 
ATOM     11  C   UNL     1       5.197  15.985  18.555  0.00  0.00    +0.000 A 
ATOM     12  O   UNL     1       5.669  14.868  17.904  0.00  0.00    +0.000 OA
ATOM     13  C   UNL     1       6.996  14.824  18.110  0.00  0.00    +0.000 A 
ATOM     14  C   UNL     1       7.432  15.910  18.825  0.00  0.00    +0.000 A 
ATOM     15  C   UNL     1       8.847  16.066  19.106  0.00  0.00    +0.000 C 
ATOM     16  O   UNL     1       9.286  16.986  19.792  0.00  0.00    +0.000 OA
ATOM     17  C   UNL     1       9.776  15.054  18.417  0.00  0.00    +0.000 C 
ATOM     18  C   UNL     1       9.157  13.629  18.286  0.00  0.00    +0.000 C 
ATOM     19  C   UNL     1      10.088  12.734  17.449  0.00  0.00    +0.000 C 
ATOM     20  C   UNL     1       9.021  12.996  19.687  0.00  0.00    +0.000 C 
ATOM     21  C   UNL     1       7.777  13.691  17.571  0.00  0.00    +0.000 C 
ENDBRANCH   1  11
BRANCH   6  22
ATOM     22  C   UNL     1       0.367  12.965  21.388  0.00  0.00    +0.000 A 
ATOM     23  C   UNL     1      -0.451  13.650  22.307  0.00  0.00    +0.000 A 
ATOM     24  C   UNL     1      -1.402  12.991  23.098  0.00  0.00    +0.000 A 
ATOM     25  C   UNL     1      -1.560  11.615  22.993  0.00  0.00    +0.000 A 
ATOM     26  C   UNL     1      -0.762  10.901  22.104  0.00  0.00    +0.000 A 
ATOM     27  C   UNL     1       0.182  11.573  21.319  0.00  0.00    +0.000 A 
ATOM     28  F   UNL     1       0.938  10.822  20.500  0.00  0.00    +0.000 F 
ENDBRANCH   6  22
TORSDOF 2
ENDMDL
MODEL 4
REMARK VINA RESULT:      -7.3      3.597      8.864
REMARK  Name = 
REMARK  5 active torsions:
REMARK  status: ('A' for Active; 'I' for Inactive)
REMARK    1  A    between atoms: C_1  and  C_2
REMARK    2  A    between atoms: C_3  and  C_4
REMARK    3  A    between atoms: N_9  and  C_10
REMARK    4  A    between atoms: C_25  and  C_26
REMARK    5  A    between atoms: C_25  and  C_27
REMARK                            x       y       z     vdW  Elec       q    Type
REMARK                         _______ _______ _______ _____ _____    ______ ____
ROOT
ATOM      1  C   UNL     1      -1.294  13.211  19.774  0.00  0.00    +0.000 C 
ATOM      2  O   UNL     1      -0.989  14.226  19.147  0.00  0.00    +0.000 OA
ATOM      3  N   UNL     1      -0.628  12.005  19.555  0.00  0.00    +0.000 N 
ATOM      4  C   UNL     1       0.613  11.985  18.776  0.00  0.00    +0.000 C 
ATOM      5  C   UNL     1       1.651  11.001  19.372  0.00  0.00    +0.000 C 
ATOM      6  N   UNL     1       1.019   9.687  19.604  0.00  0.00    +0.000 N 
ATOM      7  C   UNL     1      -0.188   9.740  20.450  0.00  0.00    +0.000 C 
ATOM      8  C   UNL     1      -1.211  10.672  19.786  0.00  0.00    +0.000 C 
ENDROOT
BRANCH   1  11
ATOM      9  C   UNL     1      -1.068  13.743  23.024  0.00  0.00    +0.000 C 
ATOM     10  C   UNL     1      -2.255  13.409  22.195  0.00  0.00    +0.000 A 
ATOM     11  C   UNL     1      -2.316  13.228  20.811  0.00  0.00    +0.000 A 
ATOM     12  O   UNL     1      -3.610  12.938  20.444  0.00  0.00    +0.000 OA
ATOM     13  C   UNL     1      -4.354  12.973  21.562  0.00  0.00    +0.000 A 
ATOM     14  C   UNL     1      -3.586  13.214  22.672  0.00  0.00    +0.000 A 
ATOM     15  C   UNL     1      -4.204  13.239  23.985  0.00  0.00    +0.000 C 
ATOM     16  O   UNL     1      -3.576  13.510  25.005  0.00  0.00    +0.000 OA
ATOM     17  C   UNL     1      -5.682  12.820  24.029  0.00  0.00    +0.000 C 
ATOM     18  C   UNL     1      -6.494  13.261  22.774  0.00  0.00    +0.000 C 
ATOM     19  C   UNL     1      -7.911  12.665  22.835  0.00  0.00    +0.000 C 
ATOM     20  C   UNL     1      -6.626  14.799  22.760  0.00  0.00    +0.000 C 
ATOM     21  C   UNL     1      -5.812  12.753  21.471  0.00  0.00    +0.000 C 
ENDBRANCH   1  11
BRANCH   6  22
ATOM     22  C   UNL     1       1.690   8.495  19.389  0.00  0.00    +0.000 A 
ATOM     23  C   UNL     1       1.738   7.526  20.409  0.00  0.00    +0.000 A 
ATOM     24  C   UNL     1       2.334   6.272  20.222  0.00  0.00    +0.000 A 
ATOM     25  C   UNL     1       2.908   5.950  18.998  0.00  0.00    +0.000 A 
ATOM     26  C   UNL     1       2.891   6.886  17.968  0.00  0.00    +0.000 A 
ATOM     27  C   UNL     1       2.290   8.134  18.169  0.00  0.00    +0.000 A 
ATOM     28  F   UNL     1       2.330   9.002  17.143  0.00  0.00    +0.000 F 
ENDBRANCH   6  22
TORSDOF 2
ENDMDL
MODEL 5
REMARK VINA RESULT:      -7.3      3.734      8.942
REMARK  Name = 
REMARK  5 active torsions:
REMARK  status: ('A' for Active; 'I' for Inactive)
REMARK    1  A    between atoms: C_1  and  C_2
REMARK    2  A    between atoms: C_3  and  C_4
REMARK    3  A    between atoms: N_9  and  C_10
REMARK    4  A    between atoms: C_25  and  C_26
REMARK    5  A    between atoms: C_25  and  C_27
REMARK                            x       y       z     vdW  Elec       q    Type
REMARK                         _______ _______ _______ _____ _____    ______ ____
ROOT
ATOM      1  C   UNL     1      -1.197  13.584  19.921  0.00  0.00    +0.000 C 
ATOM      2  O   UNL     1      -0.839  14.655  19.432  0.00  0.00    +0.000 OA
ATOM      3  N   UNL     1      -0.557  12.391  19.583  0.00  0.00    +0.000 N 
ATOM      4  C   UNL     1       0.713  12.425  18.851  0.00  0.00    +0.000 C 
ATOM      5  C   UNL     1       1.700  11.344  19.361  0.00  0.00    +0.000 C 
ATOM      6  N   UNL     1       1.022  10.033  19.412  0.00  0.00    +0.000 N 
ATOM      7  C   UNL     1      -0.215  10.024  20.215  0.00  0.00    +0.000 C 
ATOM      8  C   UNL     1      -1.185  11.060  19.632  0.00  0.00    +0.000 C 
ENDROOT
BRANCH   1  11
ATOM      9  C   UNL     1      -1.104  13.891  23.207  0.00  0.00    +0.000 C 
ATOM     10  C   UNL     1      -2.252  13.595  22.311  0.00  0.00    +0.000 A 
ATOM     11  C   UNL     1      -2.257  13.511  20.917  0.00  0.00    +0.000 A 
ATOM     12  O   UNL     1      -3.530  13.225  20.480  0.00  0.00    +0.000 OA
ATOM     13  C   UNL     1      -4.317  13.169  21.568  0.00  0.00    +0.000 A 
ATOM     14  C   UNL     1      -3.596  13.345  22.721  0.00  0.00    +0.000 A 
ATOM     15  C   UNL     1      -4.264  13.267  24.007  0.00  0.00    +0.000 C 
ATOM     16  O   UNL     1      -3.680  13.476  25.067  0.00  0.00    +0.000 OA
ATOM     17  C   UNL     1      -5.733  12.820  23.965  0.00  0.00    +0.000 C 
ATOM     18  C   UNL     1      -6.506  13.334  22.712  0.00  0.00    +0.000 C 
ATOM     19  C   UNL     1      -7.912  12.711  22.676  0.00  0.00    +0.000 C 
ATOM     20  C   UNL     1      -6.668  14.867  22.800  0.00  0.00    +0.000 C 
ATOM     21  C   UNL     1      -5.766  12.931  21.404  0.00  0.00    +0.000 C 
ENDBRANCH   1  11
BRANCH   6  22
ATOM     22  C   UNL     1       1.668   8.854  19.079  0.00  0.00    +0.000 A 
ATOM     23  C   UNL     1       2.243   8.709  17.802  0.00  0.00    +0.000 A 
ATOM     24  C   UNL     1       2.975   7.572  17.436  0.00  0.00    +0.000 A 
ATOM     25  C   UNL     1       3.152   6.536  18.344  0.00  0.00    +0.000 A 
ATOM     26  C   UNL     1       2.590   6.637  19.614  0.00  0.00    +0.000 A 
ATOM     27  C   UNL     1       1.863   7.780  19.967  0.00  0.00    +0.000 A 
ATOM     28  F   UNL     1       1.324   7.804  21.198  0.00  0.00    +0.000 F 
ENDBRANCH   6  22
TORSDOF 2
ENDMDL
MODEL 6
REMARK VINA RESULT:      -7.3      0.919      1.286
REMARK  Name = 
REMARK  5 active torsions:
REMARK  status: ('A' for Active; 'I' for Inactive)
REMARK    1  A    between atoms: C_1  and  C_2
REMARK    2  A    between atoms: C_3  and  C_4
REMARK    3  A    between atoms: N_9  and  C_10
REMARK    4  A    between atoms: C_25  and  C_26
REMARK    5  A    between atoms: C_25  and  C_27
REMARK                            x       y       z     vdW  Elec       q    Type
REMARK                         _______ _______ _______ _____ _____    ______ ____
ROOT
ATOM      1  C   UNL     1       1.458  10.538  18.925  0.00  0.00    +0.000 C 
ATOM      2  O   UNL     1       2.335  11.390  18.780  0.00  0.00    +0.000 OA
ATOM      3  N   UNL     1       0.108  10.890  18.922  0.00  0.00    +0.000 N 
ATOM      4  C   UNL     1      -0.298  12.227  18.482  0.00  0.00    +0.000 C 
ATOM      5  C   UNL     1      -1.601  12.187  17.644  0.00  0.00    +0.000 C 
ATOM      6  N   UNL     1      -2.631  11.406  18.359  0.00  0.00    +0.000 N 
ATOM      7  C   UNL     1      -2.207  10.040  18.722  0.00  0.00    +0.000 C 
ATOM      8  C   UNL     1      -0.956  10.135  19.605  0.00  0.00    +0.000 C 
ENDROOT
BRANCH   1  11
ATOM      9  C   UNL     1       1.104   8.451  21.458  0.00  0.00    +0.000 C 
ATOM     10  C   UNL     1       1.680   8.220  20.108  0.00  0.00    +0.000 A 
ATOM     11  C   UNL     1       1.777   9.123  19.047  0.00  0.00    +0.000 A 
ATOM     12  O   UNL     1       2.368   8.502  17.970  0.00  0.00    +0.000 OA
ATOM     13  C   UNL     1       2.604   7.229  18.330  0.00  0.00    +0.000 A 
ATOM     14  C   UNL     1       2.246   6.998  19.633  0.00  0.00    +0.000 A 
ATOM     15  C   UNL     1       2.470   5.691  20.222  0.00  0.00    +0.000 C 
ATOM     16  O   UNL     1       2.115   5.411  21.364  0.00  0.00    +0.000 OA
ATOM     17  C   UNL     1       3.262   4.701  19.354  0.00  0.00    +0.000 C 
ATOM     18  C   UNL     1       2.965   4.832  17.829  0.00  0.00    +0.000 C 
ATOM     19  C   UNL     1       3.912   3.916  17.034  0.00  0.00    +0.000 C 
ATOM     20  C   UNL     1       1.517   4.377  17.546  0.00  0.00    +0.000 C 
ATOM     21  C   UNL     1       3.189   6.294  17.347  0.00  0.00    +0.000 C 
ENDBRANCH   1  11
BRANCH   6  22
ATOM     22  C   UNL     1      -3.969  11.760  18.345  0.00  0.00    +0.000 A 
ATOM     23  C   UNL     1      -4.715  11.628  17.157  0.00  0.00    +0.000 A 
ATOM     24  C   UNL     1      -6.088  11.897  17.103  0.00  0.00    +0.000 A 
ATOM     25  C   UNL     1      -6.762  12.312  18.245  0.00  0.00    +0.000 A 
ATOM     26  C   UNL     1      -6.058  12.464  19.436  0.00  0.00    +0.000 A 
ATOM     27  C   UNL     1      -4.686  12.191  19.476  0.00  0.00    +0.000 A 
ATOM     28  F   UNL     1      -4.060  12.383  20.650  0.00  0.00    +0.000 F 
ENDBRANCH   6  22
TORSDOF 2
ENDMDL
MODEL 7
REMARK VINA RESULT:      -7.3      6.424      8.433
REMARK  Name = 
REMARK  5 active torsions:
REMARK  status: ('A' for Active; 'I' for Inactive)
REMARK    1  A    between atoms: C_1  and  C_2
REMARK    2  A    between atoms: C_3  and  C_4
REMARK    3  A    between atoms: N_9  and  C_10
REMARK    4  A    between atoms: C_25  and  C_26
REMARK    5  A    between atoms: C_25  and  C_27
REMARK                            x       y       z     vdW  Elec       q    Type
REMARK                         _______ _______ _______ _____ _____    ______ ____
ROOT
ATOM      1  C   UNL     1       3.755  16.255  18.435  0.00  0.00    +0.000 C 
ATOM      2  O   UNL     1       3.335  17.071  17.614  0.00  0.00    +0.000 OA
ATOM      3  N   UNL     1       2.876  15.533  19.242  0.00  0.00    +0.000 N 
ATOM      4  C   UNL     1       1.441  15.535  18.946  0.00  0.00    +0.000 C 
ATOM      5  C   UNL     1       0.804  14.140  19.170  0.00  0.00    +0.000 C 
ATOM      6  N   UNL     1       1.185  13.625  20.501  0.00  0.00    +0.000 N 
ATOM      7  C   UNL     1       2.640  13.573  20.734  0.00  0.00    +0.000 C 
ATOM      8  C   UNL     1       3.213  14.987  20.568  0.00  0.00    +0.000 C 
ENDROOT
BRANCH   1  11
ATOM      9  C   UNL     1       6.168  17.868  20.008  0.00  0.00    +0.000 C 
ATOM     10  C   UNL     1       6.228  16.633  19.183  0.00  0.00    +0.000 A 
ATOM     11  C   UNL     1       5.174  15.958  18.564  0.00  0.00    +0.000 A 
ATOM     12  O   UNL     1       5.662  14.853  17.905  0.00  0.00    +0.000 OA
ATOM     13  C   UNL     1       6.986  14.810  18.135  0.00  0.00    +0.000 A 
ATOM     14  C   UNL     1       7.405  15.887  18.873  0.00  0.00    +0.000 A 
ATOM     15  C   UNL     1       8.814  16.044  19.182  0.00  0.00    +0.000 C 
ATOM     16  O   UNL     1       9.237  16.955  19.890  0.00  0.00    +0.000 OA
ATOM     17  C   UNL     1       9.758  15.045  18.496  0.00  0.00    +0.000 C 
ATOM     18  C   UNL     1       9.147  13.620  18.332  0.00  0.00    +0.000 C 
ATOM     19  C   UNL     1      10.096  12.740  17.500  0.00  0.00    +0.000 C 
ATOM     20  C   UNL     1       8.988  12.966  19.722  0.00  0.00    +0.000 C 
ATOM     21  C   UNL     1       7.780  13.688  17.593  0.00  0.00    +0.000 C 
ENDBRANCH   1  11
BRANCH   6  22
ATOM     22  C   UNL     1       0.306  12.904  21.293  0.00  0.00    +0.000 A 
ATOM     23  C   UNL     1       0.261  11.501  21.187  0.00  0.00    +0.000 A 
ATOM     24  C   UNL     1      -0.550  10.715  22.016  0.00  0.00    +0.000 A 
ATOM     25  C   UNL     1      -1.347  11.315  22.981  0.00  0.00    +0.000 A 
ATOM     26  C   UNL     1      -1.338  12.701  23.110  0.00  0.00    +0.000 A 
ATOM     27  C   UNL     1      -0.522  13.474  22.276  0.00  0.00    +0.000 A 
ATOM     28  F   UNL     1      -0.579  14.808  22.434  0.00  0.00    +0.000 F 
ENDBRANCH   6  22
TORSDOF 2
ENDMDL
MODEL 8
REMARK VINA RESULT:      -7.3      2.955      4.147
REMARK  Name = 
REMARK  5 active torsions:
REMARK  status: ('A' for Active; 'I' for Inactive)
REMARK    1  A    between atoms: C_1  and  C_2
REMARK    2  A    between atoms: C_3  and  C_4
REMARK    3  A    between atoms: N_9  and  C_10
REMARK    4  A    between atoms: C_25  and  C_26
REMARK    5  A    between atoms: C_25  and  C_27
REMARK                            x       y       z     vdW  Elec       q    Type
REMARK                         _______ _______ _______ _____ _____    ______ ____
ROOT
ATOM      1  C   UNL     1       2.795   8.048  17.865  0.00  0.00    +0.000 C 
ATOM      2  O   UNL     1       3.313   8.505  16.846  0.00  0.00    +0.000 OA
ATOM      3  N   UNL     1       2.018   8.853  18.698  0.00  0.00    +0.000 N 
ATOM      4  C   UNL     1       1.587  10.177  18.241  0.00  0.00    +0.000 C 
ATOM      5  C   UNL     1       0.134  10.493  18.680  0.00  0.00    +0.000 C 
ATOM      6  N   UNL     1      -0.020  10.231  20.125  0.00  0.00    +0.000 N 
ATOM      7  C   UNL     1       0.359   8.866  20.534  0.00  0.00    +0.000 C 
ATOM      8  C   UNL     1       1.823   8.624  20.140  0.00  0.00    +0.000 C 
ENDROOT
BRANCH   1  11
ATOM      9  C   UNL     1       5.404   6.276  18.843  0.00  0.00    +0.000 C 
ATOM     10  C   UNL     1       4.001   5.851  18.598  0.00  0.00    +0.000 A 
ATOM     11  C   UNL     1       2.914   6.641  18.221  0.00  0.00    +0.000 A 
ATOM     12  O   UNL     1       1.791   5.854  18.111  0.00  0.00    +0.000 OA
ATOM     13  C   UNL     1       2.152   4.604  18.447  0.00  0.00    +0.000 A 
ATOM     14  C   UNL     1       3.494   4.522  18.717  0.00  0.00    +0.000 A 
ATOM     15  C   UNL     1       4.085   3.239  19.052  0.00  0.00    +0.000 C 
ATOM     16  O   UNL     1       5.267   3.117  19.361  0.00  0.00    +0.000 OA
ATOM     17  C   UNL     1       3.154   2.024  18.911  0.00  0.00    +0.000 C 
ATOM     18  C   UNL     1       1.672   2.326  19.290  0.00  0.00    +0.000 C 
ATOM     19  C   UNL     1       0.794   1.104  18.969  0.00  0.00    +0.000 C 
ATOM     20  C   UNL     1       1.574   2.597  20.807  0.00  0.00    +0.000 C 
ATOM     21  C   UNL     1       1.131   3.536  18.476  0.00  0.00    +0.000 C 
ENDBRANCH   1  11
BRANCH   6  22
ATOM     22  C   UNL     1      -0.797  11.034  20.943  0.00  0.00    +0.000 A 
ATOM     23  C   UNL     1      -1.726  11.923  20.369  0.00  0.00    +0.000 A 
ATOM     24  C   UNL     1      -2.594  12.702  21.146  0.00  0.00    +0.000 A 
ATOM     25  C   UNL     1      -2.555  12.614  22.532  0.00  0.00    +0.000 A 
ATOM     26  C   UNL     1      -1.643  11.754  23.137  0.00  0.00    +0.000 A 
ATOM     27  C   UNL     1      -0.783  10.981  22.348  0.00  0.00    +0.000 A 
ATOM     28  F   UNL     1       0.091  10.190  22.994  0.00  0.00    +0.000 F 
ENDBRANCH   6  22
TORSDOF 2
ENDMDL
MODEL 9
REMARK VINA RESULT:      -7.3      3.855      8.860
REMARK  Name = 
REMARK  5 active torsions:
REMARK  status: ('A' for Active; 'I' for Inactive)
REMARK    1  A    between atoms: C_1  and  C_2
REMARK    2  A    between atoms: C_3  and  C_4
REMARK    3  A    between atoms: N_9  and  C_10
REMARK    4  A    between atoms: C_25  and  C_26
REMARK    5  A    between atoms: C_25  and  C_27
REMARK                            x       y       z     vdW  Elec       q    Type
REMARK                         _______ _______ _______ _____ _____    ______ ____
ROOT
ATOM      1  C   UNL     1      -1.232  11.615  18.966  0.00  0.00    +0.000 C 
ATOM      2  O   UNL     1      -1.891  11.908  17.967  0.00  0.00    +0.000 OA
ATOM      3  N   UNL     1      -0.444  10.464  18.993  0.00  0.00    +0.000 N 
ATOM      4  C   UNL     1      -0.178   9.730  17.753  0.00  0.00    +0.000 C 
ATOM      5  C   UNL     1       1.280   9.208  17.695  0.00  0.00    +0.000 C 
ATOM      6  N   UNL     1       1.606   8.495  18.946  0.00  0.00    +0.000 N 
ATOM      7  C   UNL     1       1.390   9.291  20.168  0.00  0.00    +0.000 C 
ATOM      8  C   UNL     1      -0.080   9.727  20.215  0.00  0.00    +0.000 C 
ENDROOT
BRANCH   1  11
ATOM      9  C   UNL     1       1.019  13.817  19.956  0.00  0.00    +0.000 C 
ATOM     10  C   UNL     1      -0.244  13.387  20.610  0.00  0.00    +0.000 A 
ATOM     11  C   UNL     1      -1.192  12.477  20.138  0.00  0.00    +0.000 A 
ATOM     12  O   UNL     1      -2.219  12.373  21.048  0.00  0.00    +0.000 OA
ATOM     13  C   UNL     1      -1.944  13.224  22.051  0.00  0.00    +0.000 A 
ATOM     14  C   UNL     1      -0.736  13.846  21.869  0.00  0.00    +0.000 A 
ATOM     15  C   UNL     1      -0.241  14.767  22.875  0.00  0.00    +0.000 C 
ATOM     16  O   UNL     1       0.805  15.397  22.735  0.00  0.00    +0.000 OA
ATOM     17  C   UNL     1      -1.065  14.841  24.169  0.00  0.00    +0.000 C 
ATOM     18  C   UNL     1      -2.599  14.682  23.941  0.00  0.00    +0.000 C 
ATOM     19  C   UNL     1      -3.322  14.611  25.298  0.00  0.00    +0.000 C 
ATOM     20  C   UNL     1      -3.137  15.913  23.180  0.00  0.00    +0.000 C 
ATOM     21  C   UNL     1      -2.908  13.372  23.162  0.00  0.00    +0.000 C 
ENDBRANCH   1  11
BRANCH   6  22
ATOM     22  C   UNL     1       2.393   7.356  18.963  0.00  0.00    +0.000 A 
ATOM     23  C   UNL     1       3.417   7.200  18.010  0.00  0.00    +0.000 A 
ATOM     24  C   UNL     1       4.295   6.108  18.026  0.00  0.00    +0.000 A 
ATOM     25  C   UNL     1       4.170   5.130  19.005  0.00  0.00    +0.000 A 
ATOM     26  C   UNL     1       3.163   5.242  19.959  0.00  0.00    +0.000 A 
ATOM     27  C   UNL     1       2.294   6.340  19.931  0.00  0.00    +0.000 A 
ATOM     28  F   UNL     1       1.328   6.376  20.864  0.00  0.00    +0.000 F 
ENDBRANCH   6  22
TORSDOF 2
ENDMDL
