MODEL 1
REMARK VINA RESULT:      -9.0      0.000      0.000
REMARK  Name = 
REMARK  6 active torsions:
REMARK  status: ('A' for Active; 'I' for Inactive)
REMARK    1  A    between atoms: C_1  and  C_2
REMARK    2  A    between atoms: C_6  and  N_7
REMARK    3  A    between atoms: C_8  and  S_9
REMARK    4  A    between atoms: C_12  and  C_13
REMARK    5  A    between atoms: C_16  and  S_17
REMARK    6  A    between atoms: S_17  and  C_20
REMARK                            x       y       z     vdW  Elec       q    Type
REMARK                         _______ _______ _______ _____ _____    ______ ____
ROOT
ATOM      1  C   UNL     1       2.065   6.333  19.504  0.00  0.00    +0.000 A 
ATOM      2  C   UNL     1       2.273   7.073  18.326  0.00  0.00    +0.000 A 
ATOM      3  C   UNL     1       2.012   8.446  18.284  0.00  0.00    +0.000 A 
ATOM      4  C   UNL     1       1.532   9.087  19.429  0.00  0.00    +0.000 A 
ATOM      5  C   UNL     1       1.329   8.376  20.609  0.00  0.00    +0.000 A 
ATOM      6  C   UNL     1       1.637   7.016  20.652  0.00  0.00    +0.000 A 
ENDROOT
BRANCH   1  11
ATOM      7  N   UNL     1       3.345   4.175  18.842  0.00  0.00    +0.000 N 
ATOM      8  C   UNL     1       2.989   2.843  19.024  0.00  0.00    +0.000 A 
ATOM      9  N   UNL     1       1.923   2.756  19.787  0.00  0.00    +0.000 NA
ATOM     10  N   UNL     1       1.530   4.019  20.108  0.00  0.00    +0.000 NA
ATOM     11  C   UNL     1       2.328   4.884  19.501  0.00  0.00    +0.000 A 
BRANCH   7  17
ATOM     12  C   UNL     1       7.904   6.152  18.989  0.00  0.00    +0.000 C 
ATOM     13  C   UNL     1       6.737   5.640  18.196  0.00  0.00    +0.000 A 
ATOM     14  C   UNL     1       6.733   5.700  16.800  0.00  0.00    +0.000 A 
ATOM     15  C   UNL     1       5.616   5.278  16.085  0.00  0.00    +0.000 A 
ATOM     16  C   UNL     1       4.480   4.821  16.759  0.00  0.00    +0.000 A 
ATOM     17  C   UNL     1       4.480   4.714  18.159  0.00  0.00    +0.000 A 
ATOM     18  C   UNL     1       5.624   5.109  18.865  0.00  0.00    +0.000 A 
ENDBRANCH   7  17
BRANCH   8  19
ATOM     19  S   UNL     1       3.850   1.423  18.516  0.00  0.00    +0.000 S 
ATOM     20  H   UNL     1       5.114   1.825  18.687  0.00  0.00    +0.000 HD
ENDBRANCH   8  19
ENDBRANCH   1  11
BRANCH   4  21
ATOM     21  S   UNL     1       1.119  10.815  19.373  0.00  0.00    +0.000 S 
ATOM     22  O   UNL     1       1.190  11.321  20.727  0.00  0.00    +0.000 OA
ATOM     23  O   UNL     1       1.918  11.417  18.320  0.00  0.00    +0.000 OA
BRANCH  21  24
ATOM     24  C   UNL     1      -0.585  10.907  18.858  0.00  0.00    +0.000 A 
ATOM     25  C   UNL     1      -1.436  11.834  19.466  0.00  0.00    +0.000 A 
ATOM     26  C   UNL     1      -2.752  11.957  19.016  0.00  0.00    +0.000 A 
ATOM     27  C   UNL     1      -3.201  11.164  17.960  0.00  0.00    +0.000 A 
ATOM     28 BR   UNL     1      -4.970  11.364  17.327  0.00  0.00    +0.000 Br
ATOM     29  C   UNL     1      -2.351  10.238  17.355  0.00  0.00    +0.000 A 
ATOM     30  C   UNL     1      -1.035  10.108  17.801  0.00  0.00    +0.000 A 
ENDBRANCH  21  24
ENDBRANCH   4  21
TORSDOF 5
ENDMDL
MODEL 2
REMARK VINA RESULT:      -9.0      0.584      1.070
REMARK  Name = 
REMARK  6 active torsions:
REMARK  status: ('A' for Active; 'I' for Inactive)
REMARK    1  A    between atoms: C_1  and  C_2
REMARK    2  A    between atoms: C_6  and  N_7
REMARK    3  A    between atoms: C_8  and  S_9
REMARK    4  A    between atoms: C_12  and  C_13
REMARK    5  A    between atoms: C_16  and  S_17
REMARK    6  A    between atoms: S_17  and  C_20
REMARK                            x       y       z     vdW  Elec       q    Type
REMARK                         _______ _______ _______ _____ _____    ______ ____
ROOT
ATOM      1  C   UNL     1       2.214   6.595  19.864  0.00  0.00    +0.000 A 
ATOM      2  C   UNL     1       1.597   7.308  20.906  0.00  0.00    +0.000 A 
ATOM      3  C   UNL     1       1.200   8.638  20.731  0.00  0.00    +0.000 A 
ATOM      4  C   UNL     1       1.427   9.264  19.503  0.00  0.00    +0.000 A 
ATOM      5  C   UNL     1       2.028   8.573  18.453  0.00  0.00    +0.000 A 
ATOM      6  C   UNL     1       2.377   7.233  18.625  0.00  0.00    +0.000 A 
ENDROOT
BRANCH   1  11
ATOM      7  N   UNL     1       3.602   4.451  19.402  0.00  0.00    +0.000 N 
ATOM      8  C   UNL     1       3.441   3.166  19.907  0.00  0.00    +0.000 A 
ATOM      9  N   UNL     1       2.542   3.162  20.865  0.00  0.00    +0.000 NA
ATOM     10  N   UNL     1       2.067   4.430  21.002  0.00  0.00    +0.000 NA
ATOM     11  C   UNL     1       2.641   5.204  20.095  0.00  0.00    +0.000 A 
BRANCH   7  17
ATOM     12  C   UNL     1       7.804   6.849  18.259  0.00  0.00    +0.000 C 
ATOM     13  C   UNL     1       6.612   6.045  17.830  0.00  0.00    +0.000 A 
ATOM     14  C   UNL     1       6.382   5.761  16.481  0.00  0.00    +0.000 A 
ATOM     15  C   UNL     1       5.237   5.068  16.097  0.00  0.00    +0.000 A 
ATOM     16  C   UNL     1       4.296   4.679  17.054  0.00  0.00    +0.000 A 
ATOM     17  C   UNL     1       4.529   4.918  18.418  0.00  0.00    +0.000 A 
ATOM     18  C   UNL     1       5.703   5.585  18.794  0.00  0.00    +0.000 A 
ENDBRANCH   7  17
BRANCH   8  19
ATOM     19  S   UNL     1       4.360   1.741  19.530  0.00  0.00    +0.000 S 
ATOM     20  H   UNL     1       4.225   1.705  18.200  0.00  0.00    +0.000 HD
ENDBRANCH   8  19
ENDBRANCH   1  11
BRANCH   4  21
ATOM     21  S   UNL     1       1.002  10.977  19.286  0.00  0.00    +0.000 S 
ATOM     22  O   UNL     1       1.131  11.621  20.576  0.00  0.00    +0.000 OA
ATOM     23  O   UNL     1       1.748  11.466  18.140  0.00  0.00    +0.000 OA
BRANCH  21  24
ATOM     24  C   UNL     1      -0.725  11.011  18.844  0.00  0.00    +0.000 A 
ATOM     25  C   UNL     1      -1.571  11.939  19.456  0.00  0.00    +0.000 A 
ATOM     26  C   UNL     1      -2.908  12.016  19.061  0.00  0.00    +0.000 A 
ATOM     27  C   UNL     1      -3.383  11.176  18.053  0.00  0.00    +0.000 A 
ATOM     28 BR   UNL     1      -5.182  11.313  17.492  0.00  0.00    +0.000 Br
ATOM     29  C   UNL     1      -2.537  10.249  17.443  0.00  0.00    +0.000 A 
ATOM     30  C   UNL     1      -1.200  10.165  17.835  0.00  0.00    +0.000 A 
ENDBRANCH  21  24
ENDBRANCH   4  21
TORSDOF 5
ENDMDL
MODEL 3
REMARK VINA RESULT:      -8.9      0.297      1.264
REMARK  Name = 
REMARK  6 active torsions:
REMARK  status: ('A' for Active; 'I' for Inactive)
REMARK    1  A    between atoms: C_1  and  C_2
REMARK    2  A    between atoms: C_6  and  N_7
REMARK    3  A    between atoms: C_8  and  S_9
REMARK    4  A    between atoms: C_12  and  C_13
REMARK    5  A    between atoms: C_16  and  S_17
REMARK    6  A    between atoms: S_17  and  C_20
REMARK                            x       y       z     vdW  Elec       q    Type
REMARK                         _______ _______ _______ _____ _____    ______ ____
ROOT
ATOM      1  C   UNL     1       2.028   6.340  19.584  0.00  0.00    +0.000 A 
ATOM      2  C   UNL     1       2.282   7.070  18.410  0.00  0.00    +0.000 A 
ATOM      3  C   UNL     1       2.031   8.445  18.350  0.00  0.00    +0.000 A 
ATOM      4  C   UNL     1       1.515   9.096  19.474  0.00  0.00    +0.000 A 
ATOM      5  C   UNL     1       1.266   8.394  20.650  0.00  0.00    +0.000 A 
ATOM      6  C   UNL     1       1.565   7.032  20.712  0.00  0.00    +0.000 A 
ENDROOT
BRANCH   1  11
ATOM      7  N   UNL     1       3.319   4.170  18.985  0.00  0.00    +0.000 N 
ATOM      8  C   UNL     1       2.948   2.841  19.159  0.00  0.00    +0.000 A 
ATOM      9  N   UNL     1       1.851   2.765  19.879  0.00  0.00    +0.000 NA
ATOM     10  N   UNL     1       1.454   4.032  20.178  0.00  0.00    +0.000 NA
ATOM     11  C   UNL     1       2.282   4.888  19.599  0.00  0.00    +0.000 A 
BRANCH   7  17
ATOM     12  C   UNL     1       5.837   5.192  14.822  0.00  0.00    +0.000 C 
ATOM     13  C   UNL     1       5.721   5.258  16.317  0.00  0.00    +0.000 A 
ATOM     14  C   UNL     1       6.742   5.809  17.095  0.00  0.00    +0.000 A 
ATOM     15  C   UNL     1       6.644   5.804  18.484  0.00  0.00    +0.000 A 
ATOM     16  C   UNL     1       5.538   5.220  19.109  0.00  0.00    +0.000 A 
ATOM     17  C   UNL     1       4.483   4.698  18.344  0.00  0.00    +0.000 A 
ATOM     18  C   UNL     1       4.578   4.742  16.947  0.00  0.00    +0.000 A 
ENDBRANCH   7  17
BRANCH   8  19
ATOM     19  S   UNL     1       3.819   1.413  18.693  0.00  0.00    +0.000 S 
ATOM     20  H   UNL     1       4.019   1.658  17.394  0.00  0.00    +0.000 HD
ENDBRANCH   8  19
ENDBRANCH   1  11
BRANCH   4  21
ATOM     21  S   UNL     1       1.116  10.827  19.393  0.00  0.00    +0.000 S 
ATOM     22  O   UNL     1       1.191  11.351  20.740  0.00  0.00    +0.000 OA
ATOM     23  O   UNL     1       1.920  11.407  18.332  0.00  0.00    +0.000 OA
BRANCH  21  24
ATOM     24  C   UNL     1      -0.587  10.924  18.877  0.00  0.00    +0.000 A 
ATOM     25  C   UNL     1      -1.437  11.850  19.488  0.00  0.00    +0.000 A 
ATOM     26  C   UNL     1      -2.752  11.978  19.036  0.00  0.00    +0.000 A 
ATOM     27  C   UNL     1      -3.202  11.190  17.976  0.00  0.00    +0.000 A 
ATOM     28 BR   UNL     1      -4.969  11.397  17.342  0.00  0.00    +0.000 Br
ATOM     29  C   UNL     1      -2.352  10.266  17.367  0.00  0.00    +0.000 A 
ATOM     30  C   UNL     1      -1.037  10.131  17.815  0.00  0.00    +0.000 A 
ENDBRANCH  21  24
ENDBRANCH   4  21
TORSDOF 5
ENDMDL
MODEL 4
REMARK VINA RESULT:      -8.6      1.829      3.533
REMARK  Name = 
REMARK  6 active torsions:
REMARK  status: ('A' for Active; 'I' for Inactive)
REMARK    1  A    between atoms: C_1  and  C_2
REMARK    2  A    between atoms: C_6  and  N_7
REMARK    3  A    between atoms: C_8  and  S_9
REMARK    4  A    between atoms: C_12  and  C_13
REMARK    5  A    between atoms: C_16  and  S_17
REMARK    6  A    between atoms: S_17  and  C_20
REMARK                            x       y       z     vdW  Elec       q    Type
REMARK                         _______ _______ _______ _____ _____    ______ ____
ROOT
ATOM      1  C   UNL     1       2.687   7.771  18.334  0.00  0.00    +0.000 A 
ATOM      2  C   UNL     1       2.271   7.451  19.638  0.00  0.00    +0.000 A 
ATOM      3  C   UNL     1       1.442   8.315  20.361  0.00  0.00    +0.000 A 
ATOM      4  C   UNL     1       1.029   9.515  19.777  0.00  0.00    +0.000 A 
ATOM      5  C   UNL     1       1.419   9.847  18.482  0.00  0.00    +0.000 A 
ATOM      6  C   UNL     1       2.208   8.955  17.754  0.00  0.00    +0.000 A 
ENDROOT
BRANCH   1  11
ATOM      7  N   UNL     1       3.650   5.447  17.696  0.00  0.00    +0.000 N 
ATOM      8  C   UNL     1       4.791   5.131  16.967  0.00  0.00    +0.000 A 
ATOM      9  N   UNL     1       5.304   6.214  16.429  0.00  0.00    +0.000 NA
ATOM     10  N   UNL     1       4.536   7.275  16.804  0.00  0.00    +0.000 NA
ATOM     11  C   UNL     1       3.580   6.847  17.613  0.00  0.00    +0.000 A 
BRANCH   7  17
ATOM     12  C   UNL     1       2.353   2.913  21.771  0.00  0.00    +0.000 C 
ATOM     13  C   UNL     1       2.054   3.354  20.368  0.00  0.00    +0.000 A 
ATOM     14  C   UNL     1       0.914   2.903  19.699  0.00  0.00    +0.000 A 
ATOM     15  C   UNL     1       0.686   3.273  18.376  0.00  0.00    +0.000 A 
ATOM     16  C   UNL     1       1.612   4.072  17.700  0.00  0.00    +0.000 A 
ATOM     17  C   UNL     1       2.743   4.568  18.367  0.00  0.00    +0.000 A 
ATOM     18  C   UNL     1       2.942   4.218  19.709  0.00  0.00    +0.000 A 
ENDBRANCH   7  17
BRANCH   8  19
ATOM     19  S   UNL     1       5.434   3.558  16.608  0.00  0.00    +0.000 S 
ATOM     20  H   UNL     1       4.562   2.780  17.258  0.00  0.00    +0.000 HD
ENDBRANCH   8  19
ENDBRANCH   1  11
BRANCH   4  21
ATOM     21  S   UNL     1       0.040  10.662  20.708  0.00  0.00    +0.000 S 
ATOM     22  O   UNL     1      -0.441   9.965  21.882  0.00  0.00    +0.000 OA
ATOM     23  O   UNL     1       0.809  11.886  20.842  0.00  0.00    +0.000 OA
BRANCH  21  24
ATOM     24  C   UNL     1      -1.377  11.039  19.694  0.00  0.00    +0.000 A 
ATOM     25  C   UNL     1      -1.650  10.246  18.576  0.00  0.00    +0.000 A 
ATOM     26  C   UNL     1      -2.799  10.495  17.821  0.00  0.00    +0.000 A 
ATOM     27  C   UNL     1      -3.666  11.522  18.195  0.00  0.00    +0.000 A 
ATOM     28 BR   UNL     1      -5.240  11.826  17.195  0.00  0.00    +0.000 Br
ATOM     29  C   UNL     1      -3.392  12.312  19.311  0.00  0.00    +0.000 A 
ATOM     30  C   UNL     1      -2.244  12.071  20.069  0.00  0.00    +0.000 A 
ENDBRANCH  21  24
ENDBRANCH   4  21
TORSDOF 5
ENDMDL
MODEL 5
REMARK VINA RESULT:      -8.4      1.862      3.318
REMARK  Name = 
REMARK  6 active torsions:
REMARK  status: ('A' for Active; 'I' for Inactive)
REMARK    1  A    between atoms: C_1  and  C_2
REMARK    2  A    between atoms: C_6  and  N_7
REMARK    3  A    between atoms: C_8  and  S_9
REMARK    4  A    between atoms: C_12  and  C_13
REMARK    5  A    between atoms: C_16  and  S_17
REMARK    6  A    between atoms: S_17  and  C_20
REMARK                            x       y       z     vdW  Elec       q    Type
REMARK                         _______ _______ _______ _____ _____    ______ ____
ROOT
ATOM      1  C   UNL     1       2.740   7.714  18.371  0.00  0.00    +0.000 A 
ATOM      2  C   UNL     1       2.349   8.946  17.817  0.00  0.00    +0.000 A 
ATOM      3  C   UNL     1       1.546   9.836  18.539  0.00  0.00    +0.000 A 
ATOM      4  C   UNL     1       1.125   9.489  19.825  0.00  0.00    +0.000 A 
ATOM      5  C   UNL     1       1.510   8.279  20.397  0.00  0.00    +0.000 A 
ATOM      6  C   UNL     1       2.349   7.420  19.685  0.00  0.00    +0.000 A 
ENDROOT
BRANCH   1  11
ATOM      7  N   UNL     1       3.609   5.390  17.610  0.00  0.00    +0.000 N 
ATOM      8  C   UNL     1       4.695   5.072  16.801  0.00  0.00    +0.000 A 
ATOM      9  N   UNL     1       5.195   6.160  16.260  0.00  0.00    +0.000 NA
ATOM     10  N   UNL     1       4.477   7.224  16.713  0.00  0.00    +0.000 NA
ATOM     11  C   UNL     1       3.565   6.793  17.570  0.00  0.00    +0.000 A 
BRANCH   7  17
ATOM     12  C   UNL     1       2.553   2.712  21.662  0.00  0.00    +0.000 C 
ATOM     13  C   UNL     1       2.158   3.227  20.309  0.00  0.00    +0.000 A 
ATOM     14  C   UNL     1       0.952   2.846  19.717  0.00  0.00    +0.000 A 
ATOM     15  C   UNL     1       0.632   3.285  18.434  0.00  0.00    +0.000 A 
ATOM     16  C   UNL     1       1.530   4.083  17.720  0.00  0.00    +0.000 A 
ATOM     17  C   UNL     1       2.728   4.511  18.314  0.00  0.00    +0.000 A 
ATOM     18  C   UNL     1       3.021   4.092  19.618  0.00  0.00    +0.000 A 
ENDBRANCH   7  17
BRANCH   8  19
ATOM     19  S   UNL     1       5.278   3.497  16.359  0.00  0.00    +0.000 S 
ATOM     20  H   UNL     1       5.935   3.784  15.230  0.00  0.00    +0.000 HD
ENDBRANCH   8  19
ENDBRANCH   1  11
BRANCH   4  21
ATOM     21  S   UNL     1       0.041  10.571  20.727  0.00  0.00    +0.000 S 
ATOM     22  O   UNL     1      -0.412   9.852  21.899  0.00  0.00    +0.000 OA
ATOM     23  O   UNL     1       0.720  11.847  20.864  0.00  0.00    +0.000 OA
BRANCH  21  24
ATOM     24  C   UNL     1      -1.380  10.839  19.684  0.00  0.00    +0.000 A 
ATOM     25  C   UNL     1      -2.204  11.944  19.918  0.00  0.00    +0.000 A 
ATOM     26  C   UNL     1      -3.275  12.197  19.059  0.00  0.00    +0.000 A 
ATOM     27  C   UNL     1      -3.507  11.353  17.973  0.00  0.00    +0.000 A 
ATOM     28 BR   UNL     1      -4.933  11.723  16.790  0.00  0.00    +0.000 Br
ATOM     29  C   UNL     1      -2.684  10.250  17.740  0.00  0.00    +0.000 A 
ATOM     30  C   UNL     1      -1.613   9.990  18.597  0.00  0.00    +0.000 A 
ENDBRANCH  21  24
ENDBRANCH   4  21
TORSDOF 5
ENDMDL
MODEL 6
REMARK VINA RESULT:      -8.4      1.998      3.566
REMARK  Name = 
REMARK  6 active torsions:
REMARK  status: ('A' for Active; 'I' for Inactive)
REMARK    1  A    between atoms: C_1  and  C_2
REMARK    2  A    between atoms: C_6  and  N_7
REMARK    3  A    between atoms: C_8  and  S_9
REMARK    4  A    between atoms: C_12  and  C_13
REMARK    5  A    between atoms: C_16  and  S_17
REMARK    6  A    between atoms: S_17  and  C_20
REMARK                            x       y       z     vdW  Elec       q    Type
REMARK                         _______ _______ _______ _____ _____    ______ ____
ROOT
ATOM      1  C   UNL     1       3.089   7.479  17.986  0.00  0.00    +0.000 A 
ATOM      2  C   UNL     1       2.628   8.746  17.588  0.00  0.00    +0.000 A 
ATOM      3  C   UNL     1       1.792   9.501  18.418  0.00  0.00    +0.000 A 
ATOM      4  C   UNL     1       1.408   8.981  19.656  0.00  0.00    +0.000 A 
ATOM      5  C   UNL     1       1.861   7.733  20.075  0.00  0.00    +0.000 A 
ATOM      6  C   UNL     1       2.732   7.010  19.259  0.00  0.00    +0.000 A 
ENDROOT
BRANCH   1  11
ATOM      7  N   UNL     1       4.335   5.357  17.161  0.00  0.00    +0.000 N 
ATOM      8  C   UNL     1       5.295   5.225  16.164  0.00  0.00    +0.000 A 
ATOM      9  N   UNL     1       5.409   6.347  15.489  0.00  0.00    +0.000 NA
ATOM     10  N   UNL     1       4.552   7.255  16.033  0.00  0.00    +0.000 NA
ATOM     11  C   UNL     1       3.948   6.703  17.074  0.00  0.00    +0.000 A 
BRANCH   7  17
ATOM     12  C   UNL     1       0.635   2.412  18.690  0.00  0.00    +0.000 C 
ATOM     13  C   UNL     1       2.058   2.872  18.806  0.00  0.00    +0.000 A 
ATOM     14  C   UNL     1       2.902   2.361  19.796  0.00  0.00    +0.000 A 
ATOM     15  C   UNL     1       4.200   2.846  19.927  0.00  0.00    +0.000 A 
ATOM     16  C   UNL     1       4.657   3.868  19.091  0.00  0.00    +0.000 A 
ATOM     17  C   UNL     1       3.839   4.365  18.064  0.00  0.00    +0.000 A 
ATOM     18  C   UNL     1       2.547   3.843  17.920  0.00  0.00    +0.000 A 
ENDBRANCH   7  17
BRANCH   8  19
ATOM     19  S   UNL     1       6.149   3.793  15.678  0.00  0.00    +0.000 S 
ATOM     20  H   UNL     1       5.666   2.907  16.556  0.00  0.00    +0.000 HD
ENDBRANCH   8  19
ENDBRANCH   1  11
BRANCH   4  21
ATOM     21  S   UNL     1       0.284   9.890  20.691  0.00  0.00    +0.000 S 
ATOM     22  O   UNL     1      -0.289   8.955  21.635  0.00  0.00    +0.000 OA
ATOM     23  O   UNL     1       0.987  11.072  21.159  0.00  0.00    +0.000 OA
BRANCH  21  24
ATOM     24  C   UNL     1      -1.034  10.448  19.628  0.00  0.00    +0.000 A 
ATOM     25  C   UNL     1      -1.409   9.667  18.532  0.00  0.00    +0.000 A 
ATOM     26  C   UNL     1      -2.487  10.065  17.740  0.00  0.00    +0.000 A 
ATOM     27  C   UNL     1      -3.186  11.231  18.055  0.00  0.00    +0.000 A 
ATOM     28 BR   UNL     1      -4.671  11.743  17.005  0.00  0.00    +0.000 Br
ATOM     29  C   UNL     1      -2.811  12.011  19.149  0.00  0.00    +0.000 A 
ATOM     30  C   UNL     1      -1.732  11.620  19.944  0.00  0.00    +0.000 A 
ENDBRANCH  21  24
ENDBRANCH   4  21
TORSDOF 5
ENDMDL
MODEL 7
REMARK VINA RESULT:      -8.3      2.688      3.870
REMARK  Name = 
REMARK  6 active torsions:
REMARK  status: ('A' for Active; 'I' for Inactive)
REMARK    1  A    between atoms: C_1  and  C_2
REMARK    2  A    between atoms: C_6  and  N_7
REMARK    3  A    between atoms: C_8  and  S_9
REMARK    4  A    between atoms: C_12  and  C_13
REMARK    5  A    between atoms: C_16  and  S_17
REMARK    6  A    between atoms: S_17  and  C_20
REMARK                            x       y       z     vdW  Elec       q    Type
REMARK                         _______ _______ _______ _____ _____    ______ ____
ROOT
ATOM      1  C   UNL     1       3.088   7.263  18.099  0.00  0.00    +0.000 A 
ATOM      2  C   UNL     1       2.909   6.673  19.363  0.00  0.00    +0.000 A 
ATOM      3  C   UNL     1       2.112   7.285  20.336  0.00  0.00    +0.000 A 
ATOM      4  C   UNL     1       1.492   8.502  20.046  0.00  0.00    +0.000 A 
ATOM      5  C   UNL     1       1.646   9.100  18.797  0.00  0.00    +0.000 A 
ATOM      6  C   UNL     1       2.406   8.456  17.819  0.00  0.00    +0.000 A 
ENDROOT
BRANCH   1  11
ATOM      7  N   UNL     1       4.283   5.240  16.998  0.00  0.00    +0.000 N 
ATOM      8  C   UNL     1       5.280   5.220  16.029  0.00  0.00    +0.000 A 
ATOM      9  N   UNL     1       5.470   6.427  15.545  0.00  0.00    +0.000 NA
ATOM     10  N   UNL     1       4.627   7.278  16.193  0.00  0.00    +0.000 NA
ATOM     11  C   UNL     1       3.954   6.600  17.109  0.00  0.00    +0.000 A 
BRANCH   7  17
ATOM     12  C   UNL     1       4.625   1.777  20.548  0.00  0.00    +0.000 C 
ATOM     13  C   UNL     1       3.825   2.466  19.482  0.00  0.00    +0.000 A 
ATOM     14  C   UNL     1       2.533   2.042  19.163  0.00  0.00    +0.000 A 
ATOM     15  C   UNL     1       1.831   2.654  18.128  0.00  0.00    +0.000 A 
ATOM     16  C   UNL     1       2.426   3.675  17.382  0.00  0.00    +0.000 A 
ATOM     17  C   UNL     1       3.707   4.144  17.714  0.00  0.00    +0.000 A 
ATOM     18  C   UNL     1       4.388   3.543  18.780  0.00  0.00    +0.000 A 
ENDBRANCH   7  17
BRANCH   8  19
ATOM     19  S   UNL     1       6.095   3.842  15.356  0.00  0.00    +0.000 S 
ATOM     20  H   UNL     1       5.414   2.846  15.932  0.00  0.00    +0.000 HD
ENDBRANCH   8  19
ENDBRANCH   1  11
BRANCH   4  21
ATOM     21  S   UNL     1       0.539   9.335  21.295  0.00  0.00    +0.000 S 
ATOM     22  O   UNL     1      -0.750   8.680  21.365  0.00  0.00    +0.000 OA
ATOM     23  O   UNL     1       1.376   9.440  22.478  0.00  0.00    +0.000 OA
BRANCH  21  24
ATOM     24  C   UNL     1       0.265  10.991  20.695  0.00  0.00    +0.000 A 
ATOM     25  C   UNL     1       1.273  11.948  20.839  0.00  0.00    +0.000 A 
ATOM     26  C   UNL     1       1.089  13.225  20.307  0.00  0.00    +0.000 A 
ATOM     27  C   UNL     1      -0.092  13.531  19.628  0.00  0.00    +0.000 A 
ATOM     28 BR   UNL     1      -0.318  15.248  18.873  0.00  0.00    +0.000 Br
ATOM     29  C   UNL     1      -1.097  12.574  19.486  0.00  0.00    +0.000 A 
ATOM     30  C   UNL     1      -0.921  11.296  20.018  0.00  0.00    +0.000 A 
ENDBRANCH  21  24
ENDBRANCH   4  21
TORSDOF 5
ENDMDL
MODEL 8
REMARK VINA RESULT:      -8.2      2.764      4.286
REMARK  Name = 
REMARK  6 active torsions:
REMARK  status: ('A' for Active; 'I' for Inactive)
REMARK    1  A    between atoms: C_1  and  C_2
REMARK    2  A    between atoms: C_6  and  N_7
REMARK    3  A    between atoms: C_8  and  S_9
REMARK    4  A    between atoms: C_12  and  C_13
REMARK    5  A    between atoms: C_16  and  S_17
REMARK    6  A    between atoms: S_17  and  C_20
REMARK                            x       y       z     vdW  Elec       q    Type
REMARK                         _______ _______ _______ _____ _____    ______ ____
ROOT
ATOM      1  C   UNL     1       2.672   7.751  18.335  0.00  0.00    +0.000 A 
ATOM      2  C   UNL     1       2.323   7.496  19.673  0.00  0.00    +0.000 A 
ATOM      3  C   UNL     1       1.502   8.379  20.382  0.00  0.00    +0.000 A 
ATOM      4  C   UNL     1       1.030   9.532  19.751  0.00  0.00    +0.000 A 
ATOM      5  C   UNL     1       1.354   9.799  18.423  0.00  0.00    +0.000 A 
ATOM      6  C   UNL     1       2.135   8.887  17.712  0.00  0.00    +0.000 A 
ENDROOT
BRANCH   1  11
ATOM      7  N   UNL     1       3.619   5.412  17.731  0.00  0.00    +0.000 N 
ATOM      8  C   UNL     1       4.758   5.077  17.007  0.00  0.00    +0.000 A 
ATOM      9  N   UNL     1       5.278   6.149  16.453  0.00  0.00    +0.000 NA
ATOM     10  N   UNL     1       4.518   7.220  16.813  0.00  0.00    +0.000 NA
ATOM     11  C   UNL     1       3.559   6.810  17.628  0.00  0.00    +0.000 A 
BRANCH   7  17
ATOM     12  C   UNL     1       2.351   2.876  21.814  0.00  0.00    +0.000 C 
ATOM     13  C   UNL     1       2.032   3.335  20.422  0.00  0.00    +0.000 A 
ATOM     14  C   UNL     1       0.867   2.917  19.774  0.00  0.00    +0.000 A 
ATOM     15  C   UNL     1       0.620   3.303  18.459  0.00  0.00    +0.000 A 
ATOM     16  C   UNL     1       1.550   4.085  17.770  0.00  0.00    +0.000 A 
ATOM     17  C   UNL     1       2.707   4.549  18.415  0.00  0.00    +0.000 A 
ATOM     18  C   UNL     1       2.926   4.183  19.750  0.00  0.00    +0.000 A 
ENDBRANCH   7  17
BRANCH   8  19
ATOM     19  S   UNL     1       5.390   3.495  16.671  0.00  0.00    +0.000 S 
ATOM     20  H   UNL     1       4.293   2.883  16.211  0.00  0.00    +0.000 HD
ENDBRANCH   8  19
ENDBRANCH   1  11
BRANCH   4  21
ATOM     21  S   UNL     1       0.050  10.705  20.659  0.00  0.00    +0.000 S 
ATOM     22  O   UNL     1      -1.336  10.470  20.315  0.00  0.00    +0.000 OA
ATOM     23  O   UNL     1       0.484  10.650  22.044  0.00  0.00    +0.000 OA
BRANCH  21  24
ATOM     24  C   UNL     1       0.489  12.315  20.033  0.00  0.00    +0.000 A 
ATOM     25  C   UNL     1      -0.402  12.992  19.197  0.00  0.00    +0.000 A 
ATOM     26  C   UNL     1      -0.093  14.283  18.763  0.00  0.00    +0.000 A 
ATOM     27  C   UNL     1       1.095  14.887  19.175  0.00  0.00    +0.000 A 
ATOM     28 BR   UNL     1       1.490  16.649  18.619  0.00  0.00    +0.000 Br
ATOM     29  C   UNL     1       1.985  14.209  20.009  0.00  0.00    +0.000 A 
ATOM     30  C   UNL     1       1.683  12.918  20.445  0.00  0.00    +0.000 A 
ENDBRANCH  21  24
ENDBRANCH   4  21
TORSDOF 5
ENDMDL
MODEL 9
REMARK VINA RESULT:      -8.2      2.787      4.202
REMARK  Name = 
REMARK  6 active torsions:
REMARK  status: ('A' for Active; 'I' for Inactive)
REMARK    1  A    between atoms: C_1  and  C_2
REMARK    2  A    between atoms: C_6  and  N_7
REMARK    3  A    between atoms: C_8  and  S_9
REMARK    4  A    between atoms: C_12  and  C_13
REMARK    5  A    between atoms: C_16  and  S_17
REMARK    6  A    between atoms: S_17  and  C_20
REMARK                            x       y       z     vdW  Elec       q    Type
REMARK                         _______ _______ _______ _____ _____    ______ ____
ROOT
ATOM      1  C   UNL     1       2.644   7.774  18.352  0.00  0.00    +0.000 A 
ATOM      2  C   UNL     1       2.184   8.890  17.630  0.00  0.00    +0.000 A 
ATOM      3  C   UNL     1       1.275   9.788  18.199  0.00  0.00    +0.000 A 
ATOM      4  C   UNL     1       0.816   9.567  19.499  0.00  0.00    +0.000 A 
ATOM      5  C   UNL     1       1.266   8.474  20.236  0.00  0.00    +0.000 A 
ATOM      6  C   UNL     1       2.208   7.611  19.675  0.00  0.00    +0.000 A 
ENDROOT
BRANCH   1  11
ATOM      7  N   UNL     1       3.666   5.442  17.849  0.00  0.00    +0.000 N 
ATOM      8  C   UNL     1       4.845   5.115  17.187  0.00  0.00    +0.000 A 
ATOM      9  N   UNL     1       5.369   6.186  16.633  0.00  0.00    +0.000 NA
ATOM     10  N   UNL     1       4.571   7.248  16.932  0.00  0.00    +0.000 NA
ATOM     11  C   UNL     1       3.582   6.836  17.710  0.00  0.00    +0.000 A 
BRANCH   7  17
ATOM     12  C   UNL     1       2.208   3.041  21.950  0.00  0.00    +0.000 C 
ATOM     13  C   UNL     1       1.971   3.426  20.519  0.00  0.00    +0.000 A 
ATOM     14  C   UNL     1       0.869   2.935  19.814  0.00  0.00    +0.000 A 
ATOM     15  C   UNL     1       0.700   3.253  18.469  0.00  0.00    +0.000 A 
ATOM     16  C   UNL     1       1.647   4.039  17.808  0.00  0.00    +0.000 A 
ATOM     17  C   UNL     1       2.739   4.576  18.509  0.00  0.00    +0.000 A 
ATOM     18  C   UNL     1       2.878   4.277  19.871  0.00  0.00    +0.000 A 
ENDBRANCH   7  17
BRANCH   8  19
ATOM     19  S   UNL     1       5.524   3.540  16.919  0.00  0.00    +0.000 S 
ATOM     20  H   UNL     1       4.454   2.768  17.139  0.00  0.00    +0.000 HD
ENDBRANCH   8  19
ENDBRANCH   1  11
BRANCH   4  21
ATOM     21  S   UNL     1      -0.399  10.653  20.210  0.00  0.00    +0.000 S 
ATOM     22  O   UNL     1      -1.637  10.450  19.487  0.00  0.00    +0.000 OA
ATOM     23  O   UNL     1      -0.349  10.474  21.650  0.00  0.00    +0.000 OA
BRANCH  21  24
ATOM     24  C   UNL     1       0.152  12.313  19.866  0.00  0.00    +0.000 A 
ATOM     25  C   UNL     1       1.302  12.798  20.495  0.00  0.00    +0.000 A 
ATOM     26  C   UNL     1       1.776  14.071  20.173  0.00  0.00    +0.000 A 
ATOM     27  C   UNL     1       1.107  14.842  19.222  0.00  0.00    +0.000 A 
ATOM     28 BR   UNL     1       1.777  16.547  18.760  0.00  0.00    +0.000 Br
ATOM     29  C   UNL     1      -0.042  14.356  18.595  0.00  0.00    +0.000 A 
ATOM     30  C   UNL     1      -0.523  13.086  18.914  0.00  0.00    +0.000 A 
ENDBRANCH  21  24
ENDBRANCH   4  21
TORSDOF 5
ENDMDL
