MODEL 1
REMARK VINA RESULT:      -7.2      0.000      0.000
REMARK  Name = 
REMARK  7 active torsions:
REMARK  status: ('A' for Active; 'I' for Inactive)
REMARK    1  A    between atoms: C_1  and  C_2
REMARK    2  A    between atoms: C_2  and  C_3
REMARK    3  A    between atoms: C_2  and  C_4
REMARK    4  A    between atoms: C_6  and  C_7
REMARK    5  A    between atoms: C_12  and  C_14
REMARK    6  A    between atoms: C_14  and  C_15
REMARK    7  A    between atoms: C_15  and  C_16
REMARK                            x       y       z     vdW  Elec       q    Type
REMARK                         _______ _______ _______ _____ _____    ______ ____
ROOT
ATOM      1  C   UNL     1       5.431   5.959  17.065  0.00  0.00    +0.000 C 
ATOM      2  C   UNL     1       6.289   5.849  18.327  0.00  0.00    +0.000 C 
ATOM      3  C   UNL     1       6.367   4.426  18.865  0.00  0.00    +0.000 C 
ATOM      4  C   UNL     1       4.975   3.840  19.060  0.00  0.00    +0.000 C 
ATOM      5  N   UNL     1       4.213   3.861  17.814  0.00  0.00    +0.000 N 
ATOM      6  C   UNL     1       3.274   2.889  17.462  0.00  0.00    +0.000 C 
ATOM      7  O   UNL     1       2.575   2.988  16.452  0.00  0.00    +0.000 OA
ATOM      8  C   UNL     1       4.122   5.157  17.135  0.00  0.00    +0.000 C 
ENDROOT
BRANCH   1  11
ATOM      9  C   UNL     1       6.535   4.713  13.987  0.00  0.00    +0.000 A 
ATOM     10  N   UNL     1       5.535   5.020  14.778  0.00  0.00    +0.000 NA
ATOM     11  C   UNL     1       6.164   5.689  15.793  0.00  0.00    +0.000 A 
ATOM     12  N   UNL     1       7.474   5.895  15.606  0.00  0.00    +0.000 NA
ATOM     13  O   UNL     1       7.729   5.230  14.398  0.00  0.00    +0.000 OA
BRANCH   9  15
ATOM     14  C   UNL     1       5.095   3.457  12.439  0.00  0.00    +0.000 C 
ATOM     15  C   UNL     1       6.541   3.771  12.836  0.00  0.00    +0.000 C 
ATOM     16  C   UNL     1       7.304   4.358  11.651  0.00  0.00    +0.000 C 
ENDBRANCH   9  15
ENDBRANCH   1  11
BRANCH   6  17
ATOM     17  C   UNL     1       3.129   1.704  18.400  0.00  0.00    +0.000 C 
BRANCH  17  18
ATOM     18  C   UNL     1       1.867   1.804  19.254  0.00  0.00    +0.000 C 
BRANCH  18  19
ATOM     19  C   UNL     1       1.820   3.082  20.028  0.00  0.00    +0.000 A 
ATOM     20  C   UNL     1       1.205   4.260  19.644  0.00  0.00    +0.000 A 
ATOM     21  S   UNL     1       1.425   5.463  20.847  0.00  0.00    +0.000 S 
ATOM     22  C   UNL     1       2.315   4.335  21.781  0.00  0.00    +0.000 A 
ATOM     23  N   UNL     1       2.448   3.138  21.263  0.00  0.00    +0.000 NA
ENDBRANCH  18  19
ENDBRANCH  17  18
ENDBRANCH   6  17
TORSDOF 5
ENDMDL
MODEL 2
REMARK VINA RESULT:      -7.2      3.122      4.766
REMARK  Name = 
REMARK  7 active torsions:
REMARK  status: ('A' for Active; 'I' for Inactive)
REMARK    1  A    between atoms: C_1  and  C_2
REMARK    2  A    between atoms: C_2  and  C_3
REMARK    3  A    between atoms: C_2  and  C_4
REMARK    4  A    between atoms: C_6  and  C_7
REMARK    5  A    between atoms: C_12  and  C_14
REMARK    6  A    between atoms: C_14  and  C_15
REMARK    7  A    between atoms: C_15  and  C_16
REMARK                            x       y       z     vdW  Elec       q    Type
REMARK                         _______ _______ _______ _____ _____    ______ ____
ROOT
ATOM      1  C   UNL     1       7.498   5.829  18.622  0.00  0.00    +0.000 C 
ATOM      2  C   UNL     1       7.937   4.677  17.716  0.00  0.00    +0.000 C 
ATOM      3  C   UNL     1       6.910   4.347  16.641  0.00  0.00    +0.000 C 
ATOM      4  C   UNL     1       5.537   4.107  17.255  0.00  0.00    +0.000 C 
ATOM      5  N   UNL     1       5.094   5.264  18.030  0.00  0.00    +0.000 N 
ATOM      6  C   UNL     1       3.759   5.659  18.143  0.00  0.00    +0.000 C 
ATOM      7  O   UNL     1       3.407   6.577  18.884  0.00  0.00    +0.000 OA
ATOM      8  C   UNL     1       6.024   5.749  19.053  0.00  0.00    +0.000 C 
ENDROOT
BRANCH   1  11
ATOM      9  C   UNL     1       8.468   9.171  18.255  0.00  0.00    +0.000 A 
ATOM     10  N   UNL     1       8.634   8.015  18.852  0.00  0.00    +0.000 NA
ATOM     11  C   UNL     1       7.839   7.187  18.106  0.00  0.00    +0.000 A 
ATOM     12  N   UNL     1       7.285   7.757  17.028  0.00  0.00    +0.000 NA
ATOM     13  O   UNL     1       7.696   9.094  17.131  0.00  0.00    +0.000 OA
BRANCH   9  15
ATOM     14  C   UNL     1       9.320  10.418  20.195  0.00  0.00    +0.000 C 
ATOM     15  C   UNL     1       8.871  10.521  18.734  0.00  0.00    +0.000 C 
ATOM     16  C   UNL     1       9.990  11.097  17.871  0.00  0.00    +0.000 C 
ENDBRANCH   9  15
ENDBRANCH   1  11
BRANCH   6  17
ATOM     17  C   UNL     1       2.744   4.881  17.324  0.00  0.00    +0.000 C 
BRANCH  17  18
ATOM     18  C   UNL     1       1.420   4.714  18.068  0.00  0.00    +0.000 C 
BRANCH  18  19
ATOM     19  C   UNL     1       1.558   3.808  19.249  0.00  0.00    +0.000 A 
ATOM     20  C   UNL     1       1.224   4.100  20.559  0.00  0.00    +0.000 A 
ATOM     21  S   UNL     1       1.570   2.758  21.572  0.00  0.00    +0.000 S 
ATOM     22  C   UNL     1       2.133   1.897  20.201  0.00  0.00    +0.000 A 
ATOM     23  N   UNL     1       2.073   2.535  19.057  0.00  0.00    +0.000 NA
ENDBRANCH  18  19
ENDBRANCH  17  18
ENDBRANCH   6  17
TORSDOF 5
ENDMDL
MODEL 3
REMARK VINA RESULT:      -7.1      1.980      2.673
REMARK  Name = 
REMARK  7 active torsions:
REMARK  status: ('A' for Active; 'I' for Inactive)
REMARK    1  A    between atoms: C_1  and  C_2
REMARK    2  A    between atoms: C_2  and  C_3
REMARK    3  A    between atoms: C_2  and  C_4
REMARK    4  A    between atoms: C_6  and  C_7
REMARK    5  A    between atoms: C_12  and  C_14
REMARK    6  A    between atoms: C_14  and  C_15
REMARK    7  A    between atoms: C_15  and  C_16
REMARK                            x       y       z     vdW  Elec       q    Type
REMARK                         _______ _______ _______ _____ _____    ______ ____
ROOT
ATOM      1  C   UNL     1       6.453   5.962  16.696  0.00  0.00    +0.000 C 
ATOM      2  C   UNL     1       7.330   5.336  17.781  0.00  0.00    +0.000 C 
ATOM      3  C   UNL     1       6.520   4.635  18.864  0.00  0.00    +0.000 C 
ATOM      4  C   UNL     1       5.464   5.567  19.443  0.00  0.00    +0.000 C 
ATOM      5  N   UNL     1       4.573   6.069  18.401  0.00  0.00    +0.000 N 
ATOM      6  C   UNL     1       3.220   6.349  18.604  0.00  0.00    +0.000 C 
ATOM      7  O   UNL     1       2.519   6.867  17.733  0.00  0.00    +0.000 OA
ATOM      8  C   UNL     1       5.221   6.699  17.247  0.00  0.00    +0.000 C 
ENDROOT
BRANCH   1  11
ATOM      9  C   UNL     1       6.339   4.042  13.772  0.00  0.00    +0.000 A 
ATOM     10  N   UNL     1       7.047   4.549  14.753  0.00  0.00    +0.000 NA
ATOM     11  C   UNL     1       6.077   5.033  15.590  0.00  0.00    +0.000 A 
ATOM     12  N   UNL     1       4.821   4.751  15.220  0.00  0.00    +0.000 NA
ATOM     13  O   UNL     1       4.992   4.096  13.992  0.00  0.00    +0.000 OA
BRANCH   9  15
ATOM     14  C   UNL     1       5.652   2.897  11.707  0.00  0.00    +0.000 C 
ATOM     15  C   UNL     1       6.810   3.587  12.437  0.00  0.00    +0.000 C 
ATOM     16  C   UNL     1       7.338   4.758  11.613  0.00  0.00    +0.000 C 
ENDBRANCH   9  15
ENDBRANCH   1  11
BRANCH   6  17
ATOM     17  C   UNL     1       2.648   6.010  19.969  0.00  0.00    +0.000 C 
BRANCH  17  18
ATOM     18  C   UNL     1       1.641   4.865  19.897  0.00  0.00    +0.000 C 
BRANCH  18  19
ATOM     19  C   UNL     1       2.221   3.657  19.235  0.00  0.00    +0.000 A 
ATOM     20  C   UNL     1       3.169   2.798  19.762  0.00  0.00    +0.000 A 
ATOM     21  S   UNL     1       3.542   1.560  18.634  0.00  0.00    +0.000 S 
ATOM     22  C   UNL     1       2.422   2.254  17.537  0.00  0.00    +0.000 A 
ATOM     23  N   UNL     1       1.796   3.327  17.957  0.00  0.00    +0.000 NA
ENDBRANCH  18  19
ENDBRANCH  17  18
ENDBRANCH   6  17
TORSDOF 5
ENDMDL
MODEL 4
REMARK VINA RESULT:      -7.1      3.380      4.051
REMARK  Name = 
REMARK  7 active torsions:
REMARK  status: ('A' for Active; 'I' for Inactive)
REMARK    1  A    between atoms: C_1  and  C_2
REMARK    2  A    between atoms: C_2  and  C_3
REMARK    3  A    between atoms: C_2  and  C_4
REMARK    4  A    between atoms: C_6  and  C_7
REMARK    5  A    between atoms: C_12  and  C_14
REMARK    6  A    between atoms: C_14  and  C_15
REMARK    7  A    between atoms: C_15  and  C_16
REMARK                            x       y       z     vdW  Elec       q    Type
REMARK                         _______ _______ _______ _____ _____    ______ ____
ROOT
ATOM      1  C   UNL     1       5.441   4.616  17.342  0.00  0.00    +0.000 C 
ATOM      2  C   UNL     1       4.450   3.463  17.512  0.00  0.00    +0.000 C 
ATOM      3  C   UNL     1       3.012   3.872  17.219  0.00  0.00    +0.000 C 
ATOM      4  C   UNL     1       2.618   5.096  18.035  0.00  0.00    +0.000 C 
ATOM      5  N   UNL     1       3.518   6.217  17.775  0.00  0.00    +0.000 N 
ATOM      6  C   UNL     1       3.117   7.555  17.789  0.00  0.00    +0.000 C 
ATOM      7  O   UNL     1       3.920   8.482  17.667  0.00  0.00    +0.000 OA
ATOM      8  C   UNL     1       4.949   5.946  17.936  0.00  0.00    +0.000 C 
ENDROOT
BRANCH   1  11
ATOM      9  C   UNL     1       6.260   4.260  13.958  0.00  0.00    +0.000 A 
ATOM     10  N   UNL     1       5.400   4.067  14.929  0.00  0.00    +0.000 NA
ATOM     11  C   UNL     1       5.945   4.799  15.949  0.00  0.00    +0.000 A 
ATOM     12  N   UNL     1       7.031   5.509  15.616  0.00  0.00    +0.000 NA
ATOM     13  O   UNL     1       7.253   5.140  14.281  0.00  0.00    +0.000 OA
BRANCH   9  15
ATOM     14  C   UNL     1       4.965   3.414  12.046  0.00  0.00    +0.000 C 
ATOM     15  C   UNL     1       6.363   3.536  12.663  0.00  0.00    +0.000 C 
ATOM     16  C   UNL     1       7.307   4.258  11.705  0.00  0.00    +0.000 C 
ENDBRANCH   9  15
ENDBRANCH   1  11
BRANCH   6  17
ATOM     17  C   UNL     1       1.637   7.824  17.992  0.00  0.00    +0.000 C 
BRANCH  17  18
ATOM     18  C   UNL     1       1.343   9.315  18.142  0.00  0.00    +0.000 C 
BRANCH  18  19
ATOM     19  C   UNL     1       0.914   9.659  19.532  0.00  0.00    +0.000 A 
ATOM     20  C   UNL     1       0.258  10.809  19.935  0.00  0.00    +0.000 A 
ATOM     21  S   UNL     1      -0.018  10.771  21.628  0.00  0.00    +0.000 S 
ATOM     22  C   UNL     1       0.749   9.239  21.696  0.00  0.00    +0.000 A 
ATOM     23  N   UNL     1       1.183   8.763  20.554  0.00  0.00    +0.000 NA
ENDBRANCH  18  19
ENDBRANCH  17  18
ENDBRANCH   6  17
TORSDOF 5
ENDMDL
MODEL 5
REMARK VINA RESULT:      -7.0      1.950      2.610
REMARK  Name = 
REMARK  7 active torsions:
REMARK  status: ('A' for Active; 'I' for Inactive)
REMARK    1  A    between atoms: C_1  and  C_2
REMARK    2  A    between atoms: C_2  and  C_3
REMARK    3  A    between atoms: C_2  and  C_4
REMARK    4  A    between atoms: C_6  and  C_7
REMARK    5  A    between atoms: C_12  and  C_14
REMARK    6  A    between atoms: C_14  and  C_15
REMARK    7  A    between atoms: C_15  and  C_16
REMARK                            x       y       z     vdW  Elec       q    Type
REMARK                         _______ _______ _______ _____ _____    ______ ____
ROOT
ATOM      1  C   UNL     1       6.706   5.987  16.593  0.00  0.00    +0.000 C 
ATOM      2  C   UNL     1       7.581   5.584  17.781  0.00  0.00    +0.000 C 
ATOM      3  C   UNL     1       6.785   4.943  18.910  0.00  0.00    +0.000 C 
ATOM      4  C   UNL     1       5.620   5.830  19.328  0.00  0.00    +0.000 C 
ATOM      5  N   UNL     1       4.740   6.115  18.196  0.00  0.00    +0.000 N 
ATOM      6  C   UNL     1       3.359   6.284  18.310  0.00  0.00    +0.000 C 
ATOM      7  O   UNL     1       2.658   6.623  17.355  0.00  0.00    +0.000 OA
ATOM      8  C   UNL     1       5.385   6.662  16.999  0.00  0.00    +0.000 C 
ENDROOT
BRANCH   1  11
ATOM      9  C   UNL     1       6.273   4.089  13.685  0.00  0.00    +0.000 A 
ATOM     10  N   UNL     1       6.892   5.065  14.304  0.00  0.00    +0.000 NA
ATOM     11  C   UNL     1       6.474   4.900  15.597  0.00  0.00    +0.000 A 
ATOM     12  N   UNL     1       5.721   3.813  15.812  0.00  0.00    +0.000 NA
ATOM     13  O   UNL     1       5.574   3.272  14.527  0.00  0.00    +0.000 OA
BRANCH   9  15
ATOM     14  C   UNL     1       7.188   2.887  11.745  0.00  0.00    +0.000 C 
ATOM     15  C   UNL     1       6.120   3.878  12.221  0.00  0.00    +0.000 C 
ATOM     16  C   UNL     1       4.724   3.359  11.885  0.00  0.00    +0.000 C 
ENDBRANCH   9  15
ENDBRANCH   1  11
BRANCH   6  17
ATOM     17  C   UNL     1       2.752   6.057  19.683  0.00  0.00    +0.000 C 
BRANCH  17  18
ATOM     18  C   UNL     1       1.862   4.817  19.716  0.00  0.00    +0.000 C 
BRANCH  18  19
ATOM     19  C   UNL     1       2.622   3.580  19.360  0.00  0.00    +0.000 A 
ATOM     20  C   UNL     1       2.442   2.791  18.238  0.00  0.00    +0.000 A 
ATOM     21  S   UNL     1       3.534   1.468  18.260  0.00  0.00    +0.000 S 
ATOM     22  C   UNL     1       4.162   2.041  19.749  0.00  0.00    +0.000 A 
ATOM     23  N   UNL     1       3.620   3.140  20.217  0.00  0.00    +0.000 NA
ENDBRANCH  18  19
ENDBRANCH  17  18
ENDBRANCH   6  17
TORSDOF 5
ENDMDL
MODEL 6
REMARK VINA RESULT:      -7.0      1.951      2.509
REMARK  Name = 
REMARK  7 active torsions:
REMARK  status: ('A' for Active; 'I' for Inactive)
REMARK    1  A    between atoms: C_1  and  C_2
REMARK    2  A    between atoms: C_2  and  C_3
REMARK    3  A    between atoms: C_2  and  C_4
REMARK    4  A    between atoms: C_6  and  C_7
REMARK    5  A    between atoms: C_12  and  C_14
REMARK    6  A    between atoms: C_14  and  C_15
REMARK    7  A    between atoms: C_15  and  C_16
REMARK                            x       y       z     vdW  Elec       q    Type
REMARK                         _______ _______ _______ _____ _____    ______ ____
ROOT
ATOM      1  C   UNL     1       7.212   5.646  16.396  0.00  0.00    +0.000 C 
ATOM      2  C   UNL     1       7.357   4.469  17.362  0.00  0.00    +0.000 C 
ATOM      3  C   UNL     1       6.018   3.963  17.882  0.00  0.00    +0.000 C 
ATOM      4  C   UNL     1       5.200   5.100  18.478  0.00  0.00    +0.000 C 
ATOM      5  N   UNL     1       4.985   6.166  17.502  0.00  0.00    +0.000 N 
ATOM      6  C   UNL     1       3.832   6.952  17.451  0.00  0.00    +0.000 C 
ATOM      7  O   UNL     1       3.724   7.909  16.682  0.00  0.00    +0.000 OA
ATOM      8  C   UNL     1       6.187   6.698  16.853  0.00  0.00    +0.000 C 
ENDROOT
BRANCH   1  11
ATOM      9  C   UNL     1       6.250   4.069  13.424  0.00  0.00    +0.000 A 
ATOM     10  N   UNL     1       5.958   4.412  14.656  0.00  0.00    +0.000 NA
ATOM     11  C   UNL     1       6.989   5.256  14.973  0.00  0.00    +0.000 A 
ATOM     12  N   UNL     1       7.829   5.523  13.965  0.00  0.00    +0.000 NA
ATOM     13  O   UNL     1       7.343   4.718  12.925  0.00  0.00    +0.000 OA
BRANCH   9  15
ATOM     14  C   UNL     1       4.467   3.546  11.814  0.00  0.00    +0.000 C 
ATOM     15  C   UNL     1       5.651   2.981  12.605  0.00  0.00    +0.000 C 
ATOM     16  C   UNL     1       6.684   2.374  11.660  0.00  0.00    +0.000 C 
ENDBRANCH   9  15
ENDBRANCH   1  11
BRANCH   6  17
ATOM     17  C   UNL     1       2.715   6.593  18.414  0.00  0.00    +0.000 C 
BRANCH  17  18
ATOM     18  C   UNL     1       1.854   5.447  17.886  0.00  0.00    +0.000 C 
BRANCH  18  19
ATOM     19  C   UNL     1       1.729   4.342  18.885  0.00  0.00    +0.000 A 
ATOM     20  C   UNL     1       1.843   2.985  18.639  0.00  0.00    +0.000 A 
ATOM     21  S   UNL     1       1.610   2.098  20.089  0.00  0.00    +0.000 S 
ATOM     22  C   UNL     1       1.378   3.574  20.929  0.00  0.00    +0.000 A 
ATOM     23  N   UNL     1       1.469   4.666  20.209  0.00  0.00    +0.000 NA
ENDBRANCH  18  19
ENDBRANCH  17  18
ENDBRANCH   6  17
TORSDOF 5
ENDMDL
MODEL 7
REMARK VINA RESULT:      -7.0      1.184      1.374
REMARK  Name = 
REMARK  7 active torsions:
REMARK  status: ('A' for Active; 'I' for Inactive)
REMARK    1  A    between atoms: C_1  and  C_2
REMARK    2  A    between atoms: C_2  and  C_3
REMARK    3  A    between atoms: C_2  and  C_4
REMARK    4  A    between atoms: C_6  and  C_7
REMARK    5  A    between atoms: C_12  and  C_14
REMARK    6  A    between atoms: C_14  and  C_15
REMARK    7  A    between atoms: C_15  and  C_16
REMARK                            x       y       z     vdW  Elec       q    Type
REMARK                         _______ _______ _______ _____ _____    ______ ____
ROOT
ATOM      1  C   UNL     1       5.901   5.846  16.202  0.00  0.00    +0.000 C 
ATOM      2  C   UNL     1       7.111   5.933  17.134  0.00  0.00    +0.000 C 
ATOM      3  C   UNL     1       7.384   4.628  17.871  0.00  0.00    +0.000 C 
ATOM      4  C   UNL     1       6.135   4.139  18.592  0.00  0.00    +0.000 C 
ATOM      5  N   UNL     1       5.021   3.964  17.663  0.00  0.00    +0.000 N 
ATOM      6  C   UNL     1       4.040   2.980  17.803  0.00  0.00    +0.000 C 
ATOM      7  O   UNL     1       3.059   2.921  17.060  0.00  0.00    +0.000 OA
ATOM      8  C   UNL     1       4.696   5.118  16.821  0.00  0.00    +0.000 C 
ENDROOT
BRANCH   1  11
ATOM      9  C   UNL     1       6.037   4.008  13.227  0.00  0.00    +0.000 A 
ATOM     10  N   UNL     1       5.324   4.474  14.225  0.00  0.00    +0.000 NA
ATOM     11  C   UNL     1       6.205   5.324  14.837  0.00  0.00    +0.000 A 
ATOM     12  N   UNL     1       7.375   5.477  14.203  0.00  0.00    +0.000 NA
ATOM     13  O   UNL     1       7.270   4.585  13.126  0.00  0.00    +0.000 OA
BRANCH   9  15
ATOM     14  C   UNL     1       4.482   3.187  11.508  0.00  0.00    +0.000 C 
ATOM     15  C   UNL     1       5.729   2.858  12.335  0.00  0.00    +0.000 C 
ATOM     16  C   UNL     1       6.909   2.543  11.420  0.00  0.00    +0.000 C 
ENDBRANCH   9  15
ENDBRANCH   1  11
BRANCH   6  17
ATOM     17  C   UNL     1       4.220   1.990  18.940  0.00  0.00    +0.000 C 
BRANCH  17  18
ATOM     18  C   UNL     1       4.068   2.655  20.306  0.00  0.00    +0.000 C 
BRANCH  18  19
ATOM     19  C   UNL     1       2.886   3.569  20.348  0.00  0.00    +0.000 A 
ATOM     20  C   UNL     1       2.909   4.951  20.424  0.00  0.00    +0.000 A 
ATOM     21  S   UNL     1       1.310   5.570  20.461  0.00  0.00    +0.000 S 
ATOM     22  C   UNL     1       0.711   3.966  20.373  0.00  0.00    +0.000 A 
ATOM     23  N   UNL     1       1.614   3.018  20.312  0.00  0.00    +0.000 NA
ENDBRANCH  18  19
ENDBRANCH  17  18
ENDBRANCH   6  17
TORSDOF 5
ENDMDL
MODEL 8
REMARK VINA RESULT:      -6.8      4.302      7.326
REMARK  Name = 
REMARK  7 active torsions:
REMARK  status: ('A' for Active; 'I' for Inactive)
REMARK    1  A    between atoms: C_1  and  C_2
REMARK    2  A    between atoms: C_2  and  C_3
REMARK    3  A    between atoms: C_2  and  C_4
REMARK    4  A    between atoms: C_6  and  C_7
REMARK    5  A    between atoms: C_12  and  C_14
REMARK    6  A    between atoms: C_14  and  C_15
REMARK    7  A    between atoms: C_15  and  C_16
REMARK                            x       y       z     vdW  Elec       q    Type
REMARK                         _______ _______ _______ _____ _____    ______ ____
ROOT
ATOM      1  C   UNL     1       2.392   6.712  18.001  0.00  0.00    +0.000 C 
ATOM      2  C   UNL     1       2.242   5.697  19.136  0.00  0.00    +0.000 C 
ATOM      3  C   UNL     1       3.522   5.519  19.942  0.00  0.00    +0.000 C 
ATOM      4  C   UNL     1       4.699   5.195  19.031  0.00  0.00    +0.000 C 
ATOM      5  N   UNL     1       4.886   6.233  18.020  0.00  0.00    +0.000 N 
ATOM      6  C   UNL     1       6.132   6.607  17.512  0.00  0.00    +0.000 C 
ATOM      7  O   UNL     1       6.249   7.414  16.588  0.00  0.00    +0.000 OA
ATOM      8  C   UNL     1       3.707   6.572  17.217  0.00  0.00    +0.000 C 
ENDROOT
BRANCH   1  11
ATOM      9  C   UNL     1       1.226   9.670  19.464  0.00  0.00    +0.000 A 
ATOM     10  N   UNL     1       1.532   8.401  19.593  0.00  0.00    +0.000 NA
ATOM     11  C   UNL     1       2.148   8.129  18.401  0.00  0.00    +0.000 A 
ATOM     12  N   UNL     1       2.325   9.191  17.603  0.00  0.00    +0.000 NA
ATOM     13  O   UNL     1       1.697  10.226  18.310  0.00  0.00    +0.000 OA
BRANCH   9  15
ATOM     14  C   UNL     1       1.051  11.781  20.712  0.00  0.00    +0.000 C 
ATOM     15  C   UNL     1       0.326  10.490  20.318  0.00  0.00    +0.000 C 
ATOM     16  C   UNL     1      -0.977  10.811  19.590  0.00  0.00    +0.000 C 
ENDBRANCH   9  15
ENDBRANCH   1  11
BRANCH   6  17
ATOM     17  C   UNL     1       7.351   5.950  18.135  0.00  0.00    +0.000 C 
BRANCH  17  18
ATOM     18  C   UNL     1       7.654   4.594  17.501  0.00  0.00    +0.000 C 
BRANCH  18  19
ATOM     19  C   UNL     1       7.079   4.484  16.126  0.00  0.00    +0.000 A 
ATOM     20  C   UNL     1       5.956   3.766  15.753  0.00  0.00    +0.000 A 
ATOM     21  S   UNL     1       5.685   3.923  14.067  0.00  0.00    +0.000 S 
ATOM     22  C   UNL     1       7.071   4.927  13.960  0.00  0.00    +0.000 A 
ATOM     23  N   UNL     1       7.705   5.151  15.085  0.00  0.00    +0.000 NA
ENDBRANCH  18  19
ENDBRANCH  17  18
ENDBRANCH   6  17
TORSDOF 5
ENDMDL
MODEL 9
REMARK VINA RESULT:      -6.7      3.872      4.487
REMARK  Name = 
REMARK  7 active torsions:
REMARK  status: ('A' for Active; 'I' for Inactive)
REMARK    1  A    between atoms: C_1  and  C_2
REMARK    2  A    between atoms: C_2  and  C_3
REMARK    3  A    between atoms: C_2  and  C_4
REMARK    4  A    between atoms: C_6  and  C_7
REMARK    5  A    between atoms: C_12  and  C_14
REMARK    6  A    between atoms: C_14  and  C_15
REMARK    7  A    between atoms: C_15  and  C_16
REMARK                            x       y       z     vdW  Elec       q    Type
REMARK                         _______ _______ _______ _____ _____    ______ ____
ROOT
ATOM      1  C   UNL     1       5.480   4.767  17.372  0.00  0.00    +0.000 C 
ATOM      2  C   UNL     1       4.490   3.625  17.608  0.00  0.00    +0.000 C 
ATOM      3  C   UNL     1       3.046   4.030  17.341  0.00  0.00    +0.000 C 
ATOM      4  C   UNL     1       2.678   5.283  18.124  0.00  0.00    +0.000 C 
ATOM      5  N   UNL     1       3.575   6.391  17.802  0.00  0.00    +0.000 N 
ATOM      6  C   UNL     1       3.179   7.730  17.782  0.00  0.00    +0.000 C 
ATOM      7  O   UNL     1       3.981   8.648  17.606  0.00  0.00    +0.000 OA
ATOM      8  C   UNL     1       5.009   6.119  17.934  0.00  0.00    +0.000 C 
ENDROOT
BRANCH   1  11
ATOM      9  C   UNL     1       6.208   4.292  13.982  0.00  0.00    +0.000 A 
ATOM     10  N   UNL     1       5.374   4.134  14.982  0.00  0.00    +0.000 NA
ATOM     11  C   UNL     1       5.947   4.901  15.960  0.00  0.00    +0.000 A 
ATOM     12  N   UNL     1       7.023   5.598  15.573  0.00  0.00    +0.000 NA
ATOM     13  O   UNL     1       7.208   5.182  14.247  0.00  0.00    +0.000 OA
BRANCH   9  15
ATOM     14  C   UNL     1       4.877   3.458  12.089  0.00  0.00    +0.000 C 
ATOM     15  C   UNL     1       6.276   3.523  12.710  0.00  0.00    +0.000 C 
ATOM     16  C   UNL     1       7.263   4.161  11.736  0.00  0.00    +0.000 C 
ENDBRANCH   9  15
ENDBRANCH   1  11
BRANCH   6  17
ATOM     17  C   UNL     1       1.706   8.012  18.016  0.00  0.00    +0.000 C 
BRANCH  17  18
ATOM     18  C   UNL     1       1.459   8.667  19.373  0.00  0.00    +0.000 C 
BRANCH  18  19
ATOM     19  C   UNL     1       0.672   9.931  19.244  0.00  0.00    +0.000 A 
ATOM     20  C   UNL     1      -0.329  10.193  18.325  0.00  0.00    +0.000 A 
ATOM     21  S   UNL     1      -0.937  11.782  18.548  0.00  0.00    +0.000 S 
ATOM     22  C   UNL     1       0.169  12.000  19.840  0.00  0.00    +0.000 A 
ATOM     23  N   UNL     1       0.942  10.977  20.113  0.00  0.00    +0.000 NA
ENDBRANCH  18  19
ENDBRANCH  17  18
ENDBRANCH   6  17
TORSDOF 5
ENDMDL
