MODEL 1
REMARK VINA RESULT:      -8.7      0.000      0.000
REMARK  Name = 
REMARK  12 active torsions:
REMARK  status: ('A' for Active; 'I' for Inactive)
REMARK    1  A    between atoms: C_1  and  O_2
REMARK    2  A    between atoms: O_2  and  C_3
REMARK    3  A    between atoms: C_6  and  N_7
REMARK    4  A    between atoms: C_8  and  C_10
REMARK    5  A    between atoms: C_10  and  O_11
REMARK    6  A    between atoms: O_11  and  C_12
REMARK    7  A    between atoms: C_15  and  C_16
REMARK    8  A    between atoms: C_17  and  C_18
REMARK    9  A    between atoms: N_20  and  C_21
REMARK   10  A    between atoms: C_26  and  N_27
REMARK   11  A    between atoms: C_29  and  O_30
REMARK   12  A    between atoms: O_30  and  C_31
REMARK                            x       y       z     vdW  Elec       q    Type
REMARK                         _______ _______ _______ _____ _____    ______ ____
ROOT
ATOM      1  C   UNL     1       6.296   4.954  17.945  0.00  0.00    +0.000 A 
ATOM      2  C   UNL     1       7.167   5.311  18.983  0.00  0.00    +0.000 A 
ATOM      3  C   UNL     1       7.851   6.529  18.966  0.00  0.00    +0.000 A 
ATOM      4  C   UNL     1       7.692   7.396  17.887  0.00  0.00    +0.000 A 
ATOM      5  C   UNL     1       6.848   7.019  16.831  0.00  0.00    +0.000 A 
ATOM      6  C   UNL     1       6.119   5.820  16.858  0.00  0.00    +0.000 A 
ENDROOT
BRANCH   4   7
ATOM      7  C   UNL     1       8.243   8.749  17.853  0.00  0.00    +0.000 C 
ATOM      8  C   UNL     1       8.861   9.387  18.859  0.00  0.00    +0.000 C 
BRANCH   8   9
ATOM      9  C   UNL     1       9.282  10.795  18.606  0.00  0.00    +0.000 C 
ATOM     10  O   UNL     1       8.685  11.482  17.783  0.00  0.00    +0.000 OA
ATOM     11  N   UNL     1      10.367  11.179  19.367  0.00  0.00    +0.000 N 
ATOM     12  H   UNL     1      10.914  10.461  19.809  0.00  0.00    +0.000 HD
BRANCH  11  13
ATOM     13  C   UNL     1      10.896  12.495  19.426  0.00  0.00    +0.000 A 
ATOM     14  C   UNL     1      10.494  13.401  20.418  0.00  0.00    +0.000 A 
ATOM     15  C   UNL     1      10.966  14.711  20.433  0.00  0.00    +0.000 A 
ATOM     16  C   UNL     1      11.844  15.135  19.447  0.00  0.00    +0.000 A 
ATOM     17  C   UNL     1      12.274  14.239  18.467  0.00  0.00    +0.000 A 
ATOM     18  C   UNL     1      11.862  12.893  18.476  0.00  0.00    +0.000 A 
BRANCH  18  19
ATOM     19  N   UNL     1      12.252  12.069  17.401  0.00  0.00    +0.000 N 
ATOM     20  H   UNL     1      11.873  11.129  17.471  0.00  0.00    +0.000 HD
ATOM     21  H   UNL     1      12.065  12.459  16.485  0.00  0.00    +0.000 HD
ENDBRANCH  18  19
ENDBRANCH  11  13
ENDBRANCH   8   9
ENDBRANCH   4   7
BRANCH   6  22
ATOM     22  O   UNL     1       5.216   5.494  15.879  0.00  0.00    +0.000 OA
ATOM     23  C   UNL     1       5.777   5.126  14.617  0.00  0.00    +0.000 C 
ENDBRANCH   6  22
BRANCH   1  24
ATOM     24  O   UNL     1       5.553   3.841  18.228  0.00  0.00    +0.000 OA
BRANCH  24  25
ATOM     25  C   UNL     1       4.150   3.902  17.981  0.00  0.00    +0.000 C 
BRANCH  25  27
ATOM     26  N   UNL     1       2.997   6.045  18.216  0.00  0.00    +0.000 N 
ATOM     27  C   UNL     1       3.551   4.974  18.907  0.00  0.00    +0.000 C 
ATOM     28  O   UNL     1       3.552   4.821  20.127  0.00  0.00    +0.000 OA
ATOM     29  H   UNL     1       3.114   6.000  17.206  0.00  0.00    +0.000 HD
BRANCH  26  33
ATOM     30  C   UNL     1       1.144   9.567  19.669  0.00  0.00    +0.000 A 
ATOM     31  C   UNL     1       1.341   8.485  20.524  0.00  0.00    +0.000 A 
ATOM     32  C   UNL     1       1.952   7.310  20.067  0.00  0.00    +0.000 A 
ATOM     33  C   UNL     1       2.362   7.193  18.739  0.00  0.00    +0.000 A 
ATOM     34  C   UNL     1       2.137   8.271  17.878  0.00  0.00    +0.000 A 
ATOM     35  C   UNL     1       1.528   9.455  18.335  0.00  0.00    +0.000 A 
BRANCH  30  37
ATOM     36  C   UNL     1       0.250  10.551  21.628  0.00  0.00    +0.000 C 
ATOM     37  O   UNL     1       0.542  10.654  20.240  0.00  0.00    +0.000 OA
ENDBRANCH  30  37
ENDBRANCH  26  33
ENDBRANCH  25  27
ENDBRANCH  24  25
ENDBRANCH   1  24
TORSDOF 10
ENDMDL
MODEL 2
REMARK VINA RESULT:      -8.6      1.062      1.243
REMARK  Name = 
REMARK  12 active torsions:
REMARK  status: ('A' for Active; 'I' for Inactive)
REMARK    1  A    between atoms: C_1  and  O_2
REMARK    2  A    between atoms: O_2  and  C_3
REMARK    3  A    between atoms: C_6  and  N_7
REMARK    4  A    between atoms: C_8  and  C_10
REMARK    5  A    between atoms: C_10  and  O_11
REMARK    6  A    between atoms: O_11  and  C_12
REMARK    7  A    between atoms: C_15  and  C_16
REMARK    8  A    between atoms: C_17  and  C_18
REMARK    9  A    between atoms: N_20  and  C_21
REMARK   10  A    between atoms: C_26  and  N_27
REMARK   11  A    between atoms: C_29  and  O_30
REMARK   12  A    between atoms: O_30  and  C_31
REMARK                            x       y       z     vdW  Elec       q    Type
REMARK                         _______ _______ _______ _____ _____    ______ ____
ROOT
ATOM      1  C   UNL     1       6.136   5.071  17.806  0.00  0.00    +0.000 A 
ATOM      2  C   UNL     1       7.047   5.290  18.849  0.00  0.00    +0.000 A 
ATOM      3  C   UNL     1       7.813   6.456  18.906  0.00  0.00    +0.000 A 
ATOM      4  C   UNL     1       7.696   7.410  17.898  0.00  0.00    +0.000 A 
ATOM      5  C   UNL     1       6.812   7.172  16.836  0.00  0.00    +0.000 A 
ATOM      6  C   UNL     1       6.001   6.026  16.790  0.00  0.00    +0.000 A 
ENDROOT
BRANCH   4   7
ATOM      7  C   UNL     1       8.340   8.721  17.952  0.00  0.00    +0.000 C 
ATOM      8  C   UNL     1       8.894   9.297  19.031  0.00  0.00    +0.000 C 
BRANCH   8   9
ATOM      9  C   UNL     1       9.434  10.676  18.854  0.00  0.00    +0.000 C 
ATOM     10  O   UNL     1       9.848  11.045  17.760  0.00  0.00    +0.000 OA
ATOM     11  N   UNL     1       9.412  11.416  20.018  0.00  0.00    +0.000 N 
ATOM     12  H   UNL     1       9.287  10.929  20.888  0.00  0.00    +0.000 HD
BRANCH  11  13
ATOM     13  C   UNL     1       9.741  12.794  20.114  0.00  0.00    +0.000 A 
ATOM     14  C   UNL     1       8.750  13.777  20.249  0.00  0.00    +0.000 A 
ATOM     15  C   UNL     1       9.074  15.130  20.276  0.00  0.00    +0.000 A 
ATOM     16  C   UNL     1      10.400  15.520  20.162  0.00  0.00    +0.000 A 
ATOM     17  C   UNL     1      11.402  14.555  20.053  0.00  0.00    +0.000 A 
ATOM     18  C   UNL     1      11.099  13.181  20.093  0.00  0.00    +0.000 A 
BRANCH  18  19
ATOM     19  N   UNL     1      12.146  12.261  19.876  0.00  0.00    +0.000 N 
ATOM     20  H   UNL     1      13.049  12.716  19.765  0.00  0.00    +0.000 HD
ATOM     21  H   UNL     1      12.204  11.523  20.566  0.00  0.00    +0.000 HD
ENDBRANCH  18  19
ENDBRANCH  11  13
ENDBRANCH   8   9
ENDBRANCH   4   7
BRANCH   6  22
ATOM     22  O   UNL     1       5.063   5.836  15.810  0.00  0.00    +0.000 OA
ATOM     23  C   UNL     1       5.423   4.915  14.777  0.00  0.00    +0.000 C 
ENDBRANCH   6  22
BRANCH   1  24
ATOM     24  O   UNL     1       5.322   3.993  18.023  0.00  0.00    +0.000 OA
BRANCH  24  25
ATOM     25  C   UNL     1       4.453   4.036  19.152  0.00  0.00    +0.000 C 
BRANCH  25  27
ATOM     26  N   UNL     1       3.323   6.140  19.672  0.00  0.00    +0.000 N 
ATOM     27  C   UNL     1       3.319   5.026  18.840  0.00  0.00    +0.000 C 
ATOM     28  O   UNL     1       2.546   4.821  17.907  0.00  0.00    +0.000 OA
ATOM     29  H   UNL     1       4.032   6.119  20.401  0.00  0.00    +0.000 HD
BRANCH  26  33
ATOM     30  C   UNL     1       0.752   9.505  19.540  0.00  0.00    +0.000 A 
ATOM     31  C   UNL     1       0.789   8.707  20.681  0.00  0.00    +0.000 A 
ATOM     32  C   UNL     1       1.631   7.590  20.749  0.00  0.00    +0.000 A 
ATOM     33  C   UNL     1       2.440   7.243  19.666  0.00  0.00    +0.000 A 
ATOM     34  C   UNL     1       2.378   8.031  18.513  0.00  0.00    +0.000 A 
ATOM     35  C   UNL     1       1.537   9.157  18.444  0.00  0.00    +0.000 A 
BRANCH  30  37
ATOM     36  C   UNL     1       0.189  11.665  18.750  0.00  0.00    +0.000 C 
ATOM     37  O   UNL     1      -0.108  10.567  19.604  0.00  0.00    +0.000 OA
ENDBRANCH  30  37
ENDBRANCH  26  33
ENDBRANCH  25  27
ENDBRANCH  24  25
ENDBRANCH   1  24
TORSDOF 10
ENDMDL
MODEL 3
REMARK VINA RESULT:      -8.6      0.866      1.214
REMARK  Name = 
REMARK  12 active torsions:
REMARK  status: ('A' for Active; 'I' for Inactive)
REMARK    1  A    between atoms: C_1  and  O_2
REMARK    2  A    between atoms: O_2  and  C_3
REMARK    3  A    between atoms: C_6  and  N_7
REMARK    4  A    between atoms: C_8  and  C_10
REMARK    5  A    between atoms: C_10  and  O_11
REMARK    6  A    between atoms: O_11  and  C_12
REMARK    7  A    between atoms: C_15  and  C_16
REMARK    8  A    between atoms: C_17  and  C_18
REMARK    9  A    between atoms: N_20  and  C_21
REMARK   10  A    between atoms: C_26  and  N_27
REMARK   11  A    between atoms: C_29  and  O_30
REMARK   12  A    between atoms: O_30  and  C_31
REMARK                            x       y       z     vdW  Elec       q    Type
REMARK                         _______ _______ _______ _____ _____    ______ ____
ROOT
ATOM      1  C   UNL     1       6.435   4.758  18.197  0.00  0.00    +0.000 A 
ATOM      2  C   UNL     1       6.965   5.329  19.361  0.00  0.00    +0.000 A 
ATOM      3  C   UNL     1       7.607   6.570  19.331  0.00  0.00    +0.000 A 
ATOM      4  C   UNL     1       7.752   7.242  18.120  0.00  0.00    +0.000 A 
ATOM      5  C   UNL     1       7.254   6.652  16.950  0.00  0.00    +0.000 A 
ATOM      6  C   UNL     1       6.565   5.429  16.973  0.00  0.00    +0.000 A 
ENDROOT
BRANCH   4   7
ATOM      7  C   UNL     1       8.271   8.605  18.014  0.00  0.00    +0.000 C 
ATOM      8  C   UNL     1       8.962   9.274  18.950  0.00  0.00    +0.000 C 
BRANCH   8   9
ATOM      9  C   UNL     1       9.329  10.685  18.636  0.00  0.00    +0.000 C 
ATOM     10  O   UNL     1       8.731  11.301  17.760  0.00  0.00    +0.000 OA
ATOM     11  N   UNL     1      10.371  11.156  19.409  0.00  0.00    +0.000 N 
ATOM     12  H   UNL     1      10.934  10.487  19.905  0.00  0.00    +0.000 HD
BRANCH  11  13
ATOM     13  C   UNL     1      10.840  12.496  19.415  0.00  0.00    +0.000 A 
ATOM     14  C   UNL     1      10.506  13.384  20.448  0.00  0.00    +0.000 A 
ATOM     15  C   UNL     1      10.914  14.714  20.416  0.00  0.00    +0.000 A 
ATOM     16  C   UNL     1      11.658  15.178  19.342  0.00  0.00    +0.000 A 
ATOM     17  C   UNL     1      12.020  14.302  18.317  0.00  0.00    +0.000 A 
ATOM     18  C   UNL     1      11.676  12.938  18.367  0.00  0.00    +0.000 A 
BRANCH  18  19
ATOM     19  N   UNL     1      11.986  12.132  17.252  0.00  0.00    +0.000 N 
ATOM     20  H   UNL     1      12.912  11.718  17.315  0.00  0.00    +0.000 HD
ATOM     21  H   UNL     1      11.294  11.423  17.043  0.00  0.00    +0.000 HD
ENDBRANCH  18  19
ENDBRANCH  11  13
ENDBRANCH   8   9
ENDBRANCH   4   7
BRANCH   6  22
ATOM     22  O   UNL     1       5.987   4.896  15.851  0.00  0.00    +0.000 OA
ATOM     23  C   UNL     1       5.160   5.786  15.097  0.00  0.00    +0.000 C 
ENDBRANCH   6  22
BRANCH   1  24
ATOM     24  O   UNL     1       5.658   3.660  18.444  0.00  0.00    +0.000 OA
BRANCH  24  25
ATOM     25  C   UNL     1       4.583   3.804  19.370  0.00  0.00    +0.000 C 
BRANCH  25  27
ATOM     26  N   UNL     1       3.480   5.978  19.557  0.00  0.00    +0.000 N 
ATOM     27  C   UNL     1       3.590   4.825  18.788  0.00  0.00    +0.000 C 
ATOM     28  O   UNL     1       3.017   4.606  17.724  0.00  0.00    +0.000 OA
ATOM     29  H   UNL     1       4.021   5.963  20.418  0.00  0.00    +0.000 HD
BRANCH  26  33
ATOM     30  C   UNL     1       0.992   9.358  18.979  0.00  0.00    +0.000 A 
ATOM     31  C   UNL     1       1.734   8.854  17.913  0.00  0.00    +0.000 A 
ATOM     32  C   UNL     1       2.563   7.738  18.079  0.00  0.00    +0.000 A 
ATOM     33  C   UNL     1       2.675   7.115  19.323  0.00  0.00    +0.000 A 
ATOM     34  C   UNL     1       1.950   7.641  20.396  0.00  0.00    +0.000 A 
ATOM     35  C   UNL     1       1.112   8.760  20.231  0.00  0.00    +0.000 A 
BRANCH  30  37
ATOM     36  C   UNL     1       0.762  11.714  19.036  0.00  0.00    +0.000 C 
ATOM     37  O   UNL     1       0.219  10.447  18.683  0.00  0.00    +0.000 OA
ENDBRANCH  30  37
ENDBRANCH  26  33
ENDBRANCH  25  27
ENDBRANCH  24  25
ENDBRANCH   1  24
TORSDOF 10
ENDMDL
MODEL 4
REMARK VINA RESULT:      -8.6      1.391      1.781
REMARK  Name = 
REMARK  12 active torsions:
REMARK  status: ('A' for Active; 'I' for Inactive)
REMARK    1  A    between atoms: C_1  and  O_2
REMARK    2  A    between atoms: O_2  and  C_3
REMARK    3  A    between atoms: C_6  and  N_7
REMARK    4  A    between atoms: C_8  and  C_10
REMARK    5  A    between atoms: C_10  and  O_11
REMARK    6  A    between atoms: O_11  and  C_12
REMARK    7  A    between atoms: C_15  and  C_16
REMARK    8  A    between atoms: C_17  and  C_18
REMARK    9  A    between atoms: N_20  and  C_21
REMARK   10  A    between atoms: C_26  and  N_27
REMARK   11  A    between atoms: C_29  and  O_30
REMARK   12  A    between atoms: O_30  and  C_31
REMARK                            x       y       z     vdW  Elec       q    Type
REMARK                         _______ _______ _______ _____ _____    ______ ____
ROOT
ATOM      1  C   UNL     1       6.127   5.164  17.913  0.00  0.00    +0.000 A 
ATOM      2  C   UNL     1       7.051   5.421  18.934  0.00  0.00    +0.000 A 
ATOM      3  C   UNL     1       7.843   6.571  18.920  0.00  0.00    +0.000 A 
ATOM      4  C   UNL     1       7.739   7.469  17.860  0.00  0.00    +0.000 A 
ATOM      5  C   UNL     1       6.840   7.191  16.820  0.00  0.00    +0.000 A 
ATOM      6  C   UNL     1       6.005   6.063  16.844  0.00  0.00    +0.000 A 
ENDROOT
BRANCH   4   7
ATOM      7  C   UNL     1       8.412   8.766  17.835  0.00  0.00    +0.000 C 
ATOM      8  C   UNL     1       8.842   9.466  18.897  0.00  0.00    +0.000 C 
BRANCH   8   9
ATOM      9  C   UNL     1       9.443  10.802  18.624  0.00  0.00    +0.000 C 
ATOM     10  O   UNL     1      10.212  10.956  17.681  0.00  0.00    +0.000 OA
ATOM     11  N   UNL     1       9.046  11.767  19.528  0.00  0.00    +0.000 N 
ATOM     12  H   UNL     1       8.623  11.466  20.388  0.00  0.00    +0.000 HD
BRANCH  11  13
ATOM     13  C   UNL     1       9.358  13.149  19.434  0.00  0.00    +0.000 A 
ATOM     14  C   UNL     1      10.149  13.788  20.399  0.00  0.00    +0.000 A 
ATOM     15  C   UNL     1      10.397  15.157  20.338  0.00  0.00    +0.000 A 
ATOM     16  C   UNL     1       9.848  15.908  19.310  0.00  0.00    +0.000 A 
ATOM     17  C   UNL     1       9.079  15.284  18.327  0.00  0.00    +0.000 A 
ATOM     18  C   UNL     1       8.875  13.891  18.334  0.00  0.00    +0.000 A 
BRANCH  18  19
ATOM     19  N   UNL     1       8.005  13.340  17.370  0.00  0.00    +0.000 N 
ATOM     20  H   UNL     1       7.421  12.599  17.750  0.00  0.00    +0.000 HD
ATOM     21  H   UNL     1       7.441  14.021  16.878  0.00  0.00    +0.000 HD
ENDBRANCH  18  19
ENDBRANCH  11  13
ENDBRANCH   8   9
ENDBRANCH   4   7
BRANCH   6  22
ATOM     22  O   UNL     1       5.054   5.838  15.883  0.00  0.00    +0.000 OA
ATOM     23  C   UNL     1       5.434   4.948  14.831  0.00  0.00    +0.000 C 
ENDBRANCH   6  22
BRANCH   1  24
ATOM     24  O   UNL     1       5.291   4.118  18.195  0.00  0.00    +0.000 OA
BRANCH  24  25
ATOM     25  C   UNL     1       4.435   4.243  19.329  0.00  0.00    +0.000 C 
BRANCH  25  27
ATOM     26  N   UNL     1       3.238   6.325  19.788  0.00  0.00    +0.000 N 
ATOM     27  C   UNL     1       3.298   5.211  18.958  0.00  0.00    +0.000 C 
ATOM     28  O   UNL     1       2.577   4.989  17.988  0.00  0.00    +0.000 OA
ATOM     29  H   UNL     1       3.910   6.318  20.551  0.00  0.00    +0.000 HD
BRANCH  26  33
ATOM     30  C   UNL     1       0.458   9.521  19.751  0.00  0.00    +0.000 A 
ATOM     31  C   UNL     1       1.222   9.255  18.617  0.00  0.00    +0.000 A 
ATOM     32  C   UNL     1       2.146   8.204  18.604  0.00  0.00    +0.000 A 
ATOM     33  C   UNL     1       2.334   7.410  19.736  0.00  0.00    +0.000 A 
ATOM     34  C   UNL     1       1.586   7.698  20.881  0.00  0.00    +0.000 A 
ATOM     35  C   UNL     1       0.652   8.751  20.895  0.00  0.00    +0.000 A 
BRANCH  30  37
ATOM     36  C   UNL     1      -0.792  10.921  18.306  0.00  0.00    +0.000 C 
ATOM     37  O   UNL     1      -0.411  10.572  19.631  0.00  0.00    +0.000 OA
ENDBRANCH  30  37
ENDBRANCH  26  33
ENDBRANCH  25  27
ENDBRANCH  24  25
ENDBRANCH   1  24
TORSDOF 10
ENDMDL
MODEL 5
REMARK VINA RESULT:      -8.4      1.301      1.306
REMARK  Name = 
REMARK  12 active torsions:
REMARK  status: ('A' for Active; 'I' for Inactive)
REMARK    1  A    between atoms: C_1  and  O_2
REMARK    2  A    between atoms: O_2  and  C_3
REMARK    3  A    between atoms: C_6  and  N_7
REMARK    4  A    between atoms: C_8  and  C_10
REMARK    5  A    between atoms: C_10  and  O_11
REMARK    6  A    between atoms: O_11  and  C_12
REMARK    7  A    between atoms: C_15  and  C_16
REMARK    8  A    between atoms: C_17  and  C_18
REMARK    9  A    between atoms: N_20  and  C_21
REMARK   10  A    between atoms: C_26  and  N_27
REMARK   11  A    between atoms: C_29  and  O_30
REMARK   12  A    between atoms: O_30  and  C_31
REMARK                            x       y       z     vdW  Elec       q    Type
REMARK                         _______ _______ _______ _____ _____    ______ ____
ROOT
ATOM      1  C   UNL     1       6.097   4.978  17.783  0.00  0.00    +0.000 A 
ATOM      2  C   UNL     1       6.764   5.134  19.006  0.00  0.00    +0.000 A 
ATOM      3  C   UNL     1       7.620   6.214  19.229  0.00  0.00    +0.000 A 
ATOM      4  C   UNL     1       7.843   7.141  18.213  0.00  0.00    +0.000 A 
ATOM      5  C   UNL     1       7.203   6.963  16.978  0.00  0.00    +0.000 A 
ATOM      6  C   UNL     1       6.303   5.908  16.756  0.00  0.00    +0.000 A 
ENDROOT
BRANCH   4   7
ATOM      7  C   UNL     1       8.598   8.378  18.404  0.00  0.00    +0.000 C 
ATOM      8  C   UNL     1       8.256   9.600  17.966  0.00  0.00    +0.000 C 
BRANCH   8   9
ATOM      9  C   UNL     1       9.224  10.704  18.227  0.00  0.00    +0.000 C 
ATOM     10  O   UNL     1      10.302  10.734  17.642  0.00  0.00    +0.000 OA
ATOM     11  N   UNL     1       8.769  11.610  19.163  0.00  0.00    +0.000 N 
ATOM     12  H   UNL     1       7.995  11.343  19.745  0.00  0.00    +0.000 HD
BRANCH  11  13
ATOM     13  C   UNL     1       9.423  12.823  19.508  0.00  0.00    +0.000 A 
ATOM     14  C   UNL     1       9.941  13.034  20.793  0.00  0.00    +0.000 A 
ATOM     15  C   UNL     1      10.522  14.249  21.146  0.00  0.00    +0.000 A 
ATOM     16  C   UNL     1      10.586  15.275  20.215  0.00  0.00    +0.000 A 
ATOM     17  C   UNL     1      10.098  15.073  18.923  0.00  0.00    +0.000 A 
ATOM     18  C   UNL     1       9.570  13.829  18.528  0.00  0.00    +0.000 A 
BRANCH  18  19
ATOM     19  N   UNL     1       9.003  13.724  17.241  0.00  0.00    +0.000 N 
ATOM     20  H   UNL     1       8.077  14.139  17.188  0.00  0.00    +0.000 HD
ATOM     21  H   UNL     1       9.592  14.072  16.495  0.00  0.00    +0.000 HD
ENDBRANCH  18  19
ENDBRANCH  11  13
ENDBRANCH   8   9
ENDBRANCH   4   7
BRANCH   6  22
ATOM     22  O   UNL     1       5.598   5.786  15.587  0.00  0.00    +0.000 OA
ATOM     23  C   UNL     1       6.235   5.030  14.555  0.00  0.00    +0.000 C 
ENDBRANCH   6  22
BRANCH   1  24
ATOM     24  O   UNL     1       5.141   3.999  17.815  0.00  0.00    +0.000 OA
BRANCH  24  25
ATOM     25  C   UNL     1       4.268   3.963  18.941  0.00  0.00    +0.000 C 
BRANCH  25  27
ATOM     26  N   UNL     1       3.314   6.189  19.278  0.00  0.00    +0.000 N 
ATOM     27  C   UNL     1       3.117   4.949  18.680  0.00  0.00    +0.000 C 
ATOM     28  O   UNL     1       2.166   4.631  17.968  0.00  0.00    +0.000 OA
ATOM     29  H   UNL     1       4.155   6.253  19.847  0.00  0.00    +0.000 HD
BRANCH  26  33
ATOM     30  C   UNL     1       0.861   9.635  19.046  0.00  0.00    +0.000 A 
ATOM     31  C   UNL     1       0.981   8.952  20.254  0.00  0.00    +0.000 A 
ATOM     32  C   UNL     1       1.786   7.810  20.356  0.00  0.00    +0.000 A 
ATOM     33  C   UNL     1       2.473   7.324  19.243  0.00  0.00    +0.000 A 
ATOM     34  C   UNL     1       2.327   7.997  18.027  0.00  0.00    +0.000 A 
ATOM     35  C   UNL     1       1.523   9.147  17.922  0.00  0.00    +0.000 A 
BRANCH  30  37
ATOM     36  C   UNL     1      -0.728  10.902  20.262  0.00  0.00    +0.000 C 
ATOM     37  O   UNL     1       0.048  10.735  19.082  0.00  0.00    +0.000 OA
ENDBRANCH  30  37
ENDBRANCH  26  33
ENDBRANCH  25  27
ENDBRANCH  24  25
ENDBRANCH   1  24
TORSDOF 10
ENDMDL
MODEL 6
REMARK VINA RESULT:      -8.1      1.219      1.233
REMARK  Name = 
REMARK  12 active torsions:
REMARK  status: ('A' for Active; 'I' for Inactive)
REMARK    1  A    between atoms: C_1  and  O_2
REMARK    2  A    between atoms: O_2  and  C_3
REMARK    3  A    between atoms: C_6  and  N_7
REMARK    4  A    between atoms: C_8  and  C_10
REMARK    5  A    between atoms: C_10  and  O_11
REMARK    6  A    between atoms: O_11  and  C_12
REMARK    7  A    between atoms: C_15  and  C_16
REMARK    8  A    between atoms: C_17  and  C_18
REMARK    9  A    between atoms: N_20  and  C_21
REMARK   10  A    between atoms: C_26  and  N_27
REMARK   11  A    between atoms: C_29  and  O_30
REMARK   12  A    between atoms: O_30  and  C_31
REMARK                            x       y       z     vdW  Elec       q    Type
REMARK                         _______ _______ _______ _____ _____    ______ ____
ROOT
ATOM      1  C   UNL     1       6.454   4.932  17.551  0.00  0.00    +0.000 A 
ATOM      2  C   UNL     1       7.080   4.999  18.803  0.00  0.00    +0.000 A 
ATOM      3  C   UNL     1       7.819   6.122  19.183  0.00  0.00    +0.000 A 
ATOM      4  C   UNL     1       7.964   7.186  18.294  0.00  0.00    +0.000 A 
ATOM      5  C   UNL     1       7.368   7.100  17.028  0.00  0.00    +0.000 A 
ATOM      6  C   UNL     1       6.584   5.998  16.651  0.00  0.00    +0.000 A 
ENDROOT
BRANCH   4   7
ATOM      7  C   UNL     1       8.586   8.458  18.657  0.00  0.00    +0.000 C 
ATOM      8  C   UNL     1       8.404   9.641  18.049  0.00  0.00    +0.000 C 
BRANCH   8   9
ATOM      9  C   UNL     1       9.203  10.791  18.561  0.00  0.00    +0.000 C 
ATOM     10  O   UNL     1       9.798  10.705  19.630  0.00  0.00    +0.000 OA
ATOM     11  N   UNL     1       9.167  11.887  17.725  0.00  0.00    +0.000 N 
ATOM     12  H   UNL     1       8.453  11.922  17.018  0.00  0.00    +0.000 HD
BRANCH  11  13
ATOM     13  C   UNL     1       9.935  13.069  17.896  0.00  0.00    +0.000 A 
ATOM     14  C   UNL     1       9.329  14.305  18.162  0.00  0.00    +0.000 A 
ATOM     15  C   UNL     1      10.082  15.471  18.264  0.00  0.00    +0.000 A 
ATOM     16  C   UNL     1      11.457  15.417  18.093  0.00  0.00    +0.000 A 
ATOM     17  C   UNL     1      12.080  14.192  17.853  0.00  0.00    +0.000 A 
ATOM     18  C   UNL     1      11.343  12.993  17.815  0.00  0.00    +0.000 A 
BRANCH  18  19
ATOM     19  N   UNL     1      12.020  11.805  17.468  0.00  0.00    +0.000 N 
ATOM     20  H   UNL     1      12.201  11.209  18.271  0.00  0.00    +0.000 HD
ATOM     21  H   UNL     1      11.581  11.276  16.725  0.00  0.00    +0.000 HD
ENDBRANCH  18  19
ENDBRANCH  11  13
ENDBRANCH   8   9
ENDBRANCH   4   7
BRANCH   6  22
ATOM     22  O   UNL     1       5.916   5.953  15.456  0.00  0.00    +0.000 OA
ATOM     23  C   UNL     1       5.050   7.059  15.188  0.00  0.00    +0.000 C 
ENDBRANCH   6  22
BRANCH   1  24
ATOM     24  O   UNL     1       5.602   3.868  17.434  0.00  0.00    +0.000 OA
BRANCH  24  25
ATOM     25  C   UNL     1       4.333   4.100  16.827  0.00  0.00    +0.000 C 
BRANCH  25  27
ATOM     26  N   UNL     1       3.364   6.158  17.722  0.00  0.00    +0.000 N 
ATOM     27  C   UNL     1       3.427   4.777  17.869  0.00  0.00    +0.000 C 
ATOM     28  O   UNL     1       2.811   4.108  18.695  0.00  0.00    +0.000 OA
ATOM     29  H   UNL     1       3.963   6.532  16.990  0.00  0.00    +0.000 HD
BRANCH  26  33
ATOM     30  C   UNL     1       1.193   9.056  19.922  0.00  0.00    +0.000 A 
ATOM     31  C   UNL     1       1.644   7.901  20.556  0.00  0.00    +0.000 A 
ATOM     32  C   UNL     1       2.364   6.929  19.850  0.00  0.00    +0.000 A 
ATOM     33  C   UNL     1       2.631   7.090  18.490  0.00  0.00    +0.000 A 
ATOM     34  C   UNL     1       2.151   8.238  17.852  0.00  0.00    +0.000 A 
ATOM     35  C   UNL     1       1.432   9.219  18.559  0.00  0.00    +0.000 A 
BRANCH  30  37
ATOM     36  C   UNL     1       0.305  11.234  20.200  0.00  0.00    +0.000 C 
ATOM     37  O   UNL     1       0.506   9.927  20.724  0.00  0.00    +0.000 OA
ENDBRANCH  30  37
ENDBRANCH  26  33
ENDBRANCH  25  27
ENDBRANCH  24  25
ENDBRANCH   1  24
TORSDOF 10
ENDMDL
MODEL 7
REMARK VINA RESULT:      -8.1      3.959      9.097
REMARK  Name = 
REMARK  12 active torsions:
REMARK  status: ('A' for Active; 'I' for Inactive)
REMARK    1  A    between atoms: C_1  and  O_2
REMARK    2  A    between atoms: O_2  and  C_3
REMARK    3  A    between atoms: C_6  and  N_7
REMARK    4  A    between atoms: C_8  and  C_10
REMARK    5  A    between atoms: C_10  and  O_11
REMARK    6  A    between atoms: O_11  and  C_12
REMARK    7  A    between atoms: C_15  and  C_16
REMARK    8  A    between atoms: C_17  and  C_18
REMARK    9  A    between atoms: N_20  and  C_21
REMARK   10  A    between atoms: C_26  and  N_27
REMARK   11  A    between atoms: C_29  and  O_30
REMARK   12  A    between atoms: O_30  and  C_31
REMARK                            x       y       z     vdW  Elec       q    Type
REMARK                         _______ _______ _______ _____ _____    ______ ____
ROOT
ATOM      1  C   UNL     1      10.251  13.407  19.543  0.00  0.00    +0.000 A 
ATOM      2  C   UNL     1      10.247  12.899  18.237  0.00  0.00    +0.000 A 
ATOM      3  C   UNL     1       9.844  11.588  17.973  0.00  0.00    +0.000 A 
ATOM      4  C   UNL     1       9.468  10.756  19.024  0.00  0.00    +0.000 A 
ATOM      5  C   UNL     1       9.509  11.255  20.334  0.00  0.00    +0.000 A 
ATOM      6  C   UNL     1       9.866  12.585  20.610  0.00  0.00    +0.000 A 
ENDROOT
BRANCH   4   7
ATOM      7  C   UNL     1       8.890   9.427  18.832  0.00  0.00    +0.000 C 
ATOM      8  C   UNL     1       8.221   8.993  17.752  0.00  0.00    +0.000 C 
BRANCH   8   9
ATOM      9  C   UNL     1       7.666   7.611  17.815  0.00  0.00    +0.000 C 
ATOM     10  O   UNL     1       8.069   6.818  18.659  0.00  0.00    +0.000 OA
ATOM     11  N   UNL     1       6.712   7.369  16.847  0.00  0.00    +0.000 N 
ATOM     12  H   UNL     1       6.653   8.002  16.070  0.00  0.00    +0.000 HD
BRANCH  11  13
ATOM     13  C   UNL     1       5.928   6.189  16.754  0.00  0.00    +0.000 A 
ATOM     14  C   UNL     1       4.783   6.007  17.543  0.00  0.00    +0.000 A 
ATOM     15  C   UNL     1       4.055   4.821  17.495  0.00  0.00    +0.000 A 
ATOM     16  C   UNL     1       4.469   3.795  16.660  0.00  0.00    +0.000 A 
ATOM     17  C   UNL     1       5.591   3.969  15.849  0.00  0.00    +0.000 A 
ATOM     18  C   UNL     1       6.299   5.185  15.832  0.00  0.00    +0.000 A 
BRANCH  18  19
ATOM     19  N   UNL     1       7.482   5.258  15.067  0.00  0.00    +0.000 N 
ATOM     20  H   UNL     1       8.310   5.398  15.640  0.00  0.00    +0.000 HD
ATOM     21  H   UNL     1       7.617   4.482  14.431  0.00  0.00    +0.000 HD
ENDBRANCH  18  19
ENDBRANCH  11  13
ENDBRANCH   8   9
ENDBRANCH   4   7
BRANCH   6  22
ATOM     22  O   UNL     1       9.811  13.107  21.875  0.00  0.00    +0.000 OA
ATOM     23  C   UNL     1       8.715  12.666  22.680  0.00  0.00    +0.000 C 
ENDBRANCH   6  22
BRANCH   1  24
ATOM     24  O   UNL     1      10.461  14.759  19.592  0.00  0.00    +0.000 OA
BRANCH  24  25
ATOM     25  C   UNL     1       9.734  15.505  20.565  0.00  0.00    +0.000 C 
BRANCH  25  27
ATOM     26  N   UNL     1       7.389  15.329  19.898  0.00  0.00    +0.000 N 
ATOM     27  C   UNL     1       8.519  16.139  19.867  0.00  0.00    +0.000 C 
ATOM     28  O   UNL     1       8.589  17.268  19.388  0.00  0.00    +0.000 OA
ATOM     29  H   UNL     1       7.536  14.417  20.323  0.00  0.00    +0.000 HD
BRANCH  26  33
ATOM     30  C   UNL     1       3.507  16.182  18.431  0.00  0.00    +0.000 A 
ATOM     31  C   UNL     1       4.286  15.211  17.805  0.00  0.00    +0.000 A 
ATOM     32  C   UNL     1       5.572  14.911  18.271  0.00  0.00    +0.000 A 
ATOM     33  C   UNL     1       6.107  15.591  19.366  0.00  0.00    +0.000 A 
ATOM     34  C   UNL     1       5.333  16.584  19.973  0.00  0.00    +0.000 A 
ATOM     35  C   UNL     1       4.038  16.884  19.510  0.00  0.00    +0.000 A 
BRANCH  30  37
ATOM     36  C   UNL     1       1.161  15.976  18.676  0.00  0.00    +0.000 C 
ATOM     37  O   UNL     1       2.270  16.376  17.880  0.00  0.00    +0.000 OA
ENDBRANCH  30  37
ENDBRANCH  26  33
ENDBRANCH  25  27
ENDBRANCH  24  25
ENDBRANCH   1  24
TORSDOF 10
ENDMDL
MODEL 8
REMARK VINA RESULT:      -7.7      5.280      8.385
REMARK  Name = 
REMARK  12 active torsions:
REMARK  status: ('A' for Active; 'I' for Inactive)
REMARK    1  A    between atoms: C_1  and  O_2
REMARK    2  A    between atoms: O_2  and  C_3
REMARK    3  A    between atoms: C_6  and  N_7
REMARK    4  A    between atoms: C_8  and  C_10
REMARK    5  A    between atoms: C_10  and  O_11
REMARK    6  A    between atoms: O_11  and  C_12
REMARK    7  A    between atoms: C_15  and  C_16
REMARK    8  A    between atoms: C_17  and  C_18
REMARK    9  A    between atoms: N_20  and  C_21
REMARK   10  A    between atoms: C_26  and  N_27
REMARK   11  A    between atoms: C_29  and  O_30
REMARK   12  A    between atoms: O_30  and  C_31
REMARK                            x       y       z     vdW  Elec       q    Type
REMARK                         _______ _______ _______ _____ _____    ______ ____
ROOT
ATOM      1  C   UNL     1       1.474   8.529  19.802  0.00  0.00    +0.000 A 
ATOM      2  C   UNL     1       1.900   7.290  20.300  0.00  0.00    +0.000 A 
ATOM      3  C   UNL     1       2.648   6.413  19.512  0.00  0.00    +0.000 A 
ATOM      4  C   UNL     1       2.953   6.755  18.197  0.00  0.00    +0.000 A 
ATOM      5  C   UNL     1       2.494   7.979  17.689  0.00  0.00    +0.000 A 
ATOM      6  C   UNL     1       1.782   8.891  18.484  0.00  0.00    +0.000 A 
ENDROOT
BRANCH   4   7
ATOM      7  C   UNL     1       3.854   5.974  17.350  0.00  0.00    +0.000 C 
ATOM      8  C   UNL     1       5.178   6.151  17.212  0.00  0.00    +0.000 C 
BRANCH   8   9
ATOM      9  C   UNL     1       5.876   5.268  16.235  0.00  0.00    +0.000 C 
ATOM     10  O   UNL     1       6.731   4.475  16.615  0.00  0.00    +0.000 OA
ATOM     11  N   UNL     1       5.459   5.468  14.935  0.00  0.00    +0.000 N 
ATOM     12  H   UNL     1       4.946   6.306  14.724  0.00  0.00    +0.000 HD
BRANCH  11  13
ATOM     13  C   UNL     1       5.856   4.681  13.821  0.00  0.00    +0.000 A 
ATOM     14  C   UNL     1       4.970   3.788  13.202  0.00  0.00    +0.000 A 
ATOM     15  C   UNL     1       5.383   2.971  12.153  0.00  0.00    +0.000 A 
ATOM     16  C   UNL     1       6.697   3.032  11.713  0.00  0.00    +0.000 A 
ATOM     17  C   UNL     1       7.586   3.933  12.301  0.00  0.00    +0.000 A 
ATOM     18  C   UNL     1       7.168   4.815  13.316  0.00  0.00    +0.000 A 
BRANCH  18  19
ATOM     19  N   UNL     1       8.140   5.628  13.935  0.00  0.00    +0.000 N 
ATOM     20  H   UNL     1       8.946   5.796  13.339  0.00  0.00    +0.000 HD
ATOM     21  H   UNL     1       7.783   6.500  14.304  0.00  0.00    +0.000 HD
ENDBRANCH  18  19
ENDBRANCH  11  13
ENDBRANCH   8   9
ENDBRANCH   4   7
BRANCH   6  22
ATOM     22  O   UNL     1       1.419  10.130  18.025  0.00  0.00    +0.000 OA
ATOM     23  C   UNL     1       2.486  11.065  17.855  0.00  0.00    +0.000 C 
ENDBRANCH   6  22
BRANCH   1  24
ATOM     24  O   UNL     1       0.949   9.344  20.768  0.00  0.00    +0.000 OA
BRANCH  24  25
ATOM     25  C   UNL     1       0.435   8.727  21.946  0.00  0.00    +0.000 C 
BRANCH  25  27
ATOM     26  N   UNL     1      -0.817  10.809  22.221  0.00  0.00    +0.000 N 
ATOM     27  C   UNL     1      -0.071   9.838  22.881  0.00  0.00    +0.000 C 
ATOM     28  O   UNL     1       0.154   9.794  24.088  0.00  0.00    +0.000 OA
ATOM     29  H   UNL     1      -0.875  10.681  21.213  0.00  0.00    +0.000 HD
BRANCH  26  33
ATOM     30  C   UNL     1      -2.539  14.322  23.845  0.00  0.00    +0.000 A 
ATOM     31  C   UNL     1      -3.243  13.121  23.891  0.00  0.00    +0.000 A 
ATOM     32  C   UNL     1      -2.695  11.946  23.361  0.00  0.00    +0.000 A 
ATOM     33  C   UNL     1      -1.435  11.958  22.761  0.00  0.00    +0.000 A 
ATOM     34  C   UNL     1      -0.745  13.171  22.692  0.00  0.00    +0.000 A 
ATOM     35  C   UNL     1      -1.291  14.353  23.228  0.00  0.00    +0.000 A 
BRANCH  30  37
ATOM     36  C   UNL     1      -4.509  15.631  23.945  0.00  0.00    +0.000 C 
ATOM     37  O   UNL     1      -3.183  15.393  24.401  0.00  0.00    +0.000 OA
ENDBRANCH  30  37
ENDBRANCH  26  33
ENDBRANCH  25  27
ENDBRANCH  24  25
ENDBRANCH   1  24
TORSDOF 10
ENDMDL
MODEL 9
REMARK VINA RESULT:      -7.6      5.739      8.582
REMARK  Name = 
REMARK  12 active torsions:
REMARK  status: ('A' for Active; 'I' for Inactive)
REMARK    1  A    between atoms: C_1  and  O_2
REMARK    2  A    between atoms: O_2  and  C_3
REMARK    3  A    between atoms: C_6  and  N_7
REMARK    4  A    between atoms: C_8  and  C_10
REMARK    5  A    between atoms: C_10  and  O_11
REMARK    6  A    between atoms: O_11  and  C_12
REMARK    7  A    between atoms: C_15  and  C_16
REMARK    8  A    between atoms: C_17  and  C_18
REMARK    9  A    between atoms: N_20  and  C_21
REMARK   10  A    between atoms: C_26  and  N_27
REMARK   11  A    between atoms: C_29  and  O_30
REMARK   12  A    between atoms: O_30  and  C_31
REMARK                            x       y       z     vdW  Elec       q    Type
REMARK                         _______ _______ _______ _____ _____    ______ ____
ROOT
ATOM      1  C   UNL     1       1.629   8.283  20.092  0.00  0.00    +0.000 A 
ATOM      2  C   UNL     1       1.950   7.001  20.556  0.00  0.00    +0.000 A 
ATOM      3  C   UNL     1       2.582   6.070  19.729  0.00  0.00    +0.000 A 
ATOM      4  C   UNL     1       2.874   6.405  18.409  0.00  0.00    +0.000 A 
ATOM      5  C   UNL     1       2.518   7.676  17.935  0.00  0.00    +0.000 A 
ATOM      6  C   UNL     1       1.926   8.638  18.769  0.00  0.00    +0.000 A 
ENDROOT
BRANCH   4   7
ATOM      7  C   UNL     1       3.665   5.557  17.519  0.00  0.00    +0.000 C 
ATOM      8  C   UNL     1       4.774   5.912  16.850  0.00  0.00    +0.000 C 
BRANCH   8   9
ATOM      9  C   UNL     1       5.372   4.887  15.947  0.00  0.00    +0.000 C 
ATOM     10  O   UNL     1       5.697   3.789  16.385  0.00  0.00    +0.000 OA
ATOM     11  N   UNL     1       5.507   5.328  14.647  0.00  0.00    +0.000 N 
ATOM     12  H   UNL     1       5.440   6.315  14.471  0.00  0.00    +0.000 HD
BRANCH  11  13
ATOM     13  C   UNL     1       5.923   4.524  13.553  0.00  0.00    +0.000 A 
ATOM     14  C   UNL     1       5.082   3.548  13.000  0.00  0.00    +0.000 A 
ATOM     15  C   UNL     1       5.518   2.718  11.971  0.00  0.00    +0.000 A 
ATOM     16  C   UNL     1       6.810   2.850  11.484  0.00  0.00    +0.000 A 
ATOM     17  C   UNL     1       7.652   3.834  12.005  0.00  0.00    +0.000 A 
ATOM     18  C   UNL     1       7.205   4.727  12.997  0.00  0.00    +0.000 A 
BRANCH  18  19
ATOM     19  N   UNL     1       8.138   5.629  13.551  0.00  0.00    +0.000 N 
ATOM     20  H   UNL     1       8.962   5.746  12.967  0.00  0.00    +0.000 HD
ATOM     21  H   UNL     1       7.750   6.530  13.801  0.00  0.00    +0.000 HD
ENDBRANCH  18  19
ENDBRANCH  11  13
ENDBRANCH   8   9
ENDBRANCH   4   7
BRANCH   6  22
ATOM     22  O   UNL     1       1.668   9.914  18.342  0.00  0.00    +0.000 OA
ATOM     23  C   UNL     1       0.289  10.291  18.311  0.00  0.00    +0.000 C 
ENDBRANCH   6  22
BRANCH   1  24
ATOM     24  O   UNL     1       1.219   9.127  21.088  0.00  0.00    +0.000 OA
BRANCH  24  25
ATOM     25  C   UNL     1       0.120   8.712  21.896  0.00  0.00    +0.000 C 
BRANCH  25  27
ATOM     26  N   UNL     1      -0.967  10.876  22.235  0.00  0.00    +0.000 N 
ATOM     27  C   UNL     1      -0.231   9.867  22.848  0.00  0.00    +0.000 C 
ATOM     28  O   UNL     1       0.095   9.826  24.033  0.00  0.00    +0.000 OA
ATOM     29  H   UNL     1      -1.120  10.738  21.239  0.00  0.00    +0.000 HD
BRANCH  26  33
ATOM     30  C   UNL     1      -2.587  14.403  23.932  0.00  0.00    +0.000 A 
ATOM     31  C   UNL     1      -1.305  14.422  23.389  0.00  0.00    +0.000 A 
ATOM     32  C   UNL     1      -0.747  13.270  22.822  0.00  0.00    +0.000 A 
ATOM     33  C   UNL     1      -1.461  12.071  22.804  0.00  0.00    +0.000 A 
ATOM     34  C   UNL     1      -2.737  12.049  23.375  0.00  0.00    +0.000 A 
ATOM     35  C   UNL     1      -3.302  13.208  23.941  0.00  0.00    +0.000 A 
BRANCH  30  37
ATOM     36  C   UNL     1      -2.859  16.734  23.611  0.00  0.00    +0.000 C 
ATOM     37  O   UNL     1      -3.015  15.595  24.449  0.00  0.00    +0.000 OA
ENDBRANCH  30  37
ENDBRANCH  26  33
ENDBRANCH  25  27
ENDBRANCH  24  25
ENDBRANCH   1  24
TORSDOF 10
ENDMDL
