MODEL 1
REMARK VINA RESULT:      -7.4      0.000      0.000
REMARK  Name = 
REMARK  3 active torsions:
REMARK  status: ('A' for Active; 'I' for Inactive)
REMARK    1  A    between atoms: N_1  and  C_2
REMARK    2  A    between atoms: C_4  and  C_5
REMARK    3  A    between atoms: C_12  and  C_13
REMARK                            x       y       z     vdW  Elec       q    Type
REMARK                         _______ _______ _______ _____ _____    ______ ____
ROOT
ATOM      1  C   UNL     1       7.175   5.204  19.104  0.00  0.00    +0.000 A 
ATOM      2  C   UNL     1       5.834   4.839  19.303  0.00  0.00    +0.000 A 
ATOM      3  C   UNL     1       5.017   4.347  18.263  0.00  0.00    +0.000 A 
ATOM      4  C   UNL     1       5.629   4.293  17.010  0.00  0.00    +0.000 A 
ATOM      5  O   UNL     1       5.094   3.894  15.815  0.00  0.00    +0.000 OA
ATOM      6  C   UNL     1       6.105   4.067  14.899  0.00  0.00    +0.000 A 
ATOM      7  N   UNL     1       7.229   4.525  15.428  0.00  0.00    +0.000 NA
ATOM      8  C   UNL     1       6.935   4.681  16.760  0.00  0.00    +0.000 A 
ATOM      9  C   UNL     1       7.721   5.166  17.814  0.00  0.00    +0.000 A 
ENDROOT
BRANCH   3  10
ATOM     10  C   UNL     1       3.624   3.929  18.433  0.00  0.00    +0.000 A 
ATOM     11  C   UNL     1       2.460   4.589  18.077  0.00  0.00    +0.000 A 
ATOM     12  C   UNL     1       1.281   3.862  18.414  0.00  0.00    +0.000 A 
ATOM     13  C   UNL     1       1.573   2.662  19.019  0.00  0.00    +0.000 A 
ATOM     14  S   UNL     1       3.254   2.423  19.181  0.00  0.00    +0.000 S 
ENDBRANCH   3  10
BRANCH   6  15
ATOM     15  C   UNL     1       5.945   3.784  13.501  0.00  0.00    +0.000 A 
ATOM     16  C   UNL     1       6.919   3.722  12.517  0.00  0.00    +0.000 A 
ATOM     17  C   UNL     1       6.269   3.424  11.295  0.00  0.00    +0.000 A 
ATOM     18  C   UNL     1       4.932   3.321  11.596  0.00  0.00    +0.000 A 
ATOM     19  O   UNL     1       4.726   3.530  12.921  0.00  0.00    +0.000 OA
ENDBRANCH   6  15
BRANCH   1  20
ATOM     20  N   UNL     1       7.883   5.824  20.142  0.00  0.00    +0.000 N 
ATOM     21  H   UNL     1       8.285   6.725  19.899  0.00  0.00    +0.000 HD
ATOM     22  H   UNL     1       7.391   5.848  21.031  0.00  0.00    +0.000 HD
ENDBRANCH   1  20
TORSDOF 3
ENDMDL
MODEL 2
REMARK VINA RESULT:      -7.2      3.233      4.413
REMARK  Name = 
REMARK  3 active torsions:
REMARK  status: ('A' for Active; 'I' for Inactive)
REMARK    1  A    between atoms: N_1  and  C_2
REMARK    2  A    between atoms: C_4  and  C_5
REMARK    3  A    between atoms: C_12  and  C_13
REMARK                            x       y       z     vdW  Elec       q    Type
REMARK                         _______ _______ _______ _____ _____    ______ ____
ROOT
ATOM      1  C   UNL     1       2.307   3.674  20.976  0.00  0.00    +0.000 A 
ATOM      2  C   UNL     1       1.956   5.016  20.759  0.00  0.00    +0.000 A 
ATOM      3  C   UNL     1       2.422   5.756  19.652  0.00  0.00    +0.000 A 
ATOM      4  C   UNL     1       3.296   5.067  18.810  0.00  0.00    +0.000 A 
ATOM      5  O   UNL     1       3.932   5.518  17.685  0.00  0.00    +0.000 OA
ATOM      6  C   UNL     1       4.696   4.456  17.261  0.00  0.00    +0.000 A 
ATOM      7  N   UNL     1       4.577   3.378  18.020  0.00  0.00    +0.000 NA
ATOM      8  C   UNL     1       3.702   3.758  19.008  0.00  0.00    +0.000 A 
ATOM      9  C   UNL     1       3.222   3.049  20.118  0.00  0.00    +0.000 A 
ENDROOT
BRANCH   3  10
ATOM     10  C   UNL     1       2.058   7.146  19.373  0.00  0.00    +0.000 A 
ATOM     11  C   UNL     1       2.129   7.851  18.184  0.00  0.00    +0.000 A 
ATOM     12  C   UNL     1       1.688   9.201  18.308  0.00  0.00    +0.000 A 
ATOM     13  C   UNL     1       1.289   9.496  19.590  0.00  0.00    +0.000 A 
ATOM     14  S   UNL     1       1.452   8.154  20.631  0.00  0.00    +0.000 S 
ENDBRANCH   3  10
BRANCH   6  15
ATOM     15  C   UNL     1       5.549   4.524  16.108  0.00  0.00    +0.000 A 
ATOM     16  C   UNL     1       5.290   4.087  14.818  0.00  0.00    +0.000 A 
ATOM     17  C   UNL     1       6.440   4.361  14.039  0.00  0.00    +0.000 A 
ATOM     18  C   UNL     1       7.341   4.949  14.893  0.00  0.00    +0.000 A 
ATOM     19  O   UNL     1       6.814   5.058  16.139  0.00  0.00    +0.000 OA
ENDBRANCH   6  15
BRANCH   1  20
ATOM     20  N   UNL     1       1.931   3.046  22.171  0.00  0.00    +0.000 N 
ATOM     21  H   UNL     1       1.731   3.684  22.937  0.00  0.00    +0.000 HD
ATOM     22  H   UNL     1       1.215   2.333  22.064  0.00  0.00    +0.000 HD
ENDBRANCH   1  20
TORSDOF 3
ENDMDL
MODEL 3
REMARK VINA RESULT:      -7.1      0.973      1.249
REMARK  Name = 
REMARK  3 active torsions:
REMARK  status: ('A' for Active; 'I' for Inactive)
REMARK    1  A    between atoms: N_1  and  C_2
REMARK    2  A    between atoms: C_4  and  C_5
REMARK    3  A    between atoms: C_12  and  C_13
REMARK                            x       y       z     vdW  Elec       q    Type
REMARK                         _______ _______ _______ _____ _____    ______ ____
ROOT
ATOM      1  C   UNL     1       7.188   5.191  19.232  0.00  0.00    +0.000 A 
ATOM      2  C   UNL     1       5.853   4.784  19.381  0.00  0.00    +0.000 A 
ATOM      3  C   UNL     1       5.081   4.292  18.307  0.00  0.00    +0.000 A 
ATOM      4  C   UNL     1       5.731   4.282  17.072  0.00  0.00    +0.000 A 
ATOM      5  O   UNL     1       5.243   3.895  15.853  0.00  0.00    +0.000 OA
ATOM      6  C   UNL     1       6.275   4.117  14.973  0.00  0.00    +0.000 A 
ATOM      7  N   UNL     1       7.370   4.595  15.544  0.00  0.00    +0.000 NA
ATOM      8  C   UNL     1       7.032   4.713  16.870  0.00  0.00    +0.000 A 
ATOM      9  C   UNL     1       7.772   5.196  17.957  0.00  0.00    +0.000 A 
ENDROOT
BRANCH   3  10
ATOM     10  C   UNL     1       3.697   3.832  18.426  0.00  0.00    +0.000 A 
ATOM     11  C   UNL     1       3.212   2.552  18.638  0.00  0.00    +0.000 A 
ATOM     12  C   UNL     1       1.788   2.495  18.688  0.00  0.00    +0.000 A 
ATOM     13  C   UNL     1       1.218   3.734  18.515  0.00  0.00    +0.000 A 
ATOM     14  S   UNL     1       2.394   4.950  18.289  0.00  0.00    +0.000 S 
ENDBRANCH   3  10
BRANCH   6  15
ATOM     15  C   UNL     1       6.164   3.861  13.565  0.00  0.00    +0.000 A 
ATOM     16  C   UNL     1       5.093   3.321  12.869  0.00  0.00    +0.000 A 
ATOM     17  C   UNL     1       5.465   3.254  11.505  0.00  0.00    +0.000 A 
ATOM     18  C   UNL     1       6.743   3.754  11.438  0.00  0.00    +0.000 A 
ATOM     19  O   UNL     1       7.172   4.127  12.670  0.00  0.00    +0.000 OA
ENDBRANCH   6  15
BRANCH   1  20
ATOM     20  N   UNL     1       7.847   5.807  20.303  0.00  0.00    +0.000 N 
ATOM     21  H   UNL     1       8.746   6.216  20.066  0.00  0.00    +0.000 HD
ATOM     22  H   UNL     1       7.266   6.439  20.847  0.00  0.00    +0.000 HD
ENDBRANCH   1  20
TORSDOF 3
ENDMDL
MODEL 4
REMARK VINA RESULT:      -6.8      3.600      5.852
REMARK  Name = 
REMARK  3 active torsions:
REMARK  status: ('A' for Active; 'I' for Inactive)
REMARK    1  A    between atoms: N_1  and  C_2
REMARK    2  A    between atoms: C_4  and  C_5
REMARK    3  A    between atoms: C_12  and  C_13
REMARK                            x       y       z     vdW  Elec       q    Type
REMARK                         _______ _______ _______ _____ _____    ______ ____
ROOT
ATOM      1  C   UNL     1       5.941   5.145  16.384  0.00  0.00    +0.000 A 
ATOM      2  C   UNL     1       5.164   4.165  17.021  0.00  0.00    +0.000 A 
ATOM      3  C   UNL     1       3.966   4.467  17.703  0.00  0.00    +0.000 A 
ATOM      4  C   UNL     1       3.634   5.823  17.736  0.00  0.00    +0.000 A 
ATOM      5  O   UNL     1       2.563   6.425  18.339  0.00  0.00    +0.000 OA
ATOM      6  C   UNL     1       2.731   7.768  18.097  0.00  0.00    +0.000 A 
ATOM      7  N   UNL     1       3.808   8.050  17.382  0.00  0.00    +0.000 NA
ATOM      8  C   UNL     1       4.392   6.827  17.158  0.00  0.00    +0.000 A 
ATOM      9  C   UNL     1       5.577   6.494  16.487  0.00  0.00    +0.000 A 
ENDROOT
BRANCH   3  10
ATOM     10  C   UNL     1       3.112   3.473  18.356  0.00  0.00    +0.000 A 
ATOM     11  C   UNL     1       2.220   2.576  17.793  0.00  0.00    +0.000 A 
ATOM     12  C   UNL     1       1.558   1.766  18.760  0.00  0.00    +0.000 A 
ATOM     13  C   UNL     1       1.961   2.061  20.041  0.00  0.00    +0.000 A 
ATOM     14  S   UNL     1       3.124   3.310  20.070  0.00  0.00    +0.000 S 
ENDBRANCH   3  10
BRANCH   6  15
ATOM     15  C   UNL     1       1.823   8.766  18.588  0.00  0.00    +0.000 A 
ATOM     16  C   UNL     1       1.287   9.851  17.912  0.00  0.00    +0.000 A 
ATOM     17  C   UNL     1       0.456  10.549  18.822  0.00  0.00    +0.000 A 
ATOM     18  C   UNL     1       0.529   9.855  20.005  0.00  0.00    +0.000 A 
ATOM     19  O   UNL     1       1.343   8.777  19.876  0.00  0.00    +0.000 OA
ENDBRANCH   6  15
BRANCH   1  20
ATOM     20  N   UNL     1       7.192   4.799  15.856  0.00  0.00    +0.000 N 
ATOM     21  H   UNL     1       7.360   3.799  15.791  0.00  0.00    +0.000 HD
ATOM     22  H   UNL     1       7.437   5.288  15.000  0.00  0.00    +0.000 HD
ENDBRANCH   1  20
TORSDOF 3
ENDMDL
MODEL 5
REMARK VINA RESULT:      -6.8      4.403      7.471
REMARK  Name = 
REMARK  3 active torsions:
REMARK  status: ('A' for Active; 'I' for Inactive)
REMARK    1  A    between atoms: N_1  and  C_2
REMARK    2  A    between atoms: C_4  and  C_5
REMARK    3  A    between atoms: C_12  and  C_13
REMARK                            x       y       z     vdW  Elec       q    Type
REMARK                         _______ _______ _______ _____ _____    ______ ____
ROOT
ATOM      1  C   UNL     1       3.036   2.727  18.914  0.00  0.00    +0.000 A 
ATOM      2  C   UNL     1       4.221   3.390  18.557  0.00  0.00    +0.000 A 
ATOM      3  C   UNL     1       4.425   4.766  18.795  0.00  0.00    +0.000 A 
ATOM      4  C   UNL     1       3.342   5.430  19.373  0.00  0.00    +0.000 A 
ATOM      5  O   UNL     1       3.226   6.755  19.694  0.00  0.00    +0.000 OA
ATOM      6  C   UNL     1       1.954   6.886  20.200  0.00  0.00    +0.000 A 
ATOM      7  N   UNL     1       1.275   5.750  20.234  0.00  0.00    +0.000 NA
ATOM      8  C   UNL     1       2.141   4.825  19.704  0.00  0.00    +0.000 A 
ATOM      9  C   UNL     1       1.969   3.457  19.454  0.00  0.00    +0.000 A 
ENDROOT
BRANCH   3  10
ATOM     10  C   UNL     1       5.654   5.489  18.464  0.00  0.00    +0.000 A 
ATOM     11  C   UNL     1       6.849   5.554  19.160  0.00  0.00    +0.000 A 
ATOM     12  C   UNL     1       7.824   6.374  18.520  0.00  0.00    +0.000 A 
ATOM     13  C   UNL     1       7.351   6.916  17.348  0.00  0.00    +0.000 A 
ATOM     14  S   UNL     1       5.743   6.440  17.031  0.00  0.00    +0.000 S 
ENDBRANCH   3  10
BRANCH   6  15
ATOM     15  C   UNL     1       1.417   8.144  20.637  0.00  0.00    +0.000 A 
ATOM     16  C   UNL     1       1.084   8.538  21.924  0.00  0.00    +0.000 A 
ATOM     17  C   UNL     1       0.583   9.859  21.846  0.00  0.00    +0.000 A 
ATOM     18  C   UNL     1       0.635  10.203  20.517  0.00  0.00    +0.000 A 
ATOM     19  O   UNL     1       1.140   9.181  19.781  0.00  0.00    +0.000 OA
ENDBRANCH   6  15
BRANCH   1  20
ATOM     20  N   UNL     1       2.841   1.399  18.515  0.00  0.00    +0.000 N 
ATOM     21  H   UNL     1       1.875   1.084  18.555  0.00  0.00    +0.000 HD
ATOM     22  H   UNL     1       3.291   1.152  17.638  0.00  0.00    +0.000 HD
ENDBRANCH   1  20
TORSDOF 3
ENDMDL
MODEL 6
REMARK VINA RESULT:      -6.8      3.116      4.163
REMARK  Name = 
REMARK  3 active torsions:
REMARK  status: ('A' for Active; 'I' for Inactive)
REMARK    1  A    between atoms: N_1  and  C_2
REMARK    2  A    between atoms: C_4  and  C_5
REMARK    3  A    between atoms: C_12  and  C_13
REMARK                            x       y       z     vdW  Elec       q    Type
REMARK                         _______ _______ _______ _____ _____    ______ ____
ROOT
ATOM      1  C   UNL     1       1.758   8.442  19.420  0.00  0.00    +0.000 A 
ATOM      2  C   UNL     1       1.546   7.196  20.030  0.00  0.00    +0.000 A 
ATOM      3  C   UNL     1       2.214   6.023  19.619  0.00  0.00    +0.000 A 
ATOM      4  C   UNL     1       3.071   6.186  18.528  0.00  0.00    +0.000 A 
ATOM      5  O   UNL     1       3.826   5.241  17.888  0.00  0.00    +0.000 OA
ATOM      6  C   UNL     1       4.452   5.920  16.869  0.00  0.00    +0.000 A 
ATOM      7  N   UNL     1       4.160   7.211  16.832  0.00  0.00    +0.000 NA
ATOM      8  C   UNL     1       3.279   7.386  17.871  0.00  0.00    +0.000 A 
ATOM      9  C   UNL     1       2.600   8.533  18.303  0.00  0.00    +0.000 A 
ENDROOT
BRANCH   3  10
ATOM     10  C   UNL     1       2.043   4.711  20.245  0.00  0.00    +0.000 A 
ATOM     11  C   UNL     1       2.472   4.267  21.484  0.00  0.00    +0.000 A 
ATOM     12  C   UNL     1       2.121   2.910  21.743  0.00  0.00    +0.000 A 
ATOM     13  C   UNL     1       1.430   2.349  20.695  0.00  0.00    +0.000 A 
ATOM     14  S   UNL     1       1.215   3.452  19.412  0.00  0.00    +0.000 S 
ENDBRANCH   3  10
BRANCH   6  15
ATOM     15  C   UNL     1       5.330   5.279  15.932  0.00  0.00    +0.000 A 
ATOM     16  C   UNL     1       5.394   3.937  15.591  0.00  0.00    +0.000 A 
ATOM     17  C   UNL     1       6.427   3.792  14.634  0.00  0.00    +0.000 A 
ATOM     18  C   UNL     1       6.941   5.051  14.442  0.00  0.00    +0.000 A 
ATOM     19  O   UNL     1       6.285   5.955  15.213  0.00  0.00    +0.000 OA
ENDBRANCH   6  15
BRANCH   1  20
ATOM     20  N   UNL     1       0.953   9.532  19.777  0.00  0.00    +0.000 N 
ATOM     21  H   UNL     1       1.218  10.412  19.342  0.00  0.00    +0.000 HD
ATOM     22  H   UNL     1      -0.045   9.356  19.715  0.00  0.00    +0.000 HD
ENDBRANCH   1  20
TORSDOF 3
ENDMDL
MODEL 7
REMARK VINA RESULT:      -6.7      3.834      6.051
REMARK  Name = 
REMARK  3 active torsions:
REMARK  status: ('A' for Active; 'I' for Inactive)
REMARK    1  A    between atoms: N_1  and  C_2
REMARK    2  A    between atoms: C_4  and  C_5
REMARK    3  A    between atoms: C_12  and  C_13
REMARK                            x       y       z     vdW  Elec       q    Type
REMARK                         _______ _______ _______ _____ _____    ______ ____
ROOT
ATOM      1  C   UNL     1       5.195   4.440  16.736  0.00  0.00    +0.000 A 
ATOM      2  C   UNL     1       4.551   3.753  17.778  0.00  0.00    +0.000 A 
ATOM      3  C   UNL     1       3.567   4.352  18.592  0.00  0.00    +0.000 A 
ATOM      4  C   UNL     1       3.311   5.696  18.313  0.00  0.00    +0.000 A 
ATOM      5  O   UNL     1       2.444   6.548  18.941  0.00  0.00    +0.000 OA
ATOM      6  C   UNL     1       2.607   7.753  18.300  0.00  0.00    +0.000 A 
ATOM      7  N   UNL     1       3.492   7.718  17.316  0.00  0.00    +0.000 NA
ATOM      8  C   UNL     1       3.951   6.424  17.324  0.00  0.00    +0.000 A 
ATOM      9  C   UNL     1       4.925   5.800  16.532  0.00  0.00    +0.000 A 
ENDROOT
BRANCH   3  10
ATOM     10  C   UNL     1       2.853   3.664  19.668  0.00  0.00    +0.000 A 
ATOM     11  C   UNL     1       3.347   3.118  20.841  0.00  0.00    +0.000 A 
ATOM     12  C   UNL     1       2.335   2.517  21.646  0.00  0.00    +0.000 A 
ATOM     13  C   UNL     1       1.091   2.619  21.071  0.00  0.00    +0.000 A 
ATOM     14  S   UNL     1       1.149   3.429  19.570  0.00  0.00    +0.000 S 
ENDBRANCH   3  10
BRANCH   6  15
ATOM     15  C   UNL     1       1.887   8.937  18.676  0.00  0.00    +0.000 A 
ATOM     16  C   UNL     1       1.785  10.138  17.991  0.00  0.00    +0.000 A 
ATOM     17  C   UNL     1       0.979  11.003  18.769  0.00  0.00    +0.000 A 
ATOM     18  C   UNL     1       0.632  10.287  19.889  0.00  0.00    +0.000 A 
ATOM     19  O   UNL     1       1.168   9.041  19.842  0.00  0.00    +0.000 OA
ENDBRANCH   6  15
BRANCH   1  20
ATOM     20  N   UNL     1       6.266   3.833  16.067  0.00  0.00    +0.000 N 
ATOM     21  H   UNL     1       6.219   2.819  16.029  0.00  0.00    +0.000 HD
ATOM     22  H   UNL     1       6.484   4.244  15.164  0.00  0.00    +0.000 HD
ENDBRANCH   1  20
TORSDOF 3
ENDMDL
MODEL 8
REMARK VINA RESULT:      -6.7      4.167      6.715
REMARK  Name = 
REMARK  3 active torsions:
REMARK  status: ('A' for Active; 'I' for Inactive)
REMARK    1  A    between atoms: N_1  and  C_2
REMARK    2  A    between atoms: C_4  and  C_5
REMARK    3  A    between atoms: C_12  and  C_13
REMARK                            x       y       z     vdW  Elec       q    Type
REMARK                         _______ _______ _______ _____ _____    ______ ____
ROOT
ATOM      1  C   UNL     1       2.773   3.186  21.060  0.00  0.00    +0.000 A 
ATOM      2  C   UNL     1       3.638   3.139  19.956  0.00  0.00    +0.000 A 
ATOM      3  C   UNL     1       3.855   4.248  19.111  0.00  0.00    +0.000 A 
ATOM      4  C   UNL     1       3.109   5.384  19.428  0.00  0.00    +0.000 A 
ATOM      5  O   UNL     1       3.079   6.593  18.786  0.00  0.00    +0.000 OA
ATOM      6  C   UNL     1       2.159   7.340  19.484  0.00  0.00    +0.000 A 
ATOM      7  N   UNL     1       1.627   6.703  20.515  0.00  0.00    +0.000 NA
ATOM      8  C   UNL     1       2.214   5.462  20.482  0.00  0.00    +0.000 A 
ATOM      9  C   UNL     1       2.020   4.343  21.303  0.00  0.00    +0.000 A 
ENDROOT
BRANCH   3  10
ATOM     10  C   UNL     1       4.769   4.251  17.968  0.00  0.00    +0.000 A 
ATOM     11  C   UNL     1       4.540   3.858  16.659  0.00  0.00    +0.000 A 
ATOM     12  C   UNL     1       5.687   4.000  15.825  0.00  0.00    +0.000 A 
ATOM     13  C   UNL     1       6.767   4.498  16.516  0.00  0.00    +0.000 A 
ATOM     14  S   UNL     1       6.395   4.786  18.156  0.00  0.00    +0.000 S 
ENDBRANCH   3  10
BRANCH   6  15
ATOM     15  C   UNL     1       1.808   8.682  19.115  0.00  0.00    +0.000 A 
ATOM     16  C   UNL     1       2.085   9.352  17.933  0.00  0.00    +0.000 A 
ATOM     17  C   UNL     1       1.545  10.655  18.047  0.00  0.00    +0.000 A 
ATOM     18  C   UNL     1       0.968  10.715  19.293  0.00  0.00    +0.000 A 
ATOM     19  O   UNL     1       1.115   9.533  19.942  0.00  0.00    +0.000 OA
ENDBRANCH   6  15
BRANCH   1  20
ATOM     20  N   UNL     1       2.489   2.009  21.766  0.00  0.00    +0.000 N 
ATOM     21  H   UNL     1       3.011   1.900  22.631  0.00  0.00    +0.000 HD
ATOM     22  H   UNL     1       1.498   1.818  21.885  0.00  0.00    +0.000 HD
ENDBRANCH   1  20
TORSDOF 3
ENDMDL
MODEL 9
REMARK VINA RESULT:      -6.6      3.854      6.347
REMARK  Name = 
REMARK  3 active torsions:
REMARK  status: ('A' for Active; 'I' for Inactive)
REMARK    1  A    between atoms: N_1  and  C_2
REMARK    2  A    between atoms: C_4  and  C_5
REMARK    3  A    between atoms: C_12  and  C_13
REMARK                            x       y       z     vdW  Elec       q    Type
REMARK                         _______ _______ _______ _____ _____    ______ ____
ROOT
ATOM      1  C   UNL     1       5.315   5.694  16.155  0.00  0.00    +0.000 A 
ATOM      2  C   UNL     1       4.623   4.625  16.745  0.00  0.00    +0.000 A 
ATOM      3  C   UNL     1       3.513   4.812  17.596  0.00  0.00    +0.000 A 
ATOM      4  C   UNL     1       3.181   6.145  17.844  0.00  0.00    +0.000 A 
ATOM      5  O   UNL     1       2.185   6.643  18.640  0.00  0.00    +0.000 OA
ATOM      6  C   UNL     1       2.317   8.009  18.558  0.00  0.00    +0.000 A 
ATOM      7  N   UNL     1       3.301   8.402  17.765  0.00  0.00    +0.000 NA
ATOM      8  C   UNL     1       3.860   7.231  17.317  0.00  0.00    +0.000 A 
ATOM      9  C   UNL     1       4.959   7.011  16.475  0.00  0.00    +0.000 A 
ENDROOT
BRANCH   3  10
ATOM     10  C   UNL     1       2.748   3.725  18.209  0.00  0.00    +0.000 A 
ATOM     11  C   UNL     1       1.399   3.431  18.100  0.00  0.00    +0.000 A 
ATOM     12  C   UNL     1       1.015   2.286  18.857  0.00  0.00    +0.000 A 
ATOM     13  C   UNL     1       2.080   1.731  19.527  0.00  0.00    +0.000 A 
ATOM     14  S   UNL     1       3.526   2.591  19.245  0.00  0.00    +0.000 S 
ENDBRANCH   3  10
BRANCH   6  15
ATOM     15  C   UNL     1       1.468   8.916  19.277  0.00  0.00    +0.000 A 
ATOM     16  C   UNL     1       1.025   8.827  20.588  0.00  0.00    +0.000 A 
ATOM     17  C   UNL     1       0.202   9.952  20.835  0.00  0.00    +0.000 A 
ATOM     18  C   UNL     1       0.184  10.669  19.663  0.00  0.00    +0.000 A 
ATOM     19  O   UNL     1       0.946  10.059  18.721  0.00  0.00    +0.000 OA
ENDBRANCH   6  15
BRANCH   1  20
ATOM     20  N   UNL     1       6.496   5.445  15.444  0.00  0.00    +0.000 N 
ATOM     21  H   UNL     1       6.777   4.468  15.423  0.00  0.00    +0.000 HD
ATOM     22  H   UNL     1       6.534   5.878  14.526  0.00  0.00    +0.000 HD
ENDBRANCH   1  20
TORSDOF 3
ENDMDL
