MODEL 1
REMARK VINA RESULT:      -7.7      0.000      0.000
REMARK  Name = 
REMARK  6 active torsions:
REMARK  status: ('A' for Active; 'I' for Inactive)
REMARK    1  A    between atoms: C_2  and  C_3
REMARK    2  A    between atoms: N_5  and  C_6
REMARK    3  A    between atoms: C_9  and  C_10
REMARK    4  A    between atoms: C_10  and  O_12
REMARK    5  A    between atoms: C_16  and  C_17
REMARK    6  A    between atoms: C_21  and  O_22
REMARK                            x       y       z     vdW  Elec       q    Type
REMARK                         _______ _______ _______ _____ _____    ______ ____
ROOT
ATOM      1  C   UNL     1       3.504   6.797  17.811  0.00  0.00    +0.000 A 
ATOM      2  C   UNL     1       2.961   7.972  18.296  0.00  0.00    +0.000 A 
ATOM      3  N   UNL     1       2.159   7.688  19.384  0.00  0.00    +0.000 N 
ATOM      4  C   UNL     1       2.185   6.321  19.557  0.00  0.00    +0.000 A 
ATOM      5  C   UNL     1       3.001   5.735  18.607  0.00  0.00    +0.000 A 
ENDROOT
BRANCH   3   6
ATOM      6  C   UNL     1       1.438   8.625  20.188  0.00  0.00    +0.000 A 
ATOM      7  C   UNL     1       1.005   9.843  19.648  0.00  0.00    +0.000 A 
ATOM      8  C   UNL     1       0.297  10.753  20.441  0.00  0.00    +0.000 A 
ATOM      9  C   UNL     1       0.024  10.468  21.783  0.00  0.00    +0.000 A 
ATOM     10  C   UNL     1       0.442   9.251  22.325  0.00  0.00    +0.000 A 
ATOM     11  C   UNL     1       1.146   8.337  21.532  0.00  0.00    +0.000 A 
BRANCH   9  12
ATOM     12  C   UNL     1      -0.758  11.467  22.556  0.00  0.00    +0.000 C 
ATOM     13  O   UNL     1      -1.718  11.157  23.240  0.00  0.00    +0.000 OA
BRANCH  12  14
ATOM     14  O   UNL     1      -0.345  12.742  22.409  0.00  0.00    +0.000 OA
ATOM     15  H   UNL     1      -0.307  13.273  23.225  0.00  0.00    +0.000 HD
ENDBRANCH  12  14
ENDBRANCH   9  12
ENDBRANCH   3   6
BRANCH   5  16
ATOM     16  C   UNL     1       3.198   4.290  18.541  0.00  0.00    +0.000 A 
ATOM     17  C   UNL     1       2.457   3.500  17.653  0.00  0.00    +0.000 A 
ATOM     18  C   UNL     1       2.633   2.113  17.617  0.00  0.00    +0.000 A 
ATOM     19  C   UNL     1       3.542   1.498  18.477  0.00  0.00    +0.000 A 
ATOM     20  C   UNL     1       4.275   2.278  19.361  0.00  0.00    +0.000 A 
ATOM     21  C   UNL     1       4.116   3.660  19.394  0.00  0.00    +0.000 A 
BRANCH  20  22
ATOM     22  O   UNL     1       5.168   1.726  20.230  0.00  0.00    +0.000 OA
ATOM     23  H   UNL     1       5.351   0.815  19.949  0.00  0.00    +0.000 HD
ENDBRANCH  20  22
ENDBRANCH   5  16
BRANCH   1  25
ATOM     24  N   UNL     1       5.156   6.688  15.818  0.00  0.00    +0.000 NA
ATOM     25  C   UNL     1       4.411   6.734  16.705  0.00  0.00    +0.000 C 
ENDBRANCH   1  25
TORSDOF 6
ENDMDL
MODEL 2
REMARK VINA RESULT:      -7.7      0.614      1.226
REMARK  Name = 
REMARK  6 active torsions:
REMARK  status: ('A' for Active; 'I' for Inactive)
REMARK    1  A    between atoms: C_2  and  C_3
REMARK    2  A    between atoms: N_5  and  C_6
REMARK    3  A    between atoms: C_9  and  C_10
REMARK    4  A    between atoms: C_10  and  O_12
REMARK    5  A    between atoms: C_16  and  C_17
REMARK    6  A    between atoms: C_21  and  O_22
REMARK                            x       y       z     vdW  Elec       q    Type
REMARK                         _______ _______ _______ _____ _____    ______ ____
ROOT
ATOM      1  C   UNL     1       3.710   6.754  17.601  0.00  0.00    +0.000 A 
ATOM      2  C   UNL     1       3.152   7.961  17.978  0.00  0.00    +0.000 A 
ATOM      3  N   UNL     1       2.241   7.745  18.993  0.00  0.00    +0.000 N 
ATOM      4  C   UNL     1       2.215   6.387  19.229  0.00  0.00    +0.000 A 
ATOM      5  C   UNL     1       3.105   5.741  18.391  0.00  0.00    +0.000 A 
ENDROOT
BRANCH   3   6
ATOM      6  C   UNL     1       1.469   8.733  19.681  0.00  0.00    +0.000 A 
ATOM      7  C   UNL     1       1.153   8.573  21.036  0.00  0.00    +0.000 A 
ATOM      8  C   UNL     1       0.399   9.545  21.703  0.00  0.00    +0.000 A 
ATOM      9  C   UNL     1      -0.059  10.681  21.026  0.00  0.00    +0.000 A 
ATOM     10  C   UNL     1       0.262  10.853  19.678  0.00  0.00    +0.000 A 
ATOM     11  C   UNL     1       1.020   9.883  19.010  0.00  0.00    +0.000 A 
BRANCH   9  12
ATOM     12  C   UNL     1      -0.828  11.686  21.804  0.00  0.00    +0.000 C 
ATOM     13  O   UNL     1      -1.618  12.452  21.280  0.00  0.00    +0.000 OA
BRANCH  12  14
ATOM     14  O   UNL     1      -0.553  11.706  23.125  0.00  0.00    +0.000 OA
ATOM     15  H   UNL     1      -1.157  12.237  23.675  0.00  0.00    +0.000 HD
ENDBRANCH  12  14
ENDBRANCH   9  12
ENDBRANCH   3   6
BRANCH   5  16
ATOM     16  C   UNL     1       3.271   4.290  18.409  0.00  0.00    +0.000 A 
ATOM     17  C   UNL     1       2.512   3.466  17.568  0.00  0.00    +0.000 A 
ATOM     18  C   UNL     1       2.659   2.076  17.612  0.00  0.00    +0.000 A 
ATOM     19  C   UNL     1       3.555   1.492  18.506  0.00  0.00    +0.000 A 
ATOM     20  C   UNL     1       4.306   2.307  19.344  0.00  0.00    +0.000 A 
ATOM     21  C   UNL     1       4.176   3.691  19.297  0.00  0.00    +0.000 A 
BRANCH  20  22
ATOM     22  O   UNL     1       5.188   1.787  20.243  0.00  0.00    +0.000 OA
ATOM     23  H   UNL     1       5.456   2.490  20.857  0.00  0.00    +0.000 HD
ENDBRANCH  20  22
ENDBRANCH   5  16
BRANCH   1  25
ATOM     24  N   UNL     1       5.526   6.503  15.771  0.00  0.00    +0.000 NA
ATOM     25  C   UNL     1       4.718   6.620  16.594  0.00  0.00    +0.000 C 
ENDBRANCH   1  25
TORSDOF 6
ENDMDL
MODEL 3
REMARK VINA RESULT:      -7.6      2.242      3.069
REMARK  Name = 
REMARK  6 active torsions:
REMARK  status: ('A' for Active; 'I' for Inactive)
REMARK    1  A    between atoms: C_2  and  C_3
REMARK    2  A    between atoms: N_5  and  C_6
REMARK    3  A    between atoms: C_9  and  C_10
REMARK    4  A    between atoms: C_10  and  O_12
REMARK    5  A    between atoms: C_16  and  C_17
REMARK    6  A    between atoms: C_21  and  O_22
REMARK                            x       y       z     vdW  Elec       q    Type
REMARK                         _______ _______ _______ _____ _____    ______ ____
ROOT
ATOM      1  C   UNL     1       2.673   4.746  18.148  0.00  0.00    +0.000 A 
ATOM      2  C   UNL     1       1.809   5.513  18.907  0.00  0.00    +0.000 A 
ATOM      3  N   UNL     1       2.314   6.794  19.017  0.00  0.00    +0.000 N 
ATOM      4  C   UNL     1       3.516   6.811  18.343  0.00  0.00    +0.000 A 
ATOM      5  C   UNL     1       3.774   5.569  17.794  0.00  0.00    +0.000 A 
ENDROOT
BRANCH   3   6
ATOM      6  C   UNL     1       1.713   7.900  19.694  0.00  0.00    +0.000 A 
ATOM      7  C   UNL     1       1.455   9.097  19.013  0.00  0.00    +0.000 A 
ATOM      8  C   UNL     1       0.864  10.174  19.683  0.00  0.00    +0.000 A 
ATOM      9  C   UNL     1       0.535  10.079  21.039  0.00  0.00    +0.000 A 
ATOM     10  C   UNL     1       0.778   8.884  21.721  0.00  0.00    +0.000 A 
ATOM     11  C   UNL     1       1.366   7.804  21.053  0.00  0.00    +0.000 A 
BRANCH   9  12
ATOM     12  C   UNL     1      -0.117  11.251  21.677  0.00  0.00    +0.000 C 
ATOM     13  O   UNL     1      -0.420  12.251  21.050  0.00  0.00    +0.000 OA
BRANCH  12  14
ATOM     14  O   UNL     1      -0.308  11.134  23.007  0.00  0.00    +0.000 OA
ATOM     15  H   UNL     1      -0.371  11.971  23.501  0.00  0.00    +0.000 HD
ENDBRANCH  12  14
ENDBRANCH   9  12
ENDBRANCH   3   6
BRANCH   5  16
ATOM     16  C   UNL     1       4.993   5.294  17.039  0.00  0.00    +0.000 A 
ATOM     17  C   UNL     1       5.040   5.476  15.651  0.00  0.00    +0.000 A 
ATOM     18  C   UNL     1       6.204   5.182  14.934  0.00  0.00    +0.000 A 
ATOM     19  C   UNL     1       7.331   4.692  15.593  0.00  0.00    +0.000 A 
ATOM     20  C   UNL     1       7.286   4.507  16.968  0.00  0.00    +0.000 A 
ATOM     21  C   UNL     1       6.136   4.809  17.691  0.00  0.00    +0.000 A 
BRANCH  20  22
ATOM     22  O   UNL     1       8.355   4.021  17.659  0.00  0.00    +0.000 OA
ATOM     23  H   UNL     1       8.429   3.069  17.486  0.00  0.00    +0.000 HD
ENDBRANCH  20  22
ENDBRANCH   5  16
BRANCH   1  25
ATOM     24  N   UNL     1       2.228   2.267  17.538  0.00  0.00    +0.000 NA
ATOM     25  C   UNL     1       2.435   3.375  17.811  0.00  0.00    +0.000 C 
ENDBRANCH   1  25
TORSDOF 6
ENDMDL
MODEL 4
REMARK VINA RESULT:      -7.4      2.240      3.182
REMARK  Name = 
REMARK  6 active torsions:
REMARK  status: ('A' for Active; 'I' for Inactive)
REMARK    1  A    between atoms: C_2  and  C_3
REMARK    2  A    between atoms: N_5  and  C_6
REMARK    3  A    between atoms: C_9  and  C_10
REMARK    4  A    between atoms: C_10  and  O_12
REMARK    5  A    between atoms: C_16  and  C_17
REMARK    6  A    between atoms: C_21  and  O_22
REMARK                            x       y       z     vdW  Elec       q    Type
REMARK                         _______ _______ _______ _____ _____    ______ ____
ROOT
ATOM      1  C   UNL     1       2.895   4.637  18.810  0.00  0.00    +0.000 A 
ATOM      2  C   UNL     1       2.022   5.416  19.546  0.00  0.00    +0.000 A 
ATOM      3  N   UNL     1       2.350   6.747  19.382  0.00  0.00    +0.000 N 
ATOM      4  C   UNL     1       3.455   6.791  18.560  0.00  0.00    +0.000 A 
ATOM      5  C   UNL     1       3.822   5.511  18.186  0.00  0.00    +0.000 A 
ENDROOT
BRANCH   3   6
ATOM      6  C   UNL     1       1.679   7.875  19.950  0.00  0.00    +0.000 A 
ATOM      7  C   UNL     1       1.217   7.838  21.272  0.00  0.00    +0.000 A 
ATOM      8  C   UNL     1       0.564   8.947  21.821  0.00  0.00    +0.000 A 
ATOM      9  C   UNL     1       0.351  10.100  21.058  0.00  0.00    +0.000 A 
ATOM     10  C   UNL     1       0.819  10.149  19.743  0.00  0.00    +0.000 A 
ATOM     11  C   UNL     1       1.477   9.042  19.193  0.00  0.00    +0.000 A 
BRANCH   9  12
ATOM     12  C   UNL     1      -0.323  11.249  21.715  0.00  0.00    +0.000 C 
ATOM     13  O   UNL     1      -0.403  11.353  22.926  0.00  0.00    +0.000 OA
BRANCH  12  14
ATOM     14  O   UNL     1      -0.870  12.142  20.865  0.00  0.00    +0.000 OA
ATOM     15  H   UNL     1      -1.791  12.398  21.053  0.00  0.00    +0.000 HD
ENDBRANCH  12  14
ENDBRANCH   9  12
ENDBRANCH   3   6
BRANCH   5  16
ATOM     16  C   UNL     1       4.976   5.257  17.328  0.00  0.00    +0.000 A 
ATOM     17  C   UNL     1       4.905   5.457  15.944  0.00  0.00    +0.000 A 
ATOM     18  C   UNL     1       6.008   5.183  15.127  0.00  0.00    +0.000 A 
ATOM     19  C   UNL     1       7.189   4.695  15.683  0.00  0.00    +0.000 A 
ATOM     20  C   UNL     1       7.261   4.492  17.055  0.00  0.00    +0.000 A 
ATOM     21  C   UNL     1       6.174   4.773  17.876  0.00  0.00    +0.000 A 
BRANCH  20  22
ATOM     22  O   UNL     1       8.388   4.005  17.647  0.00  0.00    +0.000 OA
ATOM     23  H   UNL     1       8.897   3.510  16.986  0.00  0.00    +0.000 HD
ENDBRANCH  20  22
ENDBRANCH   5  16
BRANCH   1  25
ATOM     24  N   UNL     1       2.741   2.055  18.672  0.00  0.00    +0.000 NA
ATOM     25  C   UNL     1       2.817   3.210  18.730  0.00  0.00    +0.000 C 
ENDBRANCH   1  25
TORSDOF 6
ENDMDL
MODEL 5
REMARK VINA RESULT:      -7.4      2.203      3.041
REMARK  Name = 
REMARK  6 active torsions:
REMARK  status: ('A' for Active; 'I' for Inactive)
REMARK    1  A    between atoms: C_2  and  C_3
REMARK    2  A    between atoms: N_5  and  C_6
REMARK    3  A    between atoms: C_9  and  C_10
REMARK    4  A    between atoms: C_10  and  O_12
REMARK    5  A    between atoms: C_16  and  C_17
REMARK    6  A    between atoms: C_21  and  O_22
REMARK                            x       y       z     vdW  Elec       q    Type
REMARK                         _______ _______ _______ _____ _____    ______ ____
ROOT
ATOM      1  C   UNL     1       3.196   4.866  19.468  0.00  0.00    +0.000 A 
ATOM      2  C   UNL     1       2.304   5.686  20.135  0.00  0.00    +0.000 A 
ATOM      3  N   UNL     1       2.407   6.970  19.638  0.00  0.00    +0.000 N 
ATOM      4  C   UNL     1       3.392   6.951  18.673  0.00  0.00    +0.000 A 
ATOM      5  C   UNL     1       3.903   5.673  18.539  0.00  0.00    +0.000 A 
ENDROOT
BRANCH   3   6
ATOM      6  C   UNL     1       1.642   8.111  20.036  0.00  0.00    +0.000 A 
ATOM      7  C   UNL     1       1.399   9.155  19.134  0.00  0.00    +0.000 A 
ATOM      8  C   UNL     1       0.646  10.266  19.531  0.00  0.00    +0.000 A 
ATOM      9  C   UNL     1       0.139  10.358  20.831  0.00  0.00    +0.000 A 
ATOM     10  C   UNL     1       0.367   9.315  21.732  0.00  0.00    +0.000 A 
ATOM     11  C   UNL     1       1.116   8.200  21.336  0.00  0.00    +0.000 A 
BRANCH   9  12
ATOM     12  C   UNL     1      -0.676  11.552  21.173  0.00  0.00    +0.000 C 
ATOM     13  O   UNL     1      -1.668  11.868  20.539  0.00  0.00    +0.000 OA
BRANCH  12  14
ATOM     14  O   UNL     1      -0.208  12.274  22.211  0.00  0.00    +0.000 OA
ATOM     15  H   UNL     1       0.747  12.198  22.385  0.00  0.00    +0.000 HD
ENDBRANCH  12  14
ENDBRANCH   9  12
ENDBRANCH   3   6
BRANCH   5  16
ATOM     16  C   UNL     1       4.977   5.364  17.600  0.00  0.00    +0.000 A 
ATOM     17  C   UNL     1       4.801   5.533  16.221  0.00  0.00    +0.000 A 
ATOM     18  C   UNL     1       5.826   5.207  15.326  0.00  0.00    +0.000 A 
ATOM     19  C   UNL     1       7.035   4.698  15.799  0.00  0.00    +0.000 A 
ATOM     20  C   UNL     1       7.211   4.527  17.166  0.00  0.00    +0.000 A 
ATOM     21  C   UNL     1       6.202   4.860  18.063  0.00  0.00    +0.000 A 
BRANCH  20  22
ATOM     22  O   UNL     1       8.369   4.023  17.680  0.00  0.00    +0.000 OA
ATOM     23  H   UNL     1       8.164   3.555  18.505  0.00  0.00    +0.000 HD
ENDBRANCH  20  22
ENDBRANCH   5  16
BRANCH   1  25
ATOM     24  N   UNL     1       3.446   2.327  19.917  0.00  0.00    +0.000 NA
ATOM     25  C   UNL     1       3.326   3.462  19.714  0.00  0.00    +0.000 C 
ENDBRANCH   1  25
TORSDOF 6
ENDMDL
MODEL 6
REMARK VINA RESULT:      -7.4      2.356      8.439
REMARK  Name = 
REMARK  6 active torsions:
REMARK  status: ('A' for Active; 'I' for Inactive)
REMARK    1  A    between atoms: C_2  and  C_3
REMARK    2  A    between atoms: N_5  and  C_6
REMARK    3  A    between atoms: C_9  and  C_10
REMARK    4  A    between atoms: C_10  and  O_12
REMARK    5  A    between atoms: C_16  and  C_17
REMARK    6  A    between atoms: C_21  and  O_22
REMARK                            x       y       z     vdW  Elec       q    Type
REMARK                         _______ _______ _______ _____ _____    ______ ____
ROOT
ATOM      1  C   UNL     1       0.604   9.241  21.426  0.00  0.00    +0.000 A 
ATOM      2  C   UNL     1       1.110   7.957  21.522  0.00  0.00    +0.000 A 
ATOM      3  N   UNL     1       1.606   7.570  20.293  0.00  0.00    +0.000 N 
ATOM      4  C   UNL     1       1.380   8.614  19.421  0.00  0.00    +0.000 A 
ATOM      5  C   UNL     1       0.764   9.662  20.081  0.00  0.00    +0.000 A 
ENDROOT
BRANCH   3   6
ATOM      6  C   UNL     1       2.238   6.329  19.973  0.00  0.00    +0.000 A 
ATOM      7  C   UNL     1       1.927   5.165  20.689  0.00  0.00    +0.000 A 
ATOM      8  C   UNL     1       2.548   3.954  20.367  0.00  0.00    +0.000 A 
ATOM      9  C   UNL     1       3.495   3.887  19.340  0.00  0.00    +0.000 A 
ATOM     10  C   UNL     1       3.802   5.040  18.614  0.00  0.00    +0.000 A 
ATOM     11  C   UNL     1       3.178   6.253  18.930  0.00  0.00    +0.000 A 
BRANCH   9  12
ATOM     12  C   UNL     1       4.092   2.562  19.034  0.00  0.00    +0.000 C 
ATOM     13  O   UNL     1       3.598   1.794  18.227  0.00  0.00    +0.000 OA
BRANCH  12  14
ATOM     14  O   UNL     1       5.197   2.264  19.747  0.00  0.00    +0.000 OA
ATOM     15  H   UNL     1       5.382   2.846  20.506  0.00  0.00    +0.000 HD
ENDBRANCH  12  14
ENDBRANCH   9  12
ENDBRANCH   3   6
BRANCH   5  16
ATOM     16  C   UNL     1       0.388  10.894  19.394  0.00  0.00    +0.000 A 
ATOM     17  C   UNL     1       1.247  12.000  19.372  0.00  0.00    +0.000 A 
ATOM     18  C   UNL     1       0.866  13.186  18.736  0.00  0.00    +0.000 A 
ATOM     19  C   UNL     1      -0.383  13.284  18.124  0.00  0.00    +0.000 A 
ATOM     20  C   UNL     1      -1.238  12.190  18.147  0.00  0.00    +0.000 A 
ATOM     21  C   UNL     1      -0.862  11.003  18.767  0.00  0.00    +0.000 A 
BRANCH  20  22
ATOM     22  O   UNL     1      -2.474  12.238  17.574  0.00  0.00    +0.000 OA
ATOM     23  H   UNL     1      -2.510  11.582  16.860  0.00  0.00    +0.000 HD
ENDBRANCH  20  22
ENDBRANCH   5  16
BRANCH   1  25
ATOM     24  N   UNL     1      -0.423  10.550  23.412  0.00  0.00    +0.000 NA
ATOM     25  C   UNL     1       0.042   9.960  22.528  0.00  0.00    +0.000 C 
ENDBRANCH   1  25
TORSDOF 6
ENDMDL
MODEL 7
REMARK VINA RESULT:      -7.3      2.375      8.391
REMARK  Name = 
REMARK  6 active torsions:
REMARK  status: ('A' for Active; 'I' for Inactive)
REMARK    1  A    between atoms: C_2  and  C_3
REMARK    2  A    between atoms: N_5  and  C_6
REMARK    3  A    between atoms: C_9  and  C_10
REMARK    4  A    between atoms: C_10  and  O_12
REMARK    5  A    between atoms: C_16  and  C_17
REMARK    6  A    between atoms: C_21  and  O_22
REMARK                            x       y       z     vdW  Elec       q    Type
REMARK                         _______ _______ _______ _____ _____    ______ ____
ROOT
ATOM      1  C   UNL     1       0.586   9.246  21.438  0.00  0.00    +0.000 A 
ATOM      2  C   UNL     1       1.080   7.958  21.534  0.00  0.00    +0.000 A 
ATOM      3  N   UNL     1       1.574   7.568  20.305  0.00  0.00    +0.000 N 
ATOM      4  C   UNL     1       1.359   8.614  19.434  0.00  0.00    +0.000 A 
ATOM      5  C   UNL     1       0.752   9.667  20.093  0.00  0.00    +0.000 A 
ENDROOT
BRANCH   3   6
ATOM      6  C   UNL     1       2.196   6.321  19.985  0.00  0.00    +0.000 A 
ATOM      7  C   UNL     1       3.136   6.239  18.950  0.00  0.00    +0.000 A 
ATOM      8  C   UNL     1       3.742   5.015  18.645  0.00  0.00    +0.000 A 
ATOM      9  C   UNL     1       3.411   3.857  19.357  0.00  0.00    +0.000 A 
ATOM     10  C   UNL     1       2.484   3.934  20.399  0.00  0.00    +0.000 A 
ATOM     11  C   UNL     1       1.880   5.158  20.708  0.00  0.00    +0.000 A 
BRANCH   9  12
ATOM     12  C   UNL     1       4.116   2.600  18.998  0.00  0.00    +0.000 C 
ATOM     13  O   UNL     1       3.689   1.829  18.157  0.00  0.00    +0.000 OA
BRANCH  12  14
ATOM     14  O   UNL     1       5.241   2.364  19.704  0.00  0.00    +0.000 OA
ATOM     15  H   UNL     1       5.866   3.109  19.768  0.00  0.00    +0.000 HD
ENDBRANCH  12  14
ENDBRANCH   9  12
ENDBRANCH   3   6
BRANCH   5  16
ATOM     16  C   UNL     1       0.388  10.903  19.407  0.00  0.00    +0.000 A 
ATOM     17  C   UNL     1       1.239  12.015  19.423  0.00  0.00    +0.000 A 
ATOM     18  C   UNL     1       0.869  13.205  18.786  0.00  0.00    +0.000 A 
ATOM     19  C   UNL     1      -0.361  13.300  18.136  0.00  0.00    +0.000 A 
ATOM     20  C   UNL     1      -1.208  12.199  18.121  0.00  0.00    +0.000 A 
ATOM     21  C   UNL     1      -0.842  11.009  18.741  0.00  0.00    +0.000 A 
BRANCH  20  22
ATOM     22  O   UNL     1      -2.425  12.243  17.510  0.00  0.00    +0.000 OA
ATOM     23  H   UNL     1      -2.329  11.911  16.603  0.00  0.00    +0.000 HD
ENDBRANCH  20  22
ENDBRANCH   5  16
BRANCH   1  25
ATOM     24  N   UNL     1      -0.432  10.565  23.423  0.00  0.00    +0.000 NA
ATOM     25  C   UNL     1       0.028   9.971  22.540  0.00  0.00    +0.000 C 
ENDBRANCH   1  25
TORSDOF 6
ENDMDL
MODEL 8
REMARK VINA RESULT:      -7.2      2.712      8.662
REMARK  Name = 
REMARK  6 active torsions:
REMARK  status: ('A' for Active; 'I' for Inactive)
REMARK    1  A    between atoms: C_2  and  C_3
REMARK    2  A    between atoms: N_5  and  C_6
REMARK    3  A    between atoms: C_9  and  C_10
REMARK    4  A    between atoms: C_10  and  O_12
REMARK    5  A    between atoms: C_16  and  C_17
REMARK    6  A    between atoms: C_21  and  O_22
REMARK                            x       y       z     vdW  Elec       q    Type
REMARK                         _______ _______ _______ _____ _____    ______ ____
ROOT
ATOM      1  C   UNL     1       1.237   8.597  20.055  0.00  0.00    +0.000 A 
ATOM      2  C   UNL     1       2.027   7.501  19.759  0.00  0.00    +0.000 A 
ATOM      3  N   UNL     1       2.613   7.683  18.522  0.00  0.00    +0.000 N 
ATOM      4  C   UNL     1       2.159   8.889  18.035  0.00  0.00    +0.000 A 
ATOM      5  C   UNL     1       1.308   9.483  18.949  0.00  0.00    +0.000 A 
ENDROOT
BRANCH   3   6
ATOM      6  C   UNL     1       3.522   6.798  17.863  0.00  0.00    +0.000 A 
ATOM      7  C   UNL     1       4.560   7.304  17.070  0.00  0.00    +0.000 A 
ATOM      8  C   UNL     1       5.447   6.431  16.431  0.00  0.00    +0.000 A 
ATOM      9  C   UNL     1       5.305   5.046  16.561  0.00  0.00    +0.000 A 
ATOM     10  C   UNL     1       4.279   4.534  17.360  0.00  0.00    +0.000 A 
ATOM     11  C   UNL     1       3.393   5.405  18.004  0.00  0.00    +0.000 A 
BRANCH   9  12
ATOM     12  C   UNL     1       6.300   4.181  15.878  0.00  0.00    +0.000 C 
ATOM     13  O   UNL     1       7.382   4.600  15.504  0.00  0.00    +0.000 OA
BRANCH  12  14
ATOM     14  O   UNL     1       5.896   2.911  15.673  0.00  0.00    +0.000 OA
ATOM     15  H   UNL     1       6.472   2.369  15.104  0.00  0.00    +0.000 HD
ENDBRANCH  12  14
ENDBRANCH   9  12
ENDBRANCH   3   6
BRANCH   5  16
ATOM     16  C   UNL     1       0.662  10.765  18.685  0.00  0.00    +0.000 A 
ATOM     17  C   UNL     1       1.357  11.971  18.845  0.00  0.00    +0.000 A 
ATOM     18  C   UNL     1       0.720  13.196  18.616  0.00  0.00    +0.000 A 
ATOM     19  C   UNL     1      -0.621  13.230  18.237  0.00  0.00    +0.000 A 
ATOM     20  C   UNL     1      -1.313  12.036  18.082  0.00  0.00    +0.000 A 
ATOM     21  C   UNL     1      -0.685  10.814  18.294  0.00  0.00    +0.000 A 
BRANCH  20  22
ATOM     22  O   UNL     1      -2.629  12.014  17.724  0.00  0.00    +0.000 OA
ATOM     23  H   UNL     1      -2.686  12.044  16.755  0.00  0.00    +0.000 HD
ENDBRANCH  20  22
ENDBRANCH   5  16
BRANCH   1  25
ATOM     24  N   UNL     1      -0.087   8.883  22.263  0.00  0.00    +0.000 NA
ATOM     25  C   UNL     1       0.509   8.749  21.278  0.00  0.00    +0.000 C 
ENDBRANCH   1  25
TORSDOF 6
ENDMDL
MODEL 9
REMARK VINA RESULT:      -7.2      2.321      3.333
REMARK  Name = 
REMARK  6 active torsions:
REMARK  status: ('A' for Active; 'I' for Inactive)
REMARK    1  A    between atoms: C_2  and  C_3
REMARK    2  A    between atoms: N_5  and  C_6
REMARK    3  A    between atoms: C_9  and  C_10
REMARK    4  A    between atoms: C_10  and  O_12
REMARK    5  A    between atoms: C_16  and  C_17
REMARK    6  A    between atoms: C_21  and  O_22
REMARK                            x       y       z     vdW  Elec       q    Type
REMARK                         _______ _______ _______ _____ _____    ______ ____
ROOT
ATOM      1  C   UNL     1       3.014   4.949  19.571  0.00  0.00    +0.000 A 
ATOM      2  C   UNL     1       2.165   5.748  20.315  0.00  0.00    +0.000 A 
ATOM      3  N   UNL     1       2.189   7.033  19.809  0.00  0.00    +0.000 N 
ATOM      4  C   UNL     1       3.082   7.036  18.759  0.00  0.00    +0.000 A 
ATOM      5  C   UNL     1       3.613   5.771  18.581  0.00  0.00    +0.000 A 
ENDROOT
BRANCH   3   6
ATOM      6  C   UNL     1       1.433   8.154  20.274  0.00  0.00    +0.000 A 
ATOM      7  C   UNL     1       0.956   8.195  21.590  0.00  0.00    +0.000 A 
ATOM      8  C   UNL     1       0.220   9.297  22.038  0.00  0.00    +0.000 A 
ATOM      9  C   UNL     1      -0.062  10.364  21.179  0.00  0.00    +0.000 A 
ATOM     10  C   UNL     1       0.421  10.336  19.869  0.00  0.00    +0.000 A 
ATOM     11  C   UNL     1       1.162   9.237  19.420  0.00  0.00    +0.000 A 
BRANCH   9  12
ATOM     12  C   UNL     1      -0.822  11.514  21.732  0.00  0.00    +0.000 C 
ATOM     13  O   UNL     1      -1.597  12.170  21.056  0.00  0.00    +0.000 OA
BRANCH  12  14
ATOM     14  O   UNL     1      -0.559  11.796  23.024  0.00  0.00    +0.000 OA
ATOM     15  H   UNL     1       0.065  11.196  23.470  0.00  0.00    +0.000 HD
ENDBRANCH  12  14
ENDBRANCH   9  12
ENDBRANCH   3   6
BRANCH   5  16
ATOM     16  C   UNL     1       4.605   5.487  17.548  0.00  0.00    +0.000 A 
ATOM     17  C   UNL     1       4.461   4.388  16.692  0.00  0.00    +0.000 A 
ATOM     18  C   UNL     1       5.432   4.108  15.724  0.00  0.00    +0.000 A 
ATOM     19  C   UNL     1       6.562   4.916  15.608  0.00  0.00    +0.000 A 
ATOM     20  C   UNL     1       6.709   6.004  16.458  0.00  0.00    +0.000 A 
ATOM     21  C   UNL     1       5.742   6.297  17.415  0.00  0.00    +0.000 A 
BRANCH  20  22
ATOM     22  O   UNL     1       7.799   6.819  16.395  0.00  0.00    +0.000 OA
ATOM     23  H   UNL     1       8.581   6.313  16.669  0.00  0.00    +0.000 HD
ENDBRANCH  20  22
ENDBRANCH   5  16
BRANCH   1  25
ATOM     24  N   UNL     1       3.364   2.420  20.008  0.00  0.00    +0.000 NA
ATOM     25  C   UNL     1       3.203   3.550  19.806  0.00  0.00    +0.000 C 
ENDBRANCH   1  25
TORSDOF 6
ENDMDL
