MODEL 1
REMARK VINA RESULT:      -6.9      0.000      0.000
REMARK  Name = 
REMARK  2 active torsions:
REMARK  status: ('A' for Active; 'I' for Inactive)
REMARK    1  A    between atoms: N_5  and  C_6
REMARK    2  A    between atoms: C_13  and  C_14
REMARK                            x       y       z     vdW  Elec       q    Type
REMARK                         _______ _______ _______ _____ _____    ______ ____
ROOT
ATOM      1  O   UNL     1       1.738   9.612  17.481  0.00  0.00    +0.000 OA
ATOM      2  C   UNL     1       1.663   9.108  18.589  0.00  0.00    +0.000 C 
ATOM      3  N   UNL     1       1.071   9.679  19.673  0.00  0.00    +0.000 N 
ATOM      4  C   UNL     1       1.128   9.024  20.863  0.00  0.00    +0.000 C 
ATOM      5  N   UNL     1       0.702   9.423  22.011  0.00  0.00    +0.000 NA
ATOM      6  S   UNL     1       1.921   7.478  20.645  0.00  0.00    +0.000 S 
ATOM      7  C   UNL     1       2.229   7.792  18.976  0.00  0.00    +0.000 C 
ATOM      8  C   UNL     1       2.882   7.032  18.088  0.00  0.00    +0.000 C 
ATOM      9  H   UNL     1       0.640  10.595  19.617  0.00  0.00    +0.000 HD
ENDROOT
BRANCH   8  10
ATOM     10  C   UNL     1       3.468   5.715  18.363  0.00  0.00    +0.000 A 
ATOM     11  C   UNL     1       4.772   5.674  18.878  0.00  0.00    +0.000 A 
ATOM     12  C   UNL     1       5.393   4.453  19.133  0.00  0.00    +0.000 A 
ATOM     13  C   UNL     1       4.715   3.262  18.875  0.00  0.00    +0.000 A 
ATOM     14  C   UNL     1       3.413   3.287  18.367  0.00  0.00    +0.000 A 
ATOM     15 CL   UNL     1       2.645   1.764  18.077  0.00  0.00    +0.000 Cl
ATOM     16  C   UNL     1       2.780   4.512  18.107  0.00  0.00    +0.000 A 
ATOM     17 CL   UNL     1       1.167   4.559  17.463  0.00  0.00    +0.000 Cl
ENDBRANCH   8  10
BRANCH   5  18
ATOM     18  C   UNL     1       0.128  10.653  22.077  0.00  0.00    +0.000 A 
ATOM     19  N   UNL     1       0.548  11.770  21.505  0.00  0.00    +0.000 NA
ATOM     20  C   UNL     1      -0.289  12.822  21.813  0.00  0.00    +0.000 A 
ATOM     21  C   UNL     1      -1.351  12.513  22.628  0.00  0.00    +0.000 A 
ATOM     22  S   UNL     1      -1.308  10.847  23.022  0.00  0.00    +0.000 S 
ENDBRANCH   5  18
TORSDOF 2
ENDMDL
MODEL 2
REMARK VINA RESULT:      -6.7      4.821      5.821
REMARK  Name = 
REMARK  2 active torsions:
REMARK  status: ('A' for Active; 'I' for Inactive)
REMARK    1  A    between atoms: N_5  and  C_6
REMARK    2  A    between atoms: C_13  and  C_14
REMARK                            x       y       z     vdW  Elec       q    Type
REMARK                         _______ _______ _______ _____ _____    ______ ____
ROOT
ATOM      1  O   UNL     1      -1.349  13.261  19.737  0.00  0.00    +0.000 OA
ATOM      2  C   UNL     1      -1.779  12.294  19.131  0.00  0.00    +0.000 C 
ATOM      3  N   UNL     1      -3.032  12.185  18.613  0.00  0.00    +0.000 N 
ATOM      4  C   UNL     1      -3.392  11.014  18.023  0.00  0.00    +0.000 C 
ATOM      5  N   UNL     1      -4.541  10.685  17.544  0.00  0.00    +0.000 NA
ATOM      6  S   UNL     1      -2.024   9.920  18.009  0.00  0.00    +0.000 S 
ATOM      7  C   UNL     1      -1.031  11.038  18.872  0.00  0.00    +0.000 C 
ATOM      8  C   UNL     1       0.229  10.884  19.298  0.00  0.00    +0.000 C 
ATOM      9  H   UNL     1      -3.708  12.936  18.705  0.00  0.00    +0.000 HD
ENDROOT
BRANCH   8  10
ATOM     10  C   UNL     1       1.059   9.692  19.084  0.00  0.00    +0.000 A 
ATOM     11  C   UNL     1       1.848   9.644  17.925  0.00  0.00    +0.000 A 
ATOM     12  C   UNL     1       2.635   8.527  17.654  0.00  0.00    +0.000 A 
ATOM     13  C   UNL     1       2.640   7.449  18.537  0.00  0.00    +0.000 A 
ATOM     14  C   UNL     1       1.863   7.485  19.699  0.00  0.00    +0.000 A 
ATOM     15 CL   UNL     1       1.929   6.105  20.740  0.00  0.00    +0.000 Cl
ATOM     16  C   UNL     1       1.067   8.606  19.981  0.00  0.00    +0.000 A 
ATOM     17 CL   UNL     1       0.086   8.659  21.414  0.00  0.00    +0.000 Cl
ENDBRANCH   8  10
BRANCH   5  18
ATOM     18  C   UNL     1      -5.544  11.597  17.633  0.00  0.00    +0.000 A 
ATOM     19  N   UNL     1      -5.719  12.679  16.891  0.00  0.00    +0.000 NA
ATOM     20  C   UNL     1      -6.845  13.369  17.288  0.00  0.00    +0.000 A 
ATOM     21  C   UNL     1      -7.532  12.818  18.344  0.00  0.00    +0.000 A 
ATOM     22  S   UNL     1      -6.749  11.384  18.855  0.00  0.00    +0.000 S 
ENDBRANCH   5  18
TORSDOF 2
ENDMDL
MODEL 3
REMARK VINA RESULT:      -6.7      1.574      2.040
REMARK  Name = 
REMARK  2 active torsions:
REMARK  status: ('A' for Active; 'I' for Inactive)
REMARK    1  A    between atoms: N_5  and  C_6
REMARK    2  A    between atoms: C_13  and  C_14
REMARK                            x       y       z     vdW  Elec       q    Type
REMARK                         _______ _______ _______ _____ _____    ______ ____
ROOT
ATOM      1  O   UNL     1       2.436   8.995  17.207  0.00  0.00    +0.000 OA
ATOM      2  C   UNL     1       2.014   8.627  18.291  0.00  0.00    +0.000 C 
ATOM      3  N   UNL     1       1.494   9.441  19.249  0.00  0.00    +0.000 N 
ATOM      4  C   UNL     1       1.128   8.893  20.439  0.00  0.00    +0.000 C 
ATOM      5  N   UNL     1       0.691   9.494  21.491  0.00  0.00    +0.000 NA
ATOM      6  S   UNL     1       1.356   7.157  20.379  0.00  0.00    +0.000 S 
ATOM      7  C   UNL     1       2.016   7.227  18.786  0.00  0.00    +0.000 C 
ATOM      8  C   UNL     1       2.495   6.229  18.034  0.00  0.00    +0.000 C 
ATOM      9  H   UNL     1       1.424  10.443  19.109  0.00  0.00    +0.000 HD
ENDROOT
BRANCH   8  10
ATOM     10  C   UNL     1       2.533   4.814  18.421  0.00  0.00    +0.000 A 
ATOM     11  C   UNL     1       1.426   4.017  18.094  0.00  0.00    +0.000 A 
ATOM     12  C   UNL     1       1.391   2.673  18.461  0.00  0.00    +0.000 A 
ATOM     13  C   UNL     1       2.461   2.115  19.157  0.00  0.00    +0.000 A 
ATOM     14  C   UNL     1       3.574   2.896  19.485  0.00  0.00    +0.000 A 
ATOM     15 CL   UNL     1       4.858   2.123  20.350  0.00  0.00    +0.000 Cl
ATOM     16  C   UNL     1       3.618   4.250  19.120  0.00  0.00    +0.000 A 
ATOM     17 CL   UNL     1       4.988   5.236  19.533  0.00  0.00    +0.000 Cl
ENDBRANCH   8  10
BRANCH   5  18
ATOM     18  C   UNL     1       0.580  10.848  21.441  0.00  0.00    +0.000 A 
ATOM     19  N   UNL     1       1.491  11.717  21.034  0.00  0.00    +0.000 NA
ATOM     20  C   UNL     1       1.019  13.008  21.144  0.00  0.00    +0.000 A 
ATOM     21  C   UNL     1      -0.256  13.130  21.644  0.00  0.00    +0.000 A 
ATOM     22  S   UNL     1      -0.892  11.577  21.984  0.00  0.00    +0.000 S 
ENDBRANCH   5  18
TORSDOF 2
ENDMDL
MODEL 4
REMARK VINA RESULT:      -6.5      2.692      3.270
REMARK  Name = 
REMARK  2 active torsions:
REMARK  status: ('A' for Active; 'I' for Inactive)
REMARK    1  A    between atoms: N_5  and  C_6
REMARK    2  A    between atoms: C_13  and  C_14
REMARK                            x       y       z     vdW  Elec       q    Type
REMARK                         _______ _______ _______ _____ _____    ______ ____
ROOT
ATOM      1  O   UNL     1       1.652   6.156  20.845  0.00  0.00    +0.000 OA
ATOM      2  C   UNL     1       2.048   6.868  19.937  0.00  0.00    +0.000 C 
ATOM      3  N   UNL     1       1.454   8.021  19.527  0.00  0.00    +0.000 N 
ATOM      4  C   UNL     1       1.972   8.671  18.451  0.00  0.00    +0.000 C 
ATOM      5  N   UNL     1       1.520   9.725  17.864  0.00  0.00    +0.000 NA
ATOM      6  S   UNL     1       3.414   7.842  17.903  0.00  0.00    +0.000 S 
ATOM      7  C   UNL     1       3.232   6.596  19.083  0.00  0.00    +0.000 C 
ATOM      8  C   UNL     1       3.984   5.505  19.273  0.00  0.00    +0.000 C 
ATOM      9  H   UNL     1       0.613   8.369  19.974  0.00  0.00    +0.000 HD
ENDROOT
BRANCH   8  10
ATOM     10  C   UNL     1       5.178   5.150  18.497  0.00  0.00    +0.000 A 
ATOM     11  C   UNL     1       6.431   5.474  19.040  0.00  0.00    +0.000 A 
ATOM     12  C   UNL     1       7.600   5.187  18.337  0.00  0.00    +0.000 A 
ATOM     13  C   UNL     1       7.526   4.576  17.086  0.00  0.00    +0.000 A 
ATOM     14  C   UNL     1       6.285   4.243  16.535  0.00  0.00    +0.000 A 
ATOM     15 CL   UNL     1       6.286   3.486  14.980  0.00  0.00    +0.000 Cl
ATOM     16  C   UNL     1       5.103   4.527  17.235  0.00  0.00    +0.000 A 
ATOM     17 CL   UNL     1       3.553   4.131  16.558  0.00  0.00    +0.000 Cl
ENDBRANCH   8  10
BRANCH   5  18
ATOM     18  C   UNL     1       0.376  10.274  18.351  0.00  0.00    +0.000 A 
ATOM     19  N   UNL     1      -0.868   9.983  18.007  0.00  0.00    +0.000 NA
ATOM     20  C   UNL     1      -1.765  10.760  18.708  0.00  0.00    +0.000 A 
ATOM     21  C   UNL     1      -1.207  11.656  19.589  0.00  0.00    +0.000 A 
ATOM     22  S   UNL     1       0.499  11.519  19.545  0.00  0.00    +0.000 S 
ENDBRANCH   5  18
TORSDOF 2
ENDMDL
MODEL 5
REMARK VINA RESULT:      -6.5      2.040      2.369
REMARK  Name = 
REMARK  2 active torsions:
REMARK  status: ('A' for Active; 'I' for Inactive)
REMARK    1  A    between atoms: N_5  and  C_6
REMARK    2  A    between atoms: C_13  and  C_14
REMARK                            x       y       z     vdW  Elec       q    Type
REMARK                         _______ _______ _______ _____ _____    ______ ____
ROOT
ATOM      1  O   UNL     1       2.422   8.722  17.335  0.00  0.00    +0.000 OA
ATOM      2  C   UNL     1       2.000   8.647  18.477  0.00  0.00    +0.000 C 
ATOM      3  N   UNL     1       1.512   9.689  19.204  0.00  0.00    +0.000 N 
ATOM      4  C   UNL     1       1.143   9.464  20.493  0.00  0.00    +0.000 C 
ATOM      5  N   UNL     1       0.733  10.320  21.364  0.00  0.00    +0.000 NA
ATOM      6  S   UNL     1       1.322   7.762  20.866  0.00  0.00    +0.000 S 
ATOM      7  C   UNL     1       1.968   7.415  19.304  0.00  0.00    +0.000 C 
ATOM      8  C   UNL     1       2.412   6.248  18.822  0.00  0.00    +0.000 C 
ATOM      9  H   UNL     1       1.469  10.626  18.820  0.00  0.00    +0.000 HD
ENDROOT
BRANCH   8  10
ATOM     10  C   UNL     1       2.413   4.972  19.549  0.00  0.00    +0.000 A 
ATOM     11  C   UNL     1       1.236   4.597  20.214  0.00  0.00    +0.000 A 
ATOM     12  C   UNL     1       1.186   3.412  20.944  0.00  0.00    +0.000 A 
ATOM     13  C   UNL     1       2.310   2.592  21.017  0.00  0.00    +0.000 A 
ATOM     14  C   UNL     1       3.489   2.950  20.354  0.00  0.00    +0.000 A 
ATOM     15 CL   UNL     1       4.836   1.874  20.497  0.00  0.00    +0.000 Cl
ATOM     16  C   UNL     1       3.549   4.141  19.616  0.00  0.00    +0.000 A 
ATOM     17 CL   UNL     1       5.011   4.607  18.800  0.00  0.00    +0.000 Cl
ENDBRANCH   8  10
BRANCH   5  18
ATOM     18  C   UNL     1       0.659  11.622  20.980  0.00  0.00    +0.000 A 
ATOM     19  N   UNL     1       1.645  12.502  20.923  0.00  0.00    +0.000 NA
ATOM     20  C   UNL     1       1.181  13.730  20.500  0.00  0.00    +0.000 A 
ATOM     21  C   UNL     1      -0.167  13.793  20.240  0.00  0.00    +0.000 A 
ATOM     22  S   UNL     1      -0.881  12.264  20.526  0.00  0.00    +0.000 S 
ENDBRANCH   5  18
TORSDOF 2
ENDMDL
MODEL 6
REMARK VINA RESULT:      -6.3      2.294      2.656
REMARK  Name = 
REMARK  2 active torsions:
REMARK  status: ('A' for Active; 'I' for Inactive)
REMARK    1  A    between atoms: N_5  and  C_6
REMARK    2  A    between atoms: C_13  and  C_14
REMARK                            x       y       z     vdW  Elec       q    Type
REMARK                         _______ _______ _______ _____ _____    ______ ____
ROOT
ATOM      1  O   UNL     1       1.092   8.466  21.966  0.00  0.00    +0.000 OA
ATOM      2  C   UNL     1       1.199   8.803  20.798  0.00  0.00    +0.000 C 
ATOM      3  N   UNL     1       0.767   9.984  20.279  0.00  0.00    +0.000 N 
ATOM      4  C   UNL     1       0.893  10.190  18.941  0.00  0.00    +0.000 C 
ATOM      5  N   UNL     1       0.483  11.196  18.248  0.00  0.00    +0.000 NA
ATOM      6  S   UNL     1       1.714   8.825  18.212  0.00  0.00    +0.000 S 
ATOM      7  C   UNL     1       1.790   7.979  19.714  0.00  0.00    +0.000 C 
ATOM      8  C   UNL     1       2.277   6.757  19.964  0.00  0.00    +0.000 C 
ATOM      9  H   UNL     1       0.313  10.681  20.859  0.00  0.00    +0.000 HD
ENDROOT
BRANCH   8  10
ATOM     10  C   UNL     1       2.891   5.867  18.971  0.00  0.00    +0.000 A 
ATOM     11  C   UNL     1       3.940   6.381  18.193  0.00  0.00    +0.000 A 
ATOM     12  C   UNL     1       4.544   5.594  17.214  0.00  0.00    +0.000 A 
ATOM     13  C   UNL     1       4.105   4.288  17.005  0.00  0.00    +0.000 A 
ATOM     14  C   UNL     1       3.065   3.760  17.776  0.00  0.00    +0.000 A 
ATOM     15 CL   UNL     1       2.583   2.131  17.450  0.00  0.00    +0.000 Cl
ATOM     16  C   UNL     1       2.451   4.545  18.764  0.00  0.00    +0.000 A 
ATOM     17 CL   UNL     1       1.147   3.909  19.720  0.00  0.00    +0.000 Cl
ENDBRANCH   8  10
BRANCH   5  18
ATOM     18  C   UNL     1      -0.171  12.188  18.907  0.00  0.00    +0.000 A 
ATOM     19  N   UNL     1      -1.330  12.109  19.540  0.00  0.00    +0.000 NA
ATOM     20  C   UNL     1      -1.681  13.330  20.075  0.00  0.00    +0.000 A 
ATOM     21  C   UNL     1      -0.791  14.352  19.847  0.00  0.00    +0.000 A 
ATOM     22  S   UNL     1       0.535  13.767  18.936  0.00  0.00    +0.000 S 
ENDBRANCH   5  18
TORSDOF 2
ENDMDL
MODEL 7
REMARK VINA RESULT:      -6.2      4.243      8.052
REMARK  Name = 
REMARK  2 active torsions:
REMARK  status: ('A' for Active; 'I' for Inactive)
REMARK    1  A    between atoms: N_5  and  C_6
REMARK    2  A    between atoms: C_13  and  C_14
REMARK                            x       y       z     vdW  Elec       q    Type
REMARK                         _______ _______ _______ _____ _____    ______ ____
ROOT
ATOM      1  O   UNL     1       2.412   5.503  20.687  0.00  0.00    +0.000 OA
ATOM      2  C   UNL     1       2.605   6.277  19.764  0.00  0.00    +0.000 C 
ATOM      3  N   UNL     1       3.451   6.059  18.721  0.00  0.00    +0.000 N 
ATOM      4  C   UNL     1       3.616   7.047  17.802  0.00  0.00    +0.000 C 
ATOM      5  N   UNL     1       4.417   7.071  16.794  0.00  0.00    +0.000 NA
ATOM      6  S   UNL     1       2.555   8.388  18.185  0.00  0.00    +0.000 S 
ATOM      7  C   UNL     1       1.982   7.616  19.618  0.00  0.00    +0.000 C 
ATOM      8  C   UNL     1       1.117   8.078  20.530  0.00  0.00    +0.000 C 
ATOM      9  H   UNL     1       3.991   5.204  18.649  0.00  0.00    +0.000 HD
ENDROOT
BRANCH   8  10
ATOM     10  C   UNL     1       0.437   9.378  20.475  0.00  0.00    +0.000 A 
ATOM     11  C   UNL     1       0.191   9.934  19.210  0.00  0.00    +0.000 A 
ATOM     12  C   UNL     1      -0.425  11.178  19.094  0.00  0.00    +0.000 A 
ATOM     13  C   UNL     1      -0.801  11.877  20.240  0.00  0.00    +0.000 A 
ATOM     14  C   UNL     1      -0.568  11.333  21.507  0.00  0.00    +0.000 A 
ATOM     15 CL   UNL     1      -1.066  12.266  22.875  0.00  0.00    +0.000 Cl
ATOM     16  C   UNL     1       0.052  10.080  21.634  0.00  0.00    +0.000 A 
ATOM     17 CL   UNL     1       0.362   9.397  23.201  0.00  0.00    +0.000 Cl
ENDBRANCH   8  10
BRANCH   5  18
ATOM     18  C   UNL     1       5.220   5.991  16.603  0.00  0.00    +0.000 A 
ATOM     19  N   UNL     1       4.879   4.808  16.117  0.00  0.00    +0.000 NA
ATOM     20  C   UNL     1       5.965   3.959  16.088  0.00  0.00    +0.000 A 
ATOM     21  C   UNL     1       7.142   4.490  16.560  0.00  0.00    +0.000 A 
ATOM     22  S   UNL     1       6.886   6.110  17.053  0.00  0.00    +0.000 S 
ENDBRANCH   5  18
TORSDOF 2
ENDMDL
MODEL 8
REMARK VINA RESULT:      -6.2      3.507      7.566
REMARK  Name = 
REMARK  2 active torsions:
REMARK  status: ('A' for Active; 'I' for Inactive)
REMARK    1  A    between atoms: N_5  and  C_6
REMARK    2  A    between atoms: C_13  and  C_14
REMARK                            x       y       z     vdW  Elec       q    Type
REMARK                         _______ _______ _______ _____ _____    ______ ____
ROOT
ATOM      1  O   UNL     1       2.710   8.493  17.077  0.00  0.00    +0.000 OA
ATOM      2  C   UNL     1       2.321   8.169  18.187  0.00  0.00    +0.000 C 
ATOM      3  N   UNL     1       2.584   6.981  18.795  0.00  0.00    +0.000 N 
ATOM      4  C   UNL     1       2.021   6.734  20.008  0.00  0.00    +0.000 C 
ATOM      5  N   UNL     1       2.082   5.654  20.708  0.00  0.00    +0.000 NA
ATOM      6  S   UNL     1       1.122   8.142  20.536  0.00  0.00    +0.000 S 
ATOM      7  C   UNL     1       1.459   8.992  19.072  0.00  0.00    +0.000 C 
ATOM      8  C   UNL     1       1.043  10.207  18.695  0.00  0.00    +0.000 C 
ATOM      9  H   UNL     1       3.144   6.268  18.340  0.00  0.00    +0.000 HD
ENDROOT
BRANCH   8  10
ATOM     10  C   UNL     1       0.202  11.105  19.496  0.00  0.00    +0.000 A 
ATOM     11  C   UNL     1       0.817  11.826  20.531  0.00  0.00    +0.000 A 
ATOM     12  C   UNL     1       0.066  12.672  21.345  0.00  0.00    +0.000 A 
ATOM     13  C   UNL     1      -1.305  12.805  21.130  0.00  0.00    +0.000 A 
ATOM     14  C   UNL     1      -1.930  12.098  20.099  0.00  0.00    +0.000 A 
ATOM     15 CL   UNL     1      -3.634  12.323  19.903  0.00  0.00    +0.000 Cl
ATOM     16  C   UNL     1      -1.182  11.244  19.275  0.00  0.00    +0.000 A 
ATOM     17 CL   UNL     1      -1.947  10.348  17.998  0.00  0.00    +0.000 Cl
ENDBRANCH   8  10
BRANCH   5  18
ATOM     18  C   UNL     1       2.781   4.609  20.193  0.00  0.00    +0.000 A 
ATOM     19  N   UNL     1       4.011   4.623  19.705  0.00  0.00    +0.000 NA
ATOM     20  C   UNL     1       4.376   3.371  19.259  0.00  0.00    +0.000 A 
ATOM     21  C   UNL     1       3.420   2.393  19.398  0.00  0.00    +0.000 A 
ATOM     22  S   UNL     1       2.016   3.059  20.118  0.00  0.00    +0.000 S 
ENDBRANCH   5  18
TORSDOF 2
ENDMDL
MODEL 9
REMARK VINA RESULT:      -6.2      3.866      7.874
REMARK  Name = 
REMARK  2 active torsions:
REMARK  status: ('A' for Active; 'I' for Inactive)
REMARK    1  A    between atoms: N_5  and  C_6
REMARK    2  A    between atoms: C_13  and  C_14
REMARK                            x       y       z     vdW  Elec       q    Type
REMARK                         _______ _______ _______ _____ _____    ______ ____
ROOT
ATOM      1  O   UNL     1       2.003   9.668  17.296  0.00  0.00    +0.000 OA
ATOM      2  C   UNL     1       1.959   8.956  18.286  0.00  0.00    +0.000 C 
ATOM      3  N   UNL     1       2.574   7.749  18.413  0.00  0.00    +0.000 N 
ATOM      4  C   UNL     1       2.376   7.036  19.553  0.00  0.00    +0.000 C 
ATOM      5  N   UNL     1       2.800   5.854  19.837  0.00  0.00    +0.000 NA
ATOM      6  S   UNL     1       1.389   7.967  20.663  0.00  0.00    +0.000 S 
ATOM      7  C   UNL     1       1.202   9.253  19.528  0.00  0.00    +0.000 C 
ATOM      8  C   UNL     1       0.492  10.382  19.650  0.00  0.00    +0.000 C 
ATOM      9  H   UNL     1       3.128   7.357  17.659  0.00  0.00    +0.000 HD
ENDROOT
BRANCH   8  10
ATOM     10  C   UNL     1      -0.279  10.777  20.835  0.00  0.00    +0.000 A 
ATOM     11  C   UNL     1      -0.038  10.086  22.032  0.00  0.00    +0.000 A 
ATOM     12  C   UNL     1      -0.760  10.396  23.183  0.00  0.00    +0.000 A 
ATOM     13  C   UNL     1      -1.728  11.398  23.148  0.00  0.00    +0.000 A 
ATOM     14  C   UNL     1      -1.975  12.099  21.963  0.00  0.00    +0.000 A 
ATOM     15 CL   UNL     1      -3.192  13.327  22.008  0.00  0.00    +0.000 Cl
ATOM     16  C   UNL     1      -1.253  11.794  20.799  0.00  0.00    +0.000 A 
ATOM     17 CL   UNL     1      -1.559  12.647  19.316  0.00  0.00    +0.000 Cl
ENDBRANCH   8  10
BRANCH   5  18
ATOM     18  C   UNL     1       3.532   5.206  18.893  0.00  0.00    +0.000 A 
ATOM     19  N   UNL     1       3.089   4.604  17.801  0.00  0.00    +0.000 NA
ATOM     20  C   UNL     1       4.132   4.043  17.094  0.00  0.00    +0.000 A 
ATOM     21  C   UNL     1       5.378   4.209  17.649  0.00  0.00    +0.000 A 
ATOM     22  S   UNL     1       5.246   5.103  19.103  0.00  0.00    +0.000 S 
ENDBRANCH   5  18
TORSDOF 2
ENDMDL
