MODEL 1
REMARK VINA RESULT:      -8.0      0.000      0.000
REMARK  Name = 
REMARK  8 active torsions:
REMARK  status: ('A' for Active; 'I' for Inactive)
REMARK    1  A    between atoms: C_1  and  O_2
REMARK    2  A    between atoms: O_2  and  C_3
REMARK    3  A    between atoms: C_6  and  N_7
REMARK    4  A    between atoms: C_10  and  C_11
REMARK    5  A    between atoms: C_22  and  O_23
REMARK    6  A    between atoms: O_23  and  C_24
REMARK    7  A    between atoms: C_24  and  C_25
REMARK    8  A    between atoms: C_25  and  N_26
REMARK                            x       y       z     vdW  Elec       q    Type
REMARK                         _______ _______ _______ _____ _____    ______ ____
ROOT
ATOM      1  C   UNL     1       3.673   4.041  18.515  0.00  0.00    +0.000 A 
ATOM      2  C   UNL     1       2.472   4.339  17.880  0.00  0.00    +0.000 A 
ATOM      3  C   UNL     1       1.933   5.621  17.941  0.00  0.00    +0.000 A 
ATOM      4  C   UNL     1       2.592   6.659  18.601  0.00  0.00    +0.000 A 
ATOM      5  C   UNL     1       3.850   6.384  19.161  0.00  0.00    +0.000 A 
ATOM      6  C   UNL     1       4.398   5.085  19.131  0.00  0.00    +0.000 A 
ENDROOT
BRANCH   4   7
ATOM      7  N   UNL     1       1.979   7.936  18.713  0.00  0.00    +0.000 N 
ATOM      8  C   UNL     1       1.962   8.902  17.653  0.00  0.00    +0.000 C 
ATOM      9  C   UNL     1       1.315  10.071  18.308  0.00  0.00    +0.000 C 
ATOM     10  C   UNL     1       0.981   9.848  19.586  0.00  0.00    +0.000 C 
ATOM     11  C   UNL     1       1.369   8.438  19.865  0.00  0.00    +0.000 C 
ATOM     12  O   UNL     1       1.186   7.898  20.944  0.00  0.00    +0.000 OA
BRANCH  10  13
ATOM     13  C   UNL     1       0.423  10.800  20.557  0.00  0.00    +0.000 A 
ATOM     14  C   UNL     1      -0.479  10.375  21.550  0.00  0.00    +0.000 A 
ATOM     15  C   UNL     1      -1.005  11.269  22.486  0.00  0.00    +0.000 A 
ATOM     16  C   UNL     1      -0.638  12.611  22.448  0.00  0.00    +0.000 A 
ATOM     17 CL   UNL     1      -1.324  13.665  23.632  0.00  0.00    +0.000 Cl
ATOM     18  C   UNL     1       0.260  13.055  21.473  0.00  0.00    +0.000 A 
ATOM     19 CL   UNL     1       0.772  14.703  21.371  0.00  0.00    +0.000 Cl
ATOM     20  C   UNL     1       0.784  12.155  20.534  0.00  0.00    +0.000 A 
ENDBRANCH  10  13
ENDBRANCH   4   7
BRANCH   1  22
ATOM     21  C   UNL     1       3.310   1.718  18.999  0.00  0.00    +0.000 C 
ATOM     22  O   UNL     1       4.165   2.768  18.560  0.00  0.00    +0.000 OA
ENDBRANCH   1  22
BRANCH   6  23
ATOM     23  O   UNL     1       5.610   4.971  19.793  0.00  0.00    +0.000 OA
BRANCH  23  24
ATOM     24  C   UNL     1       6.717   5.563  19.105  0.00  0.00    +0.000 C 
BRANCH  24  25
ATOM     25  C   UNL     1       7.242   4.695  17.948  0.00  0.00    +0.000 C 
BRANCH  25  26
ATOM     26  N   UNL     1       7.326   5.355  16.625  0.00  0.00    +0.000 NA
ATOM     27  C   UNL     1       6.541   6.594  16.538  0.00  0.00    +0.000 C 
ATOM     28  C   UNL     1       5.239   6.220  15.854  0.00  0.00    +0.000 C 
ATOM     29  C   UNL     1       5.662   5.144  14.877  0.00  0.00    +0.000 C 
ATOM     30  C   UNL     1       6.894   4.498  15.506  0.00  0.00    +0.000 C 
ENDBRANCH  25  26
ENDBRANCH  24  25
ENDBRANCH  23  24
ENDBRANCH   6  23
TORSDOF 7
ENDMDL
MODEL 2
REMARK VINA RESULT:      -7.6      0.761      1.436
REMARK  Name = 
REMARK  8 active torsions:
REMARK  status: ('A' for Active; 'I' for Inactive)
REMARK    1  A    between atoms: C_1  and  O_2
REMARK    2  A    between atoms: O_2  and  C_3
REMARK    3  A    between atoms: C_6  and  N_7
REMARK    4  A    between atoms: C_10  and  C_11
REMARK    5  A    between atoms: C_22  and  O_23
REMARK    6  A    between atoms: O_23  and  C_24
REMARK    7  A    between atoms: C_24  and  C_25
REMARK    8  A    between atoms: C_25  and  N_26
REMARK                            x       y       z     vdW  Elec       q    Type
REMARK                         _______ _______ _______ _____ _____    ______ ____
ROOT
ATOM      1  C   UNL     1       3.638   3.856  18.888  0.00  0.00    +0.000 A 
ATOM      2  C   UNL     1       2.333   4.110  18.477  0.00  0.00    +0.000 A 
ATOM      3  C   UNL     1       1.849   5.413  18.413  0.00  0.00    +0.000 A 
ATOM      4  C   UNL     1       2.658   6.509  18.715  0.00  0.00    +0.000 A 
ATOM      5  C   UNL     1       4.002   6.260  19.037  0.00  0.00    +0.000 A 
ATOM      6  C   UNL     1       4.502   4.946  19.132  0.00  0.00    +0.000 A 
ENDROOT
BRANCH   4   7
ATOM      7  N   UNL     1       2.112   7.821  18.715  0.00  0.00    +0.000 N 
ATOM      8  C   UNL     1       2.112   8.680  17.566  0.00  0.00    +0.000 C 
ATOM      9  C   UNL     1       1.542   9.938  18.118  0.00  0.00    +0.000 C 
ATOM     10  C   UNL     1       1.234   9.858  19.420  0.00  0.00    +0.000 C 
ATOM     11  C   UNL     1       1.560   8.463  19.826  0.00  0.00    +0.000 C 
ATOM     12  O   UNL     1       1.381   8.039  20.957  0.00  0.00    +0.000 OA
BRANCH  10  13
ATOM     13  C   UNL     1       0.751  10.926  20.305  0.00  0.00    +0.000 A 
ATOM     14  C   UNL     1       1.247  12.239  20.192  0.00  0.00    +0.000 A 
ATOM     15  C   UNL     1       0.784  13.265  21.021  0.00  0.00    +0.000 A 
ATOM     16  C   UNL     1      -0.187  12.998  21.982  0.00  0.00    +0.000 A 
ATOM     17 CL   UNL     1      -0.715  14.308  22.974  0.00  0.00    +0.000 Cl
ATOM     18  C   UNL     1      -0.696  11.703  22.110  0.00  0.00    +0.000 A 
ATOM     19 CL   UNL     1      -1.911  11.298  23.271  0.00  0.00    +0.000 Cl
ATOM     20  C   UNL     1      -0.227  10.675  21.278  0.00  0.00    +0.000 A 
ENDBRANCH  10  13
ENDBRANCH   4   7
BRANCH   1  22
ATOM     21  C   UNL     1       3.557   1.540  18.261  0.00  0.00    +0.000 C 
ATOM     22  O   UNL     1       4.100   2.583  19.063  0.00  0.00    +0.000 OA
ENDBRANCH   1  22
BRANCH   6  23
ATOM     23  O   UNL     1       5.828   4.877  19.532  0.00  0.00    +0.000 OA
BRANCH  23  24
ATOM     24  C   UNL     1       6.766   4.793  18.455  0.00  0.00    +0.000 C 
BRANCH  24  25
ATOM     25  C   UNL     1       6.919   6.116  17.684  0.00  0.00    +0.000 C 
BRANCH  25  26
ATOM     26  N   UNL     1       6.804   6.027  16.210  0.00  0.00    +0.000 NA
ATOM     27  C   UNL     1       5.424   6.155  15.722  0.00  0.00    +0.000 C 
ATOM     28  C   UNL     1       4.932   4.741  15.473  0.00  0.00    +0.000 C 
ATOM     29  C   UNL     1       6.178   4.023  15.000  0.00  0.00    +0.000 C 
ATOM     30  C   UNL     1       7.338   4.774  15.648  0.00  0.00    +0.000 C 
ENDBRANCH  25  26
ENDBRANCH  24  25
ENDBRANCH  23  24
ENDBRANCH   6  23
TORSDOF 7
ENDMDL
MODEL 3
REMARK VINA RESULT:      -7.6      2.396      3.831
REMARK  Name = 
REMARK  8 active torsions:
REMARK  status: ('A' for Active; 'I' for Inactive)
REMARK    1  A    between atoms: C_1  and  O_2
REMARK    2  A    between atoms: O_2  and  C_3
REMARK    3  A    between atoms: C_6  and  N_7
REMARK    4  A    between atoms: C_10  and  C_11
REMARK    5  A    between atoms: C_22  and  O_23
REMARK    6  A    between atoms: O_23  and  C_24
REMARK    7  A    between atoms: C_24  and  C_25
REMARK    8  A    between atoms: C_25  and  N_26
REMARK                            x       y       z     vdW  Elec       q    Type
REMARK                         _______ _______ _______ _____ _____    ______ ____
ROOT
ATOM      1  C   UNL     1       5.060   5.118  17.317  0.00  0.00    +0.000 A 
ATOM      2  C   UNL     1       4.431   6.257  16.825  0.00  0.00    +0.000 A 
ATOM      3  C   UNL     1       3.562   6.992  17.627  0.00  0.00    +0.000 A 
ATOM      4  C   UNL     1       3.323   6.641  18.956  0.00  0.00    +0.000 A 
ATOM      5  C   UNL     1       4.030   5.549  19.482  0.00  0.00    +0.000 A 
ATOM      6  C   UNL     1       4.894   4.778  18.678  0.00  0.00    +0.000 A 
ENDROOT
BRANCH   4   7
ATOM      7  N   UNL     1       2.371   7.365  19.724  0.00  0.00    +0.000 N 
ATOM      8  C   UNL     1       1.845   6.901  20.976  0.00  0.00    +0.000 C 
ATOM      9  C   UNL     1       0.835   7.945  21.296  0.00  0.00    +0.000 C 
ATOM     10  C   UNL     1       0.756   8.912  20.371  0.00  0.00    +0.000 C 
ATOM     11  C   UNL     1       1.786   8.577  19.348  0.00  0.00    +0.000 C 
ATOM     12  O   UNL     1       1.998   9.268  18.365  0.00  0.00    +0.000 OA
BRANCH  10  13
ATOM     13  C   UNL     1      -0.189  10.035  20.310  0.00  0.00    +0.000 A 
ATOM     14  C   UNL     1      -0.365  10.893  21.412  0.00  0.00    +0.000 A 
ATOM     15  C   UNL     1      -1.252  11.972  21.359  0.00  0.00    +0.000 A 
ATOM     16  C   UNL     1      -1.984  12.215  20.200  0.00  0.00    +0.000 A 
ATOM     17 CL   UNL     1      -3.063  13.562  20.200  0.00  0.00    +0.000 Cl
ATOM     18  C   UNL     1      -1.822  11.378  19.092  0.00  0.00    +0.000 A 
ATOM     19 CL   UNL     1      -2.686  11.624  17.615  0.00  0.00    +0.000 Cl
ATOM     20  C   UNL     1      -0.933  10.295  19.150  0.00  0.00    +0.000 A 
ENDBRANCH  10  13
ENDBRANCH   4   7
BRANCH   1  22
ATOM     21  C   UNL     1       5.595   4.329  15.114  0.00  0.00    +0.000 C 
ATOM     22  O   UNL     1       5.830   4.322  16.517  0.00  0.00    +0.000 OA
ENDBRANCH   1  22
BRANCH   6  23
ATOM     23  O   UNL     1       5.454   3.693  19.333  0.00  0.00    +0.000 OA
BRANCH  23  24
ATOM     24  C   UNL     1       4.506   2.847  19.991  0.00  0.00    +0.000 C 
BRANCH  24  25
ATOM     25  C   UNL     1       3.789   1.883  19.030  0.00  0.00    +0.000 C 
BRANCH  25  26
ATOM     26  N   UNL     1       2.318   1.789  19.180  0.00  0.00    +0.000 NA
ATOM     27  C   UNL     1       1.576   2.413  18.077  0.00  0.00    +0.000 C 
ATOM     28  C   UNL     1       1.165   3.788  18.570  0.00  0.00    +0.000 C 
ATOM     29  C   UNL     1       0.910   3.560  20.045  0.00  0.00    +0.000 C 
ATOM     30  C   UNL     1       1.810   2.388  20.427  0.00  0.00    +0.000 C 
ENDBRANCH  25  26
ENDBRANCH  24  25
ENDBRANCH  23  24
ENDBRANCH   6  23
TORSDOF 7
ENDMDL
MODEL 4
REMARK VINA RESULT:      -7.4      2.451      4.120
REMARK  Name = 
REMARK  8 active torsions:
REMARK  status: ('A' for Active; 'I' for Inactive)
REMARK    1  A    between atoms: C_1  and  O_2
REMARK    2  A    between atoms: O_2  and  C_3
REMARK    3  A    between atoms: C_6  and  N_7
REMARK    4  A    between atoms: C_10  and  C_11
REMARK    5  A    between atoms: C_22  and  O_23
REMARK    6  A    between atoms: O_23  and  C_24
REMARK    7  A    between atoms: C_24  and  C_25
REMARK    8  A    between atoms: C_25  and  N_26
REMARK                            x       y       z     vdW  Elec       q    Type
REMARK                         _______ _______ _______ _____ _____    ______ ____
ROOT
ATOM      1  C   UNL     1       4.640   5.144  16.284  0.00  0.00    +0.000 A 
ATOM      2  C   UNL     1       5.002   6.459  16.558  0.00  0.00    +0.000 A 
ATOM      3  C   UNL     1       4.285   7.217  17.479  0.00  0.00    +0.000 A 
ATOM      4  C   UNL     1       3.210   6.680  18.188  0.00  0.00    +0.000 A 
ATOM      5  C   UNL     1       2.903   5.325  17.983  0.00  0.00    +0.000 A 
ATOM      6  C   UNL     1       3.602   4.549  17.036  0.00  0.00    +0.000 A 
ENDROOT
BRANCH   4   7
ATOM      7  N   UNL     1       2.450   7.502  19.063  0.00  0.00    +0.000 N 
ATOM      8  C   UNL     1       2.085   7.117  20.396  0.00  0.00    +0.000 C 
ATOM      9  C   UNL     1       1.225   8.253  20.824  0.00  0.00    +0.000 C 
ATOM     10  C   UNL     1       1.087   9.200  19.885  0.00  0.00    +0.000 C 
ATOM     11  C   UNL     1       1.916   8.751  18.733  0.00  0.00    +0.000 C 
ATOM     12  O   UNL     1       2.032   9.396  17.704  0.00  0.00    +0.000 OA
BRANCH  10  13
ATOM     13  C   UNL     1       0.239  10.400  19.925  0.00  0.00    +0.000 A 
ATOM     14  C   UNL     1       0.603  11.517  20.699  0.00  0.00    +0.000 A 
ATOM     15  C   UNL     1      -0.189  12.668  20.733  0.00  0.00    +0.000 A 
ATOM     16  C   UNL     1      -1.366  12.724  19.991  0.00  0.00    +0.000 A 
ATOM     17 CL   UNL     1      -2.300  14.173  20.077  0.00  0.00    +0.000 Cl
ATOM     18  C   UNL     1      -1.745  11.627  19.212  0.00  0.00    +0.000 A 
ATOM     19 CL   UNL     1      -3.184  11.628  18.255  0.00  0.00    +0.000 Cl
ATOM     20  C   UNL     1      -0.948  10.473  19.182  0.00  0.00    +0.000 A 
ENDBRANCH  10  13
ENDBRANCH   4   7
BRANCH   1  22
ATOM     21  C   UNL     1       6.681   4.427  15.244  0.00  0.00    +0.000 C 
ATOM     22  O   UNL     1       5.259   4.417  15.307  0.00  0.00    +0.000 OA
ENDBRANCH   1  22
BRANCH   6  23
ATOM     23  O   UNL     1       3.124   3.255  16.907  0.00  0.00    +0.000 OA
BRANCH  23  24
ATOM     24  C   UNL     1       3.831   2.285  17.686  0.00  0.00    +0.000 C 
BRANCH  24  25
ATOM     25  C   UNL     1       4.014   2.707  19.154  0.00  0.00    +0.000 C 
BRANCH  25  26
ATOM     26  N   UNL     1       2.979   2.232  20.102  0.00  0.00    +0.000 NA
ATOM     27  C   UNL     1       1.723   1.841  19.449  0.00  0.00    +0.000 C 
ATOM     28  C   UNL     1       0.785   3.025  19.597  0.00  0.00    +0.000 C 
ATOM     29  C   UNL     1       1.163   3.594  20.948  0.00  0.00    +0.000 C 
ATOM     30  C   UNL     1       2.630   3.217  21.140  0.00  0.00    +0.000 C 
ENDBRANCH  25  26
ENDBRANCH  24  25
ENDBRANCH  23  24
ENDBRANCH   6  23
TORSDOF 7
ENDMDL
MODEL 5
REMARK VINA RESULT:      -7.4      1.682      2.079
REMARK  Name = 
REMARK  8 active torsions:
REMARK  status: ('A' for Active; 'I' for Inactive)
REMARK    1  A    between atoms: C_1  and  O_2
REMARK    2  A    between atoms: O_2  and  C_3
REMARK    3  A    between atoms: C_6  and  N_7
REMARK    4  A    between atoms: C_10  and  C_11
REMARK    5  A    between atoms: C_22  and  O_23
REMARK    6  A    between atoms: O_23  and  C_24
REMARK    7  A    between atoms: C_24  and  C_25
REMARK    8  A    between atoms: C_25  and  N_26
REMARK                            x       y       z     vdW  Elec       q    Type
REMARK                         _______ _______ _______ _____ _____    ______ ____
ROOT
ATOM      1  C   UNL     1       3.554   3.724  18.130  0.00  0.00    +0.000 A 
ATOM      2  C   UNL     1       2.243   4.110  17.872  0.00  0.00    +0.000 A 
ATOM      3  C   UNL     1       1.744   5.311  18.369  0.00  0.00    +0.000 A 
ATOM      4  C   UNL     1       2.544   6.187  19.103  0.00  0.00    +0.000 A 
ATOM      5  C   UNL     1       3.894   5.844  19.283  0.00  0.00    +0.000 A 
ATOM      6  C   UNL     1       4.410   4.620  18.810  0.00  0.00    +0.000 A 
ENDROOT
BRANCH   4   7
ATOM      7  N   UNL     1       1.984   7.367  19.662  0.00  0.00    +0.000 N 
ATOM      8  C   UNL     1       1.290   7.397  20.918  0.00  0.00    +0.000 C 
ATOM      9  C   UNL     1       0.822   8.807  20.981  0.00  0.00    +0.000 C 
ATOM     10  C   UNL     1       1.180   9.536  19.915  0.00  0.00    +0.000 C 
ATOM     11  C   UNL     1       1.981   8.624  19.053  0.00  0.00    +0.000 C 
ATOM     12  O   UNL     1       2.485   8.976  17.998  0.00  0.00    +0.000 OA
BRANCH  10  13
ATOM     13  C   UNL     1       0.809  10.922  19.598  0.00  0.00    +0.000 A 
ATOM     14  C   UNL     1      -0.269  11.203  18.739  0.00  0.00    +0.000 A 
ATOM     15  C   UNL     1      -0.639  12.519  18.442  0.00  0.00    +0.000 A 
ATOM     16  C   UNL     1       0.066  13.582  18.999  0.00  0.00    +0.000 A 
ATOM     17 CL   UNL     1      -0.439  15.181  18.591  0.00  0.00    +0.000 Cl
ATOM     18  C   UNL     1       1.139  13.326  19.858  0.00  0.00    +0.000 A 
ATOM     19 CL   UNL     1       2.053  14.593  20.597  0.00  0.00    +0.000 Cl
ATOM     20  C   UNL     1       1.508  12.005  20.152  0.00  0.00    +0.000 A 
ENDBRANCH  10  13
ENDBRANCH   4   7
BRANCH   1  22
ATOM     21  C   UNL     1       3.588   1.345  18.444  0.00  0.00    +0.000 C 
ATOM     22  O   UNL     1       4.032   2.504  17.747  0.00  0.00    +0.000 OA
ENDBRANCH   1  22
BRANCH   6  23
ATOM     23  O   UNL     1       5.739   4.407  19.136  0.00  0.00    +0.000 OA
BRANCH  23  24
ATOM     24  C   UNL     1       6.634   4.440  18.020  0.00  0.00    +0.000 C 
BRANCH  24  25
ATOM     25  C   UNL     1       6.842   5.856  17.455  0.00  0.00    +0.000 C 
BRANCH  25  26
ATOM     26  N   UNL     1       6.712   5.995  15.986  0.00  0.00    +0.000 NA
ATOM     27  C   UNL     1       5.318   6.046  15.524  0.00  0.00    +0.000 C 
ATOM     28  C   UNL     1       4.981   4.645  15.047  0.00  0.00    +0.000 C 
ATOM     29  C   UNL     1       6.291   4.158  14.464  0.00  0.00    +0.000 C 
ATOM     30  C   UNL     1       7.372   4.918  15.227  0.00  0.00    +0.000 C 
ENDBRANCH  25  26
ENDBRANCH  24  25
ENDBRANCH  23  24
ENDBRANCH   6  23
TORSDOF 7
ENDMDL
MODEL 6
REMARK VINA RESULT:      -7.3      2.301      4.104
REMARK  Name = 
REMARK  8 active torsions:
REMARK  status: ('A' for Active; 'I' for Inactive)
REMARK    1  A    between atoms: C_1  and  O_2
REMARK    2  A    between atoms: O_2  and  C_3
REMARK    3  A    between atoms: C_6  and  N_7
REMARK    4  A    between atoms: C_10  and  C_11
REMARK    5  A    between atoms: C_22  and  O_23
REMARK    6  A    between atoms: O_23  and  C_24
REMARK    7  A    between atoms: C_24  and  C_25
REMARK    8  A    between atoms: C_25  and  N_26
REMARK                            x       y       z     vdW  Elec       q    Type
REMARK                         _______ _______ _______ _____ _____    ______ ____
ROOT
ATOM      1  C   UNL     1       4.855   5.544  16.211  0.00  0.00    +0.000 A 
ATOM      2  C   UNL     1       4.788   6.933  16.252  0.00  0.00    +0.000 A 
ATOM      3  C   UNL     1       4.016   7.581  17.212  0.00  0.00    +0.000 A 
ATOM      4  C   UNL     1       3.317   6.870  18.188  0.00  0.00    +0.000 A 
ATOM      5  C   UNL     1       3.459   5.473  18.207  0.00  0.00    +0.000 A 
ATOM      6  C   UNL     1       4.216   4.799  17.228  0.00  0.00    +0.000 A 
ENDROOT
BRANCH   4   7
ATOM      7  N   UNL     1       2.475   7.556  19.105  0.00  0.00    +0.000 N 
ATOM      8  C   UNL     1       2.164   7.064  20.416  0.00  0.00    +0.000 C 
ATOM      9  C   UNL     1       1.186   8.073  20.903  0.00  0.00    +0.000 C 
ATOM     10  C   UNL     1       0.937   9.046  20.015  0.00  0.00    +0.000 C 
ATOM     11  C   UNL     1       1.804   8.753  18.841  0.00  0.00    +0.000 C 
ATOM     12  O   UNL     1       1.841   9.459  17.847  0.00  0.00    +0.000 OA
BRANCH  10  13
ATOM     13  C   UNL     1      -0.039  10.140  20.118  0.00  0.00    +0.000 A 
ATOM     14  C   UNL     1      -0.969  10.377  19.089  0.00  0.00    +0.000 A 
ATOM     15  C   UNL     1      -1.911  11.406  19.183  0.00  0.00    +0.000 A 
ATOM     16  C   UNL     1      -1.940  12.221  20.311  0.00  0.00    +0.000 A 
ATOM     17 CL   UNL     1      -3.126  13.475  20.365  0.00  0.00    +0.000 Cl
ATOM     18  C   UNL     1      -1.028  12.001  21.347  0.00  0.00    +0.000 A 
ATOM     19 CL   UNL     1      -1.012  12.962  22.783  0.00  0.00    +0.000 Cl
ATOM     20  C   UNL     1      -0.083  10.969  21.248  0.00  0.00    +0.000 A 
ENDBRANCH  10  13
ENDBRANCH   4   7
BRANCH   1  22
ATOM     21  C   UNL     1       6.900   4.599  15.384  0.00  0.00    +0.000 C 
ATOM     22  O   UNL     1       5.517   4.886  15.215  0.00  0.00    +0.000 OA
ENDBRANCH   1  22
BRANCH   6  23
ATOM     23  O   UNL     1       4.191   3.419  17.350  0.00  0.00    +0.000 OA
BRANCH  23  24
ATOM     24  C   UNL     1       2.886   2.868  17.549  0.00  0.00    +0.000 C 
BRANCH  24  25
ATOM     25  C   UNL     1       2.879   1.661  18.503  0.00  0.00    +0.000 C 
BRANCH  25  26
ATOM     26  N   UNL     1       1.913   1.723  19.624  0.00  0.00    +0.000 NA
ATOM     27  C   UNL     1       0.673   2.436  19.289  0.00  0.00    +0.000 C 
ATOM     28  C   UNL     1       0.833   3.842  19.838  0.00  0.00    +0.000 C 
ATOM     29  C   UNL     1       1.643   3.626  21.099  0.00  0.00    +0.000 C 
ATOM     30  C   UNL     1       2.454   2.360  20.838  0.00  0.00    +0.000 C 
ENDBRANCH  25  26
ENDBRANCH  24  25
ENDBRANCH  23  24
ENDBRANCH   6  23
TORSDOF 7
ENDMDL
MODEL 7
REMARK VINA RESULT:      -7.3      2.146      3.845
REMARK  Name = 
REMARK  8 active torsions:
REMARK  status: ('A' for Active; 'I' for Inactive)
REMARK    1  A    between atoms: C_1  and  O_2
REMARK    2  A    between atoms: O_2  and  C_3
REMARK    3  A    between atoms: C_6  and  N_7
REMARK    4  A    between atoms: C_10  and  C_11
REMARK    5  A    between atoms: C_22  and  O_23
REMARK    6  A    between atoms: O_23  and  C_24
REMARK    7  A    between atoms: C_24  and  C_25
REMARK    8  A    between atoms: C_25  and  N_26
REMARK                            x       y       z     vdW  Elec       q    Type
REMARK                         _______ _______ _______ _____ _____    ______ ____
ROOT
ATOM      1  C   UNL     1       5.027   5.118  17.244  0.00  0.00    +0.000 A 
ATOM      2  C   UNL     1       4.402   6.270  16.777  0.00  0.00    +0.000 A 
ATOM      3  C   UNL     1       3.547   6.999  17.598  0.00  0.00    +0.000 A 
ATOM      4  C   UNL     1       3.318   6.630  18.924  0.00  0.00    +0.000 A 
ATOM      5  C   UNL     1       4.021   5.523  19.426  0.00  0.00    +0.000 A 
ATOM      6  C   UNL     1       4.871   4.758  18.601  0.00  0.00    +0.000 A 
ENDROOT
BRANCH   4   7
ATOM      7  N   UNL     1       2.379   7.349  19.713  0.00  0.00    +0.000 N 
ATOM      8  C   UNL     1       1.816   6.843  20.932  0.00  0.00    +0.000 C 
ATOM      9  C   UNL     1       0.838   7.907  21.287  0.00  0.00    +0.000 C 
ATOM     10  C   UNL     1       0.811   8.920  20.411  0.00  0.00    +0.000 C 
ATOM     11  C   UNL     1       1.844   8.598  19.389  0.00  0.00    +0.000 C 
ATOM     12  O   UNL     1       2.098   9.329  18.444  0.00  0.00    +0.000 OA
BRANCH  10  13
ATOM     13  C   UNL     1      -0.093  10.078  20.391  0.00  0.00    +0.000 A 
ATOM     14  C   UNL     1      -0.895  10.351  19.267  0.00  0.00    +0.000 A 
ATOM     15  C   UNL     1      -1.768  11.442  19.244  0.00  0.00    +0.000 A 
ATOM     16  C   UNL     1      -1.856  12.286  20.348  0.00  0.00    +0.000 A 
ATOM     17 CL   UNL     1      -2.952  13.616  20.256  0.00  0.00    +0.000 Cl
ATOM     18  C   UNL     1      -1.072  12.032  21.476  0.00  0.00    +0.000 A 
ATOM     19 CL   UNL     1      -1.136  13.027  22.889  0.00  0.00    +0.000 Cl
ATOM     20  C   UNL     1      -0.195  10.937  21.495  0.00  0.00    +0.000 A 
ENDBRANCH  10  13
ENDBRANCH   4   7
BRANCH   1  22
ATOM     21  C   UNL     1       6.858   4.919  15.705  0.00  0.00    +0.000 C 
ATOM     22  O   UNL     1       5.782   4.328  16.425  0.00  0.00    +0.000 OA
ENDBRANCH   1  22
BRANCH   6  23
ATOM     23  O   UNL     1       5.429   3.659  19.235  0.00  0.00    +0.000 OA
BRANCH  23  24
ATOM     24  C   UNL     1       4.586   2.502  19.259  0.00  0.00    +0.000 C 
BRANCH  24  25
ATOM     25  C   UNL     1       3.734   2.402  20.536  0.00  0.00    +0.000 C 
BRANCH  25  26
ATOM     26  N   UNL     1       2.297   2.103  20.337  0.00  0.00    +0.000 NA
ATOM     27  C   UNL     1       1.880   2.140  18.929  0.00  0.00    +0.000 C 
ATOM     28  C   UNL     1       1.245   3.501  18.713  0.00  0.00    +0.000 C 
ATOM     29  C   UNL     1       0.573   3.779  20.041  0.00  0.00    +0.000 C 
ATOM     30  C   UNL     1       1.395   3.009  21.070  0.00  0.00    +0.000 C 
ENDBRANCH  25  26
ENDBRANCH  24  25
ENDBRANCH  23  24
ENDBRANCH   6  23
TORSDOF 7
ENDMDL
MODEL 8
REMARK VINA RESULT:      -7.2      2.102      3.646
REMARK  Name = 
REMARK  8 active torsions:
REMARK  status: ('A' for Active; 'I' for Inactive)
REMARK    1  A    between atoms: C_1  and  O_2
REMARK    2  A    between atoms: O_2  and  C_3
REMARK    3  A    between atoms: C_6  and  N_7
REMARK    4  A    between atoms: C_10  and  C_11
REMARK    5  A    between atoms: C_22  and  O_23
REMARK    6  A    between atoms: O_23  and  C_24
REMARK    7  A    between atoms: C_24  and  C_25
REMARK    8  A    between atoms: C_25  and  N_26
REMARK                            x       y       z     vdW  Elec       q    Type
REMARK                         _______ _______ _______ _____ _____    ______ ____
ROOT
ATOM      1  C   UNL     1       3.661   6.535  18.171  0.00  0.00    +0.000 A 
ATOM      2  C   UNL     1       3.479   7.712  17.452  0.00  0.00    +0.000 A 
ATOM      3  C   UNL     1       2.557   8.667  17.871  0.00  0.00    +0.000 A 
ATOM      4  C   UNL     1       1.815   8.501  19.041  0.00  0.00    +0.000 A 
ATOM      5  C   UNL     1       2.065   7.359  19.818  0.00  0.00    +0.000 A 
ATOM      6  C   UNL     1       2.977   6.370  19.396  0.00  0.00    +0.000 A 
ENDROOT
BRANCH   4   7
ATOM      7  N   UNL     1       0.826   9.456  19.399  0.00  0.00    +0.000 N 
ATOM      8  C   UNL     1      -0.170   9.945  18.490  0.00  0.00    +0.000 C 
ATOM      9  C   UNL     1      -0.862  10.976  19.310  0.00  0.00    +0.000 C 
ATOM     10  C   UNL     1      -0.361  11.097  20.547  0.00  0.00    +0.000 C 
ATOM     11  C   UNL     1       0.722  10.080  20.645  0.00  0.00    +0.000 C 
ATOM     12  O   UNL     1       1.382   9.905  21.657  0.00  0.00    +0.000 OA
BRANCH  10  13
ATOM     13  C   UNL     1      -0.727  12.073  21.582  0.00  0.00    +0.000 A 
ATOM     14  C   UNL     1      -1.710  11.772  22.544  0.00  0.00    +0.000 A 
ATOM     15  C   UNL     1      -2.057  12.688  23.541  0.00  0.00    +0.000 A 
ATOM     16  C   UNL     1      -1.425  13.927  23.597  0.00  0.00    +0.000 A 
ATOM     17 CL   UNL     1      -1.899  15.013  24.852  0.00  0.00    +0.000 Cl
ATOM     18  C   UNL     1      -0.443  14.246  22.655  0.00  0.00    +0.000 A 
ATOM     19 CL   UNL     1       0.393  15.758  22.668  0.00  0.00    +0.000 Cl
ATOM     20  C   UNL     1      -0.100  13.325  21.654  0.00  0.00    +0.000 A 
ENDBRANCH  10  13
ENDBRANCH   4   7
BRANCH   1  22
ATOM     21  C   UNL     1       5.836   5.846  17.428  0.00  0.00    +0.000 C 
ATOM     22  O   UNL     1       4.478   5.538  17.721  0.00  0.00    +0.000 OA
ENDBRANCH   1  22
BRANCH   6  23
ATOM     23  O   UNL     1       3.050   5.274  20.242  0.00  0.00    +0.000 OA
BRANCH  23  24
ATOM     24  C   UNL     1       1.779   4.786  20.685  0.00  0.00    +0.000 C 
BRANCH  24  25
ATOM     25  C   UNL     1       1.763   3.263  20.908  0.00  0.00    +0.000 C 
BRANCH  25  26
ATOM     26  N   UNL     1       1.534   2.432  19.703  0.00  0.00    +0.000 NA
ATOM     27  C   UNL     1       2.706   1.642  19.305  0.00  0.00    +0.000 C 
ATOM     28  C   UNL     1       3.377   2.418  18.186  0.00  0.00    +0.000 C 
ATOM     29  C   UNL     1       2.209   3.050  17.460  0.00  0.00    +0.000 C 
ATOM     30  C   UNL     1       1.121   3.206  18.519  0.00  0.00    +0.000 C 
ENDBRANCH  25  26
ENDBRANCH  24  25
ENDBRANCH  23  24
ENDBRANCH   6  23
TORSDOF 7
ENDMDL
MODEL 9
REMARK VINA RESULT:      -7.2      4.979      9.992
REMARK  Name = 
REMARK  8 active torsions:
REMARK  status: ('A' for Active; 'I' for Inactive)
REMARK    1  A    between atoms: C_1  and  O_2
REMARK    2  A    between atoms: O_2  and  C_3
REMARK    3  A    between atoms: C_6  and  N_7
REMARK    4  A    between atoms: C_10  and  C_11
REMARK    5  A    between atoms: C_22  and  O_23
REMARK    6  A    between atoms: O_23  and  C_24
REMARK    7  A    between atoms: C_24  and  C_25
REMARK    8  A    between atoms: C_25  and  N_26
REMARK                            x       y       z     vdW  Elec       q    Type
REMARK                         _______ _______ _______ _____ _____    ______ ____
ROOT
ATOM      1  C   UNL     1      -0.727  12.540  20.096  0.00  0.00    +0.000 A 
ATOM      2  C   UNL     1       0.360  12.208  20.898  0.00  0.00    +0.000 A 
ATOM      3  C   UNL     1       1.004  10.983  20.752  0.00  0.00    +0.000 A 
ATOM      4  C   UNL     1       0.616  10.065  19.776  0.00  0.00    +0.000 A 
ATOM      5  C   UNL     1      -0.419  10.437  18.903  0.00  0.00    +0.000 A 
ATOM      6  C   UNL     1      -1.100  11.663  19.053  0.00  0.00    +0.000 A 
ENDROOT
BRANCH   4   7
ATOM      7  N   UNL     1       1.243   8.792  19.704  0.00  0.00    +0.000 N 
ATOM      8  C   UNL     1       1.293   7.870  20.802  0.00  0.00    +0.000 C 
ATOM      9  C   UNL     1       2.134   6.774  20.250  0.00  0.00    +0.000 C 
ATOM     10  C   UNL     1       2.538   6.994  18.991  0.00  0.00    +0.000 C 
ATOM     11  C   UNL     1       1.930   8.294  18.594  0.00  0.00    +0.000 C 
ATOM     12  O   UNL     1       2.081   8.790  17.489  0.00  0.00    +0.000 OA
BRANCH  10  13
ATOM     13  C   UNL     1       3.452   6.182  18.177  0.00  0.00    +0.000 A 
ATOM     14  C   UNL     1       3.019   4.982  17.583  0.00  0.00    +0.000 A 
ATOM     15  C   UNL     1       3.877   4.209  16.795  0.00  0.00    +0.000 A 
ATOM     16  C   UNL     1       5.190   4.622  16.585  0.00  0.00    +0.000 A 
ATOM     17 CL   UNL     1       6.199   3.623  15.604  0.00  0.00    +0.000 Cl
ATOM     18  C   UNL     1       5.640   5.813  17.163  0.00  0.00    +0.000 A 
ATOM     19 CL   UNL     1       7.251   6.397  16.937  0.00  0.00    +0.000 Cl
ATOM     20  C   UNL     1       4.777   6.585  17.954  0.00  0.00    +0.000 A 
ENDBRANCH  10  13
ENDBRANCH   4   7
BRANCH   1  22
ATOM     21  C   UNL     1      -0.758  14.852  20.739  0.00  0.00    +0.000 C 
ATOM     22  O   UNL     1      -1.442  13.686  20.294  0.00  0.00    +0.000 OA
ENDBRANCH   1  22
BRANCH   6  23
ATOM     23  O   UNL     1      -2.142  11.840  18.156  0.00  0.00    +0.000 OA
BRANCH  23  24
ATOM     24  C   UNL     1      -2.746  10.624  17.705  0.00  0.00    +0.000 C 
BRANCH  24  25
ATOM     25  C   UNL     1      -4.282  10.690  17.666  0.00  0.00    +0.000 C 
BRANCH  25  26
ATOM     26  N   UNL     1      -4.888  11.972  18.094  0.00  0.00    +0.000 NA
ATOM     27  C   UNL     1      -5.512  11.911  19.422  0.00  0.00    +0.000 C 
ATOM     28  C   UNL     1      -6.998  11.717  19.182  0.00  0.00    +0.000 C 
ATOM     29  C   UNL     1      -7.245  12.505  17.913  0.00  0.00    +0.000 C 
ATOM     30  C   UNL     1      -5.914  12.482  17.166  0.00  0.00    +0.000 C 
ENDBRANCH  25  26
ENDBRANCH  24  25
ENDBRANCH  23  24
ENDBRANCH   6  23
TORSDOF 7
ENDMDL
