MODEL 1
REMARK VINA RESULT:      -8.1      0.000      0.000
REMARK  Name = 
REMARK  10 active torsions:
REMARK  status: ('A' for Active; 'I' for Inactive)
REMARK    1  A    between atoms: C_1  and  C_2
REMARK    2  A    between atoms: C_5  and  C_6
REMARK    3  A    between atoms: C_7  and  C_8
REMARK    4  A    between atoms: C_12  and  C_13
REMARK    5  A    between atoms: C_13  and  O_14
REMARK    6  A    between atoms: O_14  and  C_15
REMARK    7  A    between atoms: C_18  and  C_19
REMARK    8  A    between atoms: C_19  and  C_20
REMARK    9  A    between atoms: C_20  and  C_21
REMARK   10  A    between atoms: C_21  and  O_23
REMARK                            x       y       z     vdW  Elec       q    Type
REMARK                         _______ _______ _______ _____ _____    ______ ____
ROOT
ATOM      1  C   UNL     1       1.764   5.332  20.048  0.00  0.00    +0.000 C 
ENDROOT
BRANCH   1   6
ATOM      2  C   UNL     1       4.435   4.228  17.553  0.00  0.00    +0.000 A 
ATOM      3  C   UNL     1       3.948   2.962  17.209  0.00  0.00    +0.000 A 
ATOM      4  C   UNL     1       2.752   2.481  17.745  0.00  0.00    +0.000 A 
ATOM      5  C   UNL     1       2.036   3.254  18.654  0.00  0.00    +0.000 A 
ATOM      6  C   UNL     1       2.500   4.524  19.014  0.00  0.00    +0.000 A 
ATOM      7  C   UNL     1       3.701   4.992  18.465  0.00  0.00    +0.000 A 
BRANCH   2  14
ATOM      8  C   UNL     1       5.453   4.407  14.382  0.00  0.00    +0.000 C 
ATOM      9  C   UNL     1       6.130   4.821  15.636  0.00  0.00    +0.000 A 
ATOM     10  N   UNL     1       7.354   5.361  15.569  0.00  0.00    +0.000 NA
ATOM     11  O   UNL     1       7.704   5.665  16.866  0.00  0.00    +0.000 OA
ATOM     12  C   UNL     1       6.701   5.309  17.712  0.00  0.00    +0.000 A 
ATOM     13  C   UNL     1       6.961   5.561  19.144  0.00  0.00    +0.000 C 
ATOM     14  C   UNL     1       5.662   4.762  16.985  0.00  0.00    +0.000 A 
ENDBRANCH   2  14
ENDBRANCH   1   6
BRANCH   1  15
ATOM     15  O   UNL     1       2.487   6.526  20.388  0.00  0.00    +0.000 OA
BRANCH  15  16
ATOM     16  C   UNL     1       1.795   7.685  20.175  0.00  0.00    +0.000 A 
ATOM     17  C   UNL     1       0.994   8.295  21.141  0.00  0.00    +0.000 A 
ATOM     18  C   UNL     1       0.397   9.525  20.892  0.00  0.00    +0.000 A 
ATOM     19  C   UNL     1       0.565  10.156  19.655  0.00  0.00    +0.000 A 
ATOM     20  C   UNL     1       1.316   9.505  18.670  0.00  0.00    +0.000 A 
ATOM     21  F   UNL     1       1.480  10.078  17.472  0.00  0.00    +0.000 F 
ATOM     22  C   UNL     1       1.920   8.275  18.917  0.00  0.00    +0.000 A 
BRANCH  19  23
ATOM     23  C   UNL     1      -0.009  11.535  19.451  0.00  0.00    +0.000 C 
BRANCH  23  24
ATOM     24  C   UNL     1      -1.530  11.553  19.367  0.00  0.00    +0.000 C 
BRANCH  24  25
ATOM     25  C   UNL     1      -1.992  11.870  17.963  0.00  0.00    +0.000 C 
ATOM     26  O   UNL     1      -3.017  11.441  17.446  0.00  0.00    +0.000 OA
BRANCH  25  27
ATOM     27  O   UNL     1      -1.138  12.686  17.316  0.00  0.00    +0.000 OA
ATOM     28  H   UNL     1      -1.296  13.634  17.485  0.00  0.00    +0.000 HD
ENDBRANCH  25  27
ENDBRANCH  24  25
ENDBRANCH  23  24
ENDBRANCH  19  23
ENDBRANCH  15  16
ENDBRANCH   1  15
TORSDOF 8
ENDMDL
MODEL 2
REMARK VINA RESULT:      -8.0      1.436      1.895
REMARK  Name = 
REMARK  10 active torsions:
REMARK  status: ('A' for Active; 'I' for Inactive)
REMARK    1  A    between atoms: C_1  and  C_2
REMARK    2  A    between atoms: C_5  and  C_6
REMARK    3  A    between atoms: C_7  and  C_8
REMARK    4  A    between atoms: C_12  and  C_13
REMARK    5  A    between atoms: C_13  and  O_14
REMARK    6  A    between atoms: O_14  and  C_15
REMARK    7  A    between atoms: C_18  and  C_19
REMARK    8  A    between atoms: C_19  and  C_20
REMARK    9  A    between atoms: C_20  and  C_21
REMARK   10  A    between atoms: C_21  and  O_23
REMARK                            x       y       z     vdW  Elec       q    Type
REMARK                         _______ _______ _______ _____ _____    ______ ____
ROOT
ATOM      1  C   UNL     1       1.779   5.570  18.712  0.00  0.00    +0.000 C 
ENDROOT
BRANCH   1   6
ATOM      2  C   UNL     1       4.832   4.281  16.814  0.00  0.00    +0.000 A 
ATOM      3  C   UNL     1       4.709   2.906  17.047  0.00  0.00    +0.000 A 
ATOM      4  C   UNL     1       3.634   2.393  17.776  0.00  0.00    +0.000 A 
ATOM      5  C   UNL     1       2.677   3.253  18.303  0.00  0.00    +0.000 A 
ATOM      6  C   UNL     1       2.775   4.632  18.085  0.00  0.00    +0.000 A 
ATOM      7  C   UNL     1       3.859   5.130  17.349  0.00  0.00    +0.000 A 
BRANCH   2  14
ATOM      8  C   UNL     1       5.667   3.810  13.620  0.00  0.00    +0.000 C 
ATOM      9  C   UNL     1       6.318   4.624  14.676  0.00  0.00    +0.000 A 
ATOM     10  N   UNL     1       7.430   5.310  14.379  0.00  0.00    +0.000 NA
ATOM     11  O   UNL     1       7.779   5.980  15.530  0.00  0.00    +0.000 OA
ATOM     12  C   UNL     1       6.888   5.700  16.518  0.00  0.00    +0.000 A 
ATOM     13  C   UNL     1       7.163   6.340  17.820  0.00  0.00    +0.000 C 
ATOM     14  C   UNL     1       5.926   4.835  16.034  0.00  0.00    +0.000 A 
ENDBRANCH   2  14
ENDBRANCH   1   6
BRANCH   1  15
ATOM     15  O   UNL     1       2.409   6.432  19.673  0.00  0.00    +0.000 OA
BRANCH  15  16
ATOM     16  C   UNL     1       1.920   7.708  19.692  0.00  0.00    +0.000 A 
ATOM     17  C   UNL     1       1.882   8.537  18.571  0.00  0.00    +0.000 A 
ATOM     18  C   UNL     1       1.280   9.788  18.635  0.00  0.00    +0.000 A 
ATOM     19  C   UNL     1       0.730  10.248  19.837  0.00  0.00    +0.000 A 
ATOM     20  C   UNL     1       0.831   9.436  20.972  0.00  0.00    +0.000 A 
ATOM     21  F   UNL     1       0.327   9.857  22.137  0.00  0.00    +0.000 F 
ATOM     22  C   UNL     1       1.428   8.179  20.910  0.00  0.00    +0.000 A 
BRANCH  19  23
ATOM     23  C   UNL     1      -0.006  11.564  19.851  0.00  0.00    +0.000 C 
BRANCH  23  24
ATOM     24  C   UNL     1       0.737  12.683  19.132  0.00  0.00    +0.000 C 
BRANCH  24  25
ATOM     25  C   UNL     1      -0.225  13.589  18.398  0.00  0.00    +0.000 C 
ATOM     26  O   UNL     1      -0.317  14.799  18.562  0.00  0.00    +0.000 OA
BRANCH  25  27
ATOM     27  O   UNL     1      -0.999  12.913  17.527  0.00  0.00    +0.000 OA
ATOM     28  H   UNL     1      -0.810  11.956  17.494  0.00  0.00    +0.000 HD
ENDBRANCH  25  27
ENDBRANCH  24  25
ENDBRANCH  23  24
ENDBRANCH  19  23
ENDBRANCH  15  16
ENDBRANCH   1  15
TORSDOF 8
ENDMDL
MODEL 3
REMARK VINA RESULT:      -7.9      1.238      1.650
REMARK  Name = 
REMARK  10 active torsions:
REMARK  status: ('A' for Active; 'I' for Inactive)
REMARK    1  A    between atoms: C_1  and  C_2
REMARK    2  A    between atoms: C_5  and  C_6
REMARK    3  A    between atoms: C_7  and  C_8
REMARK    4  A    between atoms: C_12  and  C_13
REMARK    5  A    between atoms: C_13  and  O_14
REMARK    6  A    between atoms: O_14  and  C_15
REMARK    7  A    between atoms: C_18  and  C_19
REMARK    8  A    between atoms: C_19  and  C_20
REMARK    9  A    between atoms: C_20  and  C_21
REMARK   10  A    between atoms: C_21  and  O_23
REMARK                            x       y       z     vdW  Elec       q    Type
REMARK                         _______ _______ _______ _____ _____    ______ ____
ROOT
ATOM      1  C   UNL     1       1.802   5.569  18.844  0.00  0.00    +0.000 C 
ENDROOT
BRANCH   1   6
ATOM      2  C   UNL     1       4.780   4.286  16.828  0.00  0.00    +0.000 A 
ATOM      3  C   UNL     1       4.613   2.906  16.986  0.00  0.00    +0.000 A 
ATOM      4  C   UNL     1       3.532   2.389  17.702  0.00  0.00    +0.000 A 
ATOM      5  C   UNL     1       2.613   3.250  18.292  0.00  0.00    +0.000 A 
ATOM      6  C   UNL     1       2.756   4.635  18.150  0.00  0.00    +0.000 A 
ATOM      7  C   UNL     1       3.845   5.137  17.425  0.00  0.00    +0.000 A 
BRANCH   2  14
ATOM      8  C   UNL     1       5.677   3.797  13.653  0.00  0.00    +0.000 C 
ATOM      9  C   UNL     1       6.300   4.628  14.713  0.00  0.00    +0.000 A 
ATOM     10  N   UNL     1       7.409   5.325  14.429  0.00  0.00    +0.000 NA
ATOM     11  O   UNL     1       7.730   6.009  15.580  0.00  0.00    +0.000 OA
ATOM     12  C   UNL     1       6.825   5.727  16.556  0.00  0.00    +0.000 A 
ATOM     13  C   UNL     1       7.070   6.381  17.856  0.00  0.00    +0.000 C 
ATOM     14  C   UNL     1       5.882   4.847  16.062  0.00  0.00    +0.000 A 
ENDBRANCH   2  14
ENDBRANCH   1   6
BRANCH   1  15
ATOM     15  O   UNL     1       2.507   6.577  19.585  0.00  0.00    +0.000 OA
BRANCH  15  16
ATOM     16  C   UNL     1       1.966   7.829  19.491  0.00  0.00    +0.000 A 
ATOM     17  C   UNL     1       1.972   8.586  18.319  0.00  0.00    +0.000 A 
ATOM     18  C   UNL     1       1.317   9.810  18.263  0.00  0.00    +0.000 A 
ATOM     19  C   UNL     1       0.666  10.317  19.394  0.00  0.00    +0.000 A 
ATOM     20  C   UNL     1       0.721   9.580  20.582  0.00  0.00    +0.000 A 
ATOM     21  F   UNL     1       0.121  10.048  21.682  0.00  0.00    +0.000 F 
ATOM     22  C   UNL     1       1.372   8.351  20.641  0.00  0.00    +0.000 A 
BRANCH  19  23
ATOM     23  C   UNL     1      -0.122  11.596  19.275  0.00  0.00    +0.000 C 
BRANCH  23  24
ATOM     24  C   UNL     1      -1.630  11.385  19.302  0.00  0.00    +0.000 C 
BRANCH  24  25
ATOM     25  C   UNL     1      -2.141  10.947  17.948  0.00  0.00    +0.000 C 
ATOM     26  O   UNL     1      -2.279  11.681  16.977  0.00  0.00    +0.000 OA
BRANCH  25  27
ATOM     27  O   UNL     1      -2.446   9.635  17.918  0.00  0.00    +0.000 OA
ATOM     28  H   UNL     1      -3.400   9.455  17.825  0.00  0.00    +0.000 HD
ENDBRANCH  25  27
ENDBRANCH  24  25
ENDBRANCH  23  24
ENDBRANCH  19  23
ENDBRANCH  15  16
ENDBRANCH   1  15
TORSDOF 8
ENDMDL
MODEL 4
REMARK VINA RESULT:      -7.8      2.566      3.298
REMARK  Name = 
REMARK  10 active torsions:
REMARK  status: ('A' for Active; 'I' for Inactive)
REMARK    1  A    between atoms: C_1  and  C_2
REMARK    2  A    between atoms: C_5  and  C_6
REMARK    3  A    between atoms: C_7  and  C_8
REMARK    4  A    between atoms: C_12  and  C_13
REMARK    5  A    between atoms: C_13  and  O_14
REMARK    6  A    between atoms: O_14  and  C_15
REMARK    7  A    between atoms: C_18  and  C_19
REMARK    8  A    between atoms: C_19  and  C_20
REMARK    9  A    between atoms: C_20  and  C_21
REMARK   10  A    between atoms: C_21  and  O_23
REMARK                            x       y       z     vdW  Elec       q    Type
REMARK                         _______ _______ _______ _____ _____    ______ ____
ROOT
ATOM      1  C   UNL     1       2.022   6.697  20.139  0.00  0.00    +0.000 C 
ENDROOT
BRANCH   1   6
ATOM      2  C   UNL     1       4.270   4.793  17.709  0.00  0.00    +0.000 A 
ATOM      3  C   UNL     1       3.375   3.820  17.251  0.00  0.00    +0.000 A 
ATOM      4  C   UNL     1       2.049   3.797  17.690  0.00  0.00    +0.000 A 
ATOM      5  C   UNL     1       1.606   4.737  18.614  0.00  0.00    +0.000 A 
ATOM      6  C   UNL     1       2.480   5.722  19.088  0.00  0.00    +0.000 A 
ATOM      7  C   UNL     1       3.807   5.732  18.635  0.00  0.00    +0.000 A 
BRANCH   2  14
ATOM      8  C   UNL     1       7.085   5.473  19.364  0.00  0.00    +0.000 C 
ATOM      9  C   UNL     1       6.860   5.172  17.927  0.00  0.00    +0.000 A 
ATOM     10  N   UNL     1       7.907   5.155  17.093  0.00  0.00    +0.000 NA
ATOM     11  O   UNL     1       7.399   4.825  15.856  0.00  0.00    +0.000 OA
ATOM     12  C   UNL     1       6.054   4.647  15.940  0.00  0.00    +0.000 A 
ATOM     13  C   UNL     1       5.378   4.310  14.671  0.00  0.00    +0.000 C 
ATOM     14  C   UNL     1       5.646   4.855  17.244  0.00  0.00    +0.000 A 
ENDBRANCH   2  14
ENDBRANCH   1   6
BRANCH   1  15
ATOM     15  O   UNL     1       1.844   8.011  19.588  0.00  0.00    +0.000 OA
BRANCH  15  16
ATOM     16  C   UNL     1       1.122   8.861  20.378  0.00  0.00    +0.000 A 
ATOM     17  C   UNL     1       0.300   9.871  19.876  0.00  0.00    +0.000 A 
ATOM     18  C   UNL     1      -0.485  10.636  20.731  0.00  0.00    +0.000 A 
ATOM     19  C   UNL     1      -0.438  10.425  22.114  0.00  0.00    +0.000 A 
ATOM     20  C   UNL     1       0.439   9.454  22.611  0.00  0.00    +0.000 A 
ATOM     21  F   UNL     1       0.515   9.242  23.930  0.00  0.00    +0.000 F 
ATOM     22  C   UNL     1       1.222   8.682  21.758  0.00  0.00    +0.000 A 
BRANCH  19  23
ATOM     23  C   UNL     1      -1.374  11.198  23.006  0.00  0.00    +0.000 C 
BRANCH  23  24
ATOM     24  C   UNL     1      -2.119  12.313  22.284  0.00  0.00    +0.000 C 
BRANCH  24  25
ATOM     25  C   UNL     1      -3.455  12.586  22.939  0.00  0.00    +0.000 C 
ATOM     26  O   UNL     1      -3.899  11.983  23.908  0.00  0.00    +0.000 OA
BRANCH  25  27
ATOM     27  O   UNL     1      -4.129  13.579  22.328  0.00  0.00    +0.000 OA
ATOM     28  H   UNL     1      -4.924  13.871  22.814  0.00  0.00    +0.000 HD
ENDBRANCH  25  27
ENDBRANCH  24  25
ENDBRANCH  23  24
ENDBRANCH  19  23
ENDBRANCH  15  16
ENDBRANCH   1  15
TORSDOF 8
ENDMDL
MODEL 5
REMARK VINA RESULT:      -7.8      6.274      9.394
REMARK  Name = 
REMARK  10 active torsions:
REMARK  status: ('A' for Active; 'I' for Inactive)
REMARK    1  A    between atoms: C_1  and  C_2
REMARK    2  A    between atoms: C_5  and  C_6
REMARK    3  A    between atoms: C_7  and  C_8
REMARK    4  A    between atoms: C_12  and  C_13
REMARK    5  A    between atoms: C_13  and  O_14
REMARK    6  A    between atoms: O_14  and  C_15
REMARK    7  A    between atoms: C_18  and  C_19
REMARK    8  A    between atoms: C_19  and  C_20
REMARK    9  A    between atoms: C_20  and  C_21
REMARK   10  A    between atoms: C_21  and  O_23
REMARK                            x       y       z     vdW  Elec       q    Type
REMARK                         _______ _______ _______ _____ _____    ______ ____
ROOT
ATOM      1  C   UNL     1       8.243   9.342  17.946  0.00  0.00    +0.000 C 
ENDROOT
BRANCH   1   6
ATOM      2  C   UNL     1       9.710  12.772  18.759  0.00  0.00    +0.000 A 
ATOM      3  C   UNL     1      10.035  12.592  20.108  0.00  0.00    +0.000 A 
ATOM      4  C   UNL     1       9.821  11.367  20.742  0.00  0.00    +0.000 A 
ATOM      5  C   UNL     1       9.254  10.309  20.039  0.00  0.00    +0.000 A 
ATOM      6  C   UNL     1       8.919  10.462  18.689  0.00  0.00    +0.000 A 
ATOM      7  C   UNL     1       9.143  11.698  18.067  0.00  0.00    +0.000 A 
BRANCH   2  14
ATOM      8  C   UNL     1       7.807  15.500  18.503  0.00  0.00    +0.000 C 
ATOM      9  C   UNL     1       9.139  15.196  17.922  0.00  0.00    +0.000 A 
ATOM     10  N   UNL     1       9.741  16.115  17.156  0.00  0.00    +0.000 NA
ATOM     11  O   UNL     1      10.952  15.568  16.793  0.00  0.00    +0.000 OA
ATOM     12  C   UNL     1      11.081  14.327  17.332  0.00  0.00    +0.000 A 
ATOM     13  C   UNL     1      12.332  13.617  16.999  0.00  0.00    +0.000 C 
ATOM     14  C   UNL     1       9.951  14.030  18.069  0.00  0.00    +0.000 A 
ENDBRANCH   2  14
ENDBRANCH   1   6
BRANCH   1  15
ATOM     15  O   UNL     1       8.598   8.063  18.495  0.00  0.00    +0.000 OA
BRANCH  15  16
ATOM     16  C   UNL     1       7.686   7.074  18.257  0.00  0.00    +0.000 A 
ATOM     17  C   UNL     1       7.591   5.911  19.021  0.00  0.00    +0.000 A 
ATOM     18  C   UNL     1       6.576   4.990  18.788  0.00  0.00    +0.000 A 
ATOM     19  C   UNL     1       5.651   5.202  17.759  0.00  0.00    +0.000 A 
ATOM     20  C   UNL     1       5.795   6.339  16.956  0.00  0.00    +0.000 A 
ATOM     21  F   UNL     1       4.934   6.559  15.956  0.00  0.00    +0.000 F 
ATOM     22  C   UNL     1       6.806   7.267  17.190  0.00  0.00    +0.000 A 
BRANCH  19  23
ATOM     23  C   UNL     1       4.502   4.240  17.596  0.00  0.00    +0.000 C 
BRANCH  23  24
ATOM     24  C   UNL     1       3.871   3.818  18.916  0.00  0.00    +0.000 C 
BRANCH  24  25
ATOM     25  C   UNL     1       3.166   2.487  18.779  0.00  0.00    +0.000 C 
ATOM     26  O   UNL     1       3.707   1.433  18.466  0.00  0.00    +0.000 OA
BRANCH  25  27
ATOM     27  O   UNL     1       1.847   2.580  19.034  0.00  0.00    +0.000 OA
ATOM     28  H   UNL     1       1.627   2.540  19.984  0.00  0.00    +0.000 HD
ENDBRANCH  25  27
ENDBRANCH  24  25
ENDBRANCH  23  24
ENDBRANCH  19  23
ENDBRANCH  15  16
ENDBRANCH   1  15
TORSDOF 8
ENDMDL
MODEL 6
REMARK VINA RESULT:      -7.8      0.684      1.783
REMARK  Name = 
REMARK  10 active torsions:
REMARK  status: ('A' for Active; 'I' for Inactive)
REMARK    1  A    between atoms: C_1  and  C_2
REMARK    2  A    between atoms: C_5  and  C_6
REMARK    3  A    between atoms: C_7  and  C_8
REMARK    4  A    between atoms: C_12  and  C_13
REMARK    5  A    between atoms: C_13  and  O_14
REMARK    6  A    between atoms: O_14  and  C_15
REMARK    7  A    between atoms: C_18  and  C_19
REMARK    8  A    between atoms: C_19  and  C_20
REMARK    9  A    between atoms: C_20  and  C_21
REMARK   10  A    between atoms: C_21  and  O_23
REMARK                            x       y       z     vdW  Elec       q    Type
REMARK                         _______ _______ _______ _____ _____    ______ ____
ROOT
ATOM      1  C   UNL     1       1.525   5.202  19.602  0.00  0.00    +0.000 C 
ENDROOT
BRANCH   1   6
ATOM      2  C   UNL     1       4.525   4.123  17.500  0.00  0.00    +0.000 A 
ATOM      3  C   UNL     1       4.203   2.780  17.275  0.00  0.00    +0.000 A 
ATOM      4  C   UNL     1       3.013   2.234  17.762  0.00  0.00    +0.000 A 
ATOM      5  C   UNL     1       2.139   3.021  18.503  0.00  0.00    +0.000 A 
ATOM      6  C   UNL     1       2.436   4.368  18.743  0.00  0.00    +0.000 A 
ATOM      7  C   UNL     1       3.633   4.901  18.244  0.00  0.00    +0.000 A 
BRANCH   2  14
ATOM      8  C   UNL     1       7.044   5.633  19.081  0.00  0.00    +0.000 C 
ATOM      9  C   UNL     1       6.818   5.398  17.633  0.00  0.00    +0.000 A 
ATOM     10  N   UNL     1       7.727   5.835  16.752  0.00  0.00    +0.000 NA
ATOM     11  O   UNL     1       7.265   5.452  15.512  0.00  0.00    +0.000 OA
ATOM     12  C   UNL     1       6.084   4.790  15.641  0.00  0.00    +0.000 A 
ATOM     13  C   UNL     1       5.466   4.343  14.377  0.00  0.00    +0.000 C 
ATOM     14  C   UNL     1       5.743   4.721  16.978  0.00  0.00    +0.000 A 
ENDBRANCH   2  14
ENDBRANCH   1   6
BRANCH   1  15
ATOM     15  O   UNL     1       2.263   6.194  20.333  0.00  0.00    +0.000 OA
BRANCH  15  16
ATOM     16  C   UNL     1       1.750   7.458  20.245  0.00  0.00    +0.000 A 
ATOM     17  C   UNL     1       1.101   8.103  21.299  0.00  0.00    +0.000 A 
ATOM     18  C   UNL     1       0.692   9.425  21.175  0.00  0.00    +0.000 A 
ATOM     19  C   UNL     1       0.896  10.120  19.978  0.00  0.00    +0.000 A 
ATOM     20  C   UNL     1       1.488   9.443  18.905  0.00  0.00    +0.000 A 
ATOM     21  F   UNL     1       1.681  10.079  17.744  0.00  0.00    +0.000 F 
ATOM     22  C   UNL     1       1.905   8.121  19.027  0.00  0.00    +0.000 A 
BRANCH  19  23
ATOM     23  C   UNL     1       0.534  11.582  19.907  0.00  0.00    +0.000 C 
BRANCH  23  24
ATOM     24  C   UNL     1      -0.871  11.835  19.375  0.00  0.00    +0.000 C 
BRANCH  24  25
ATOM     25  C   UNL     1      -0.854  12.863  18.267  0.00  0.00    +0.000 C 
ATOM     26  O   UNL     1      -0.351  13.977  18.348  0.00  0.00    +0.000 OA
BRANCH  25  27
ATOM     27  O   UNL     1      -1.471  12.423  17.153  0.00  0.00    +0.000 OA
ATOM     28  H   UNL     1      -1.871  13.135  16.619  0.00  0.00    +0.000 HD
ENDBRANCH  25  27
ENDBRANCH  24  25
ENDBRANCH  23  24
ENDBRANCH  19  23
ENDBRANCH  15  16
ENDBRANCH   1  15
TORSDOF 8
ENDMDL
MODEL 7
REMARK VINA RESULT:      -7.7      2.742      3.159
REMARK  Name = 
REMARK  10 active torsions:
REMARK  status: ('A' for Active; 'I' for Inactive)
REMARK    1  A    between atoms: C_1  and  C_2
REMARK    2  A    between atoms: C_5  and  C_6
REMARK    3  A    between atoms: C_7  and  C_8
REMARK    4  A    between atoms: C_12  and  C_13
REMARK    5  A    between atoms: C_13  and  O_14
REMARK    6  A    between atoms: O_14  and  C_15
REMARK    7  A    between atoms: C_18  and  C_19
REMARK    8  A    between atoms: C_19  and  C_20
REMARK    9  A    between atoms: C_20  and  C_21
REMARK   10  A    between atoms: C_21  and  O_23
REMARK                            x       y       z     vdW  Elec       q    Type
REMARK                         _______ _______ _______ _____ _____    ______ ____
ROOT
ATOM      1  C   UNL     1       2.259   7.184  20.002  0.00  0.00    +0.000 C 
ENDROOT
BRANCH   1   6
ATOM      2  C   UNL     1       4.303   4.984  17.644  0.00  0.00    +0.000 A 
ATOM      3  C   UNL     1       3.333   4.046  17.273  0.00  0.00    +0.000 A 
ATOM      4  C   UNL     1       2.022   4.140  17.746  0.00  0.00    +0.000 A 
ATOM      5  C   UNL     1       1.670   5.165  18.619  0.00  0.00    +0.000 A 
ATOM      6  C   UNL     1       2.621   6.116  19.005  0.00  0.00    +0.000 A 
ATOM      7  C   UNL     1       3.931   6.008  18.519  0.00  0.00    +0.000 A 
BRANCH   2  14
ATOM      8  C   UNL     1       5.450   4.396  14.567  0.00  0.00    +0.000 C 
ATOM      9  C   UNL     1       6.178   4.643  15.837  0.00  0.00    +0.000 A 
ATOM     10  N   UNL     1       7.518   4.644  15.830  0.00  0.00    +0.000 NA
ATOM     11  O   UNL     1       7.902   4.925  17.122  0.00  0.00    +0.000 OA
ATOM     12  C   UNL     1       6.803   5.090  17.907  0.00  0.00    +0.000 A 
ATOM     13  C   UNL     1       7.077   5.374  19.330  0.00  0.00    +0.000 C 
ATOM     14  C   UNL     1       5.666   4.922  17.141  0.00  0.00    +0.000 A 
ENDBRANCH   2  14
ENDBRANCH   1   6
BRANCH   1  15
ATOM     15  O   UNL     1       1.573   8.276  19.370  0.00  0.00    +0.000 OA
BRANCH  15  16
ATOM     16  C   UNL     1       0.977   9.147  20.239  0.00  0.00    +0.000 A 
ATOM     17  C   UNL     1       0.417  10.364  19.850  0.00  0.00    +0.000 A 
ATOM     18  C   UNL     1      -0.262  11.157  20.768  0.00  0.00    +0.000 A 
ATOM     19  C   UNL     1      -0.366  10.760  22.105  0.00  0.00    +0.000 A 
ATOM     20  C   UNL     1       0.256   9.570  22.499  0.00  0.00    +0.000 A 
ATOM     21  F   UNL     1       0.186   9.175  23.775  0.00  0.00    +0.000 F 
ATOM     22  C   UNL     1       0.932   8.770  21.582  0.00  0.00    +0.000 A 
BRANCH  19  23
ATOM     23  C   UNL     1      -1.194  11.589  23.054  0.00  0.00    +0.000 C 
BRANCH  23  24
ATOM     24  C   UNL     1      -2.508  12.070  22.451  0.00  0.00    +0.000 C 
BRANCH  24  25
ATOM     25  C   UNL     1      -3.344  12.794  23.483  0.00  0.00    +0.000 C 
ATOM     26  O   UNL     1      -3.117  13.920  23.908  0.00  0.00    +0.000 OA
BRANCH  25  27
ATOM     27  O   UNL     1      -4.388  12.054  23.904  0.00  0.00    +0.000 OA
ATOM     28  H   UNL     1      -4.129  11.272  24.428  0.00  0.00    +0.000 HD
ENDBRANCH  25  27
ENDBRANCH  24  25
ENDBRANCH  23  24
ENDBRANCH  19  23
ENDBRANCH  15  16
ENDBRANCH   1  15
TORSDOF 8
ENDMDL
MODEL 8
REMARK VINA RESULT:      -7.7      1.744      2.473
REMARK  Name = 
REMARK  10 active torsions:
REMARK  status: ('A' for Active; 'I' for Inactive)
REMARK    1  A    between atoms: C_1  and  C_2
REMARK    2  A    between atoms: C_5  and  C_6
REMARK    3  A    between atoms: C_7  and  C_8
REMARK    4  A    between atoms: C_12  and  C_13
REMARK    5  A    between atoms: C_13  and  O_14
REMARK    6  A    between atoms: O_14  and  C_15
REMARK    7  A    between atoms: C_18  and  C_19
REMARK    8  A    between atoms: C_19  and  C_20
REMARK    9  A    between atoms: C_20  and  C_21
REMARK   10  A    between atoms: C_21  and  O_23
REMARK                            x       y       z     vdW  Elec       q    Type
REMARK                         _______ _______ _______ _____ _____    ______ ____
ROOT
ATOM      1  C   UNL     1       2.204   8.281  18.080  0.00  0.00    +0.000 C 
ENDROOT
BRANCH   1   6
ATOM      2  C   UNL     1       4.751   5.438  18.179  0.00  0.00    +0.000 A 
ATOM      3  C   UNL     1       4.198   4.642  19.189  0.00  0.00    +0.000 A 
ATOM      4  C   UNL     1       2.997   4.995  19.807  0.00  0.00    +0.000 A 
ATOM      5  C   UNL     1       2.343   6.165  19.438  0.00  0.00    +0.000 A 
ATOM      6  C   UNL     1       2.874   6.980  18.432  0.00  0.00    +0.000 A 
ATOM      7  C   UNL     1       4.079   6.609  17.820  0.00  0.00    +0.000 A 
BRANCH   2  14
ATOM      8  C   UNL     1       5.259   4.209  15.120  0.00  0.00    +0.000 C 
ATOM      9  C   UNL     1       6.222   4.521  16.206  0.00  0.00    +0.000 A 
ATOM     10  N   UNL     1       7.527   4.298  16.004  0.00  0.00    +0.000 NA
ATOM     11  O   UNL     1       8.163   4.703  17.156  0.00  0.00    +0.000 OA
ATOM     12  C   UNL     1       7.249   5.165  18.052  0.00  0.00    +0.000 A 
ATOM     13  C   UNL     1       7.800   5.611  19.347  0.00  0.00    +0.000 C 
ATOM     14  C   UNL     1       5.986   5.075  17.501  0.00  0.00    +0.000 A 
ENDBRANCH   2  14
ENDBRANCH   1   6
BRANCH   1  15
ATOM     15  O   UNL     1       1.869   9.030  19.258  0.00  0.00    +0.000 OA
BRANCH  15  16
ATOM     16  C   UNL     1       0.680   9.699  19.183  0.00  0.00    +0.000 A 
ATOM     17  C   UNL     1       0.170  10.487  20.215  0.00  0.00    +0.000 A 
ATOM     18  C   UNL     1      -0.997  11.221  20.035  0.00  0.00    +0.000 A 
ATOM     19  C   UNL     1      -1.696  11.155  18.825  0.00  0.00    +0.000 A 
ATOM     20  C   UNL     1      -1.211  10.311  17.820  0.00  0.00    +0.000 A 
ATOM     21  F   UNL     1      -1.868  10.217  16.658  0.00  0.00    +0.000 F 
ATOM     22  C   UNL     1      -0.040   9.578  17.993  0.00  0.00    +0.000 A 
BRANCH  19  23
ATOM     23  C   UNL     1      -2.900  12.039  18.624  0.00  0.00    +0.000 C 
BRANCH  23  24
ATOM     24  C   UNL     1      -4.220  11.281  18.643  0.00  0.00    +0.000 C 
BRANCH  24  25
ATOM     25  C   UNL     1      -5.108  11.708  17.495  0.00  0.00    +0.000 C 
ATOM     26  O   UNL     1      -6.333  11.703  17.513  0.00  0.00    +0.000 OA
BRANCH  25  27
ATOM     27  O   UNL     1      -4.398  12.097  16.418  0.00  0.00    +0.000 OA
ATOM     28  H   UNL     1      -3.626  12.653  16.637  0.00  0.00    +0.000 HD
ENDBRANCH  25  27
ENDBRANCH  24  25
ENDBRANCH  23  24
ENDBRANCH  19  23
ENDBRANCH  15  16
ENDBRANCH   1  15
TORSDOF 8
ENDMDL
MODEL 9
REMARK VINA RESULT:      -7.6      2.412      2.761
REMARK  Name = 
REMARK  10 active torsions:
REMARK  status: ('A' for Active; 'I' for Inactive)
REMARK    1  A    between atoms: C_1  and  C_2
REMARK    2  A    between atoms: C_5  and  C_6
REMARK    3  A    between atoms: C_7  and  C_8
REMARK    4  A    between atoms: C_12  and  C_13
REMARK    5  A    between atoms: C_13  and  O_14
REMARK    6  A    between atoms: O_14  and  C_15
REMARK    7  A    between atoms: C_18  and  C_19
REMARK    8  A    between atoms: C_19  and  C_20
REMARK    9  A    between atoms: C_20  and  C_21
REMARK   10  A    between atoms: C_21  and  O_23
REMARK                            x       y       z     vdW  Elec       q    Type
REMARK                         _______ _______ _______ _____ _____    ______ ____
ROOT
ATOM      1  C   UNL     1       1.798   7.274  18.595  0.00  0.00    +0.000 C 
ENDROOT
BRANCH   1   6
ATOM      2  C   UNL     1       4.491   5.132  16.940  0.00  0.00    +0.000 A 
ATOM      3  C   UNL     1       3.966   3.854  17.161  0.00  0.00    +0.000 A 
ATOM      4  C   UNL     1       2.737   3.682  17.804  0.00  0.00    +0.000 A 
ATOM      5  C   UNL     1       2.028   4.790  18.255  0.00  0.00    +0.000 A 
ATOM      6  C   UNL     1       2.530   6.079  18.047  0.00  0.00    +0.000 A 
ATOM      7  C   UNL     1       3.763   6.234  17.398  0.00  0.00    +0.000 A 
BRANCH   2  14
ATOM      8  C   UNL     1       5.498   4.111  13.929  0.00  0.00    +0.000 C 
ATOM      9  C   UNL     1       6.215   4.884  14.974  0.00  0.00    +0.000 A 
ATOM     10  N   UNL     1       7.478   5.270  14.749  0.00  0.00    +0.000 NA
ATOM     11  O   UNL     1       7.860   5.981  15.865  0.00  0.00    +0.000 OA
ATOM     12  C   UNL     1       6.838   6.022  16.761  0.00  0.00    +0.000 A 
ATOM     13  C   UNL     1       7.127   6.738  18.019  0.00  0.00    +0.000 C 
ATOM     14  C   UNL     1       5.754   5.337  16.248  0.00  0.00    +0.000 A 
ENDBRANCH   2  14
ENDBRANCH   1   6
BRANCH   1  15
ATOM     15  O   UNL     1       2.134   7.505  19.972  0.00  0.00    +0.000 OA
BRANCH  15  16
ATOM     16  C   UNL     1       1.428   8.513  20.564  0.00  0.00    +0.000 A 
ATOM     17  C   UNL     1       0.873   9.583  19.862  0.00  0.00    +0.000 A 
ATOM     18  C   UNL     1       0.080  10.522  20.511  0.00  0.00    +0.000 A 
ATOM     19  C   UNL     1      -0.146  10.426  21.889  0.00  0.00    +0.000 A 
ATOM     20  C   UNL     1       0.468   9.387  22.595  0.00  0.00    +0.000 A 
ATOM     21  F   UNL     1       0.281   9.279  23.916  0.00  0.00    +0.000 F 
ATOM     22  C   UNL     1       1.258   8.440  21.948  0.00  0.00    +0.000 A 
BRANCH  19  23
ATOM     23  C   UNL     1      -1.092  11.399  22.547  0.00  0.00    +0.000 C 
BRANCH  23  24
ATOM     24  C   UNL     1      -1.949  12.177  21.556  0.00  0.00    +0.000 C 
BRANCH  24  25
ATOM     25  C   UNL     1      -3.199  12.708  22.221  0.00  0.00    +0.000 C 
ATOM     26  O   UNL     1      -4.335  12.586  21.781  0.00  0.00    +0.000 OA
BRANCH  25  27
ATOM     27  O   UNL     1      -2.930  13.352  23.373  0.00  0.00    +0.000 OA
ATOM     28  H   UNL     1      -2.744  12.756  24.123  0.00  0.00    +0.000 HD
ENDBRANCH  25  27
ENDBRANCH  24  25
ENDBRANCH  23  24
ENDBRANCH  19  23
ENDBRANCH  15  16
ENDBRANCH   1  15
TORSDOF 8
ENDMDL
