MODEL 1
REMARK VINA RESULT:      -6.0      0.000      0.000
REMARK  Name = 
REMARK  5 active torsions:
REMARK  status: ('A' for Active; 'I' for Inactive)
REMARK    1  A    between atoms: C_1  and  O_2
REMARK    2  A    between atoms: O_2  and  C_3
REMARK    3  A    between atoms: C_3  and  C_4
REMARK    4  A    between atoms: N_12  and  C_13
REMARK    5  A    between atoms: C_13  and  C_14
REMARK                            x       y       z     vdW  Elec       q    Type
REMARK                         _______ _______ _______ _____ _____    ______ ____
ROOT
ATOM      1  C   UNL     1       5.781   5.747  15.787  0.00  0.00    +0.000 C 
ATOM      2  C   UNL     1       7.264   5.420  16.036  0.00  0.00    +0.000 C 
ATOM      3  O   UNL     1       7.996   6.566  16.460  0.00  0.00    +0.000 OA
ATOM      4  C   UNL     1       7.511   7.103  17.688  0.00  0.00    +0.000 C 
ATOM      5  C   UNL     1       6.057   7.526  17.546  0.00  0.00    +0.000 C 
ATOM      6  C   UNL     1       5.124   6.363  17.083  0.00  0.00    +0.000 C 
ATOM      7  C   UNL     1       4.992   5.295  18.204  0.00  0.00    +0.000 C 
ATOM      8  C   UNL     1       4.166   5.774  19.401  0.00  0.00    +0.000 C 
ATOM      9  N   UNL     1       2.823   6.242  19.034  0.00  0.00    +0.000 NA
ATOM     10  C   UNL     1       2.935   7.343  18.064  0.00  0.00    +0.000 C 
ATOM     11  C   UNL     1       3.721   6.975  16.798  0.00  0.00    +0.000 C 
ENDROOT
BRANCH   1  12
ATOM     12  C   UNL     1       5.111   4.495  15.181  0.00  0.00    +0.000 C 
BRANCH  12  14
ATOM     13  C   UNL     1       5.979   3.638  13.152  0.00  0.00    +0.000 C 
ATOM     14  O   UNL     1       6.078   3.650  14.568  0.00  0.00    +0.000 OA
ENDBRANCH  12  14
ENDBRANCH   1  12
BRANCH   9  15
ATOM     15  C   UNL     1       1.945   5.163  18.530  0.00  0.00    +0.000 C 
BRANCH  15  16
ATOM     16  C   UNL     1       1.813   4.027  19.511  0.00  0.00    +0.000 A 
ATOM     17  C   UNL     1       1.191   4.034  20.745  0.00  0.00    +0.000 A 
ATOM     18  C   UNL     1       1.326   2.792  21.428  0.00  0.00    +0.000 A 
ATOM     19  C   UNL     1       2.028   1.869  20.685  0.00  0.00    +0.000 A 
ATOM     20  S   UNL     1       2.503   2.494  19.166  0.00  0.00    +0.000 S 
ENDBRANCH  15  16
ENDBRANCH   9  15
TORSDOF 4
ENDMDL
MODEL 2
REMARK VINA RESULT:      -5.9      3.458      6.619
REMARK  Name = 
REMARK  5 active torsions:
REMARK  status: ('A' for Active; 'I' for Inactive)
REMARK    1  A    between atoms: C_1  and  O_2
REMARK    2  A    between atoms: O_2  and  C_3
REMARK    3  A    between atoms: C_3  and  C_4
REMARK    4  A    between atoms: N_12  and  C_13
REMARK    5  A    between atoms: C_13  and  C_14
REMARK                            x       y       z     vdW  Elec       q    Type
REMARK                         _______ _______ _______ _____ _____    ______ ____
ROOT
ATOM      1  C   UNL     1       3.760   2.823  20.783  0.00  0.00    +0.000 C 
ATOM      2  C   UNL     1       2.433   2.227  21.286  0.00  0.00    +0.000 C 
ATOM      3  O   UNL     1       1.509   3.240  21.671  0.00  0.00    +0.000 OA
ATOM      4  C   UNL     1       1.157   4.100  20.590  0.00  0.00    +0.000 C 
ATOM      5  C   UNL     1       2.392   4.802  20.045  0.00  0.00    +0.000 C 
ATOM      6  C   UNL     1       3.504   3.809  19.579  0.00  0.00    +0.000 C 
ATOM      7  C   UNL     1       3.043   3.038  18.311  0.00  0.00    +0.000 C 
ATOM      8  C   UNL     1       2.991   3.913  17.055  0.00  0.00    +0.000 C 
ATOM      9  N   UNL     1       4.261   4.588  16.762  0.00  0.00    +0.000 NA
ATOM     10  C   UNL     1       4.649   5.426  17.908  0.00  0.00    +0.000 C 
ATOM     11  C   UNL     1       4.765   4.653  19.229  0.00  0.00    +0.000 C 
ENDROOT
BRANCH   1  12
ATOM     12  C   UNL     1       4.746   1.658  20.545  0.00  0.00    +0.000 C 
BRANCH  12  14
ATOM     13  C   UNL     1       5.934   0.087  21.858  0.00  0.00    +0.000 C 
ATOM     14  O   UNL     1       5.567   1.447  21.687  0.00  0.00    +0.000 OA
ENDBRANCH  12  14
ENDBRANCH   1  12
BRANCH   9  15
ATOM     15  C   UNL     1       5.345   3.657  16.381  0.00  0.00    +0.000 C 
BRANCH  15  16
ATOM     16  C   UNL     1       5.980   4.024  15.064  0.00  0.00    +0.000 A 
ATOM     17  C   UNL     1       5.654   3.562  13.804  0.00  0.00    +0.000 A 
ATOM     18  C   UNL     1       6.519   4.077  12.796  0.00  0.00    +0.000 A 
ATOM     19  C   UNL     1       7.465   4.933  13.318  0.00  0.00    +0.000 A 
ATOM     20  S   UNL     1       7.294   5.126  15.008  0.00  0.00    +0.000 S 
ENDBRANCH  15  16
ENDBRANCH   9  15
TORSDOF 4
ENDMDL
MODEL 3
REMARK VINA RESULT:      -5.8      3.215      6.003
REMARK  Name = 
REMARK  5 active torsions:
REMARK  status: ('A' for Active; 'I' for Inactive)
REMARK    1  A    between atoms: C_1  and  O_2
REMARK    2  A    between atoms: O_2  and  C_3
REMARK    3  A    between atoms: C_3  and  C_4
REMARK    4  A    between atoms: N_12  and  C_13
REMARK    5  A    between atoms: C_13  and  C_14
REMARK                            x       y       z     vdW  Elec       q    Type
REMARK                         _______ _______ _______ _____ _____    ______ ____
ROOT
ATOM      1  C   UNL     1       4.149   4.531  19.551  0.00  0.00    +0.000 C 
ATOM      2  C   UNL     1       2.613   4.563  19.644  0.00  0.00    +0.000 C 
ATOM      3  O   UNL     1       2.131   5.850  20.018  0.00  0.00    +0.000 OA
ATOM      4  C   UNL     1       2.478   6.860  19.075  0.00  0.00    +0.000 C 
ATOM      5  C   UNL     1       3.990   6.968  18.943  0.00  0.00    +0.000 C 
ATOM      6  C   UNL     1       4.665   5.621  18.534  0.00  0.00    +0.000 C 
ATOM      7  C   UNL     1       4.286   5.248  17.073  0.00  0.00    +0.000 C 
ATOM      8  C   UNL     1       4.947   6.150  16.027  0.00  0.00    +0.000 C 
ATOM      9  N   UNL     1       6.411   6.198  16.138  0.00  0.00    +0.000 NA
ATOM     10  C   UNL     1       6.786   6.673  17.479  0.00  0.00    +0.000 C 
ATOM     11  C   UNL     1       6.206   5.827  18.621  0.00  0.00    +0.000 C 
ENDROOT
BRANCH   1  12
ATOM     12  C   UNL     1       4.582   3.070  19.301  0.00  0.00    +0.000 C 
BRANCH  12  14
ATOM     13  C   UNL     1       3.396   1.629  17.844  0.00  0.00    +0.000 C 
ATOM     14  O   UNL     1       3.448   2.228  19.130  0.00  0.00    +0.000 OA
ENDBRANCH  12  14
ENDBRANCH   1  12
BRANCH   9  15
ATOM     15  C   UNL     1       7.065   4.911  15.817  0.00  0.00    +0.000 C 
BRANCH  15  16
ATOM     16  C   UNL     1       6.865   4.510  14.378  0.00  0.00    +0.000 A 
ATOM     17  C   UNL     1       5.935   3.631  13.860  0.00  0.00    +0.000 A 
ATOM     18  C   UNL     1       6.087   3.442  12.457  0.00  0.00    +0.000 A 
ATOM     19  C   UNL     1       7.117   4.201  11.945  0.00  0.00    +0.000 A 
ATOM     20  S   UNL     1       7.878   5.148  13.148  0.00  0.00    +0.000 S 
ENDBRANCH  15  16
ENDBRANCH   9  15
TORSDOF 4
ENDMDL
MODEL 4
REMARK VINA RESULT:      -5.8      2.182      4.363
REMARK  Name = 
REMARK  5 active torsions:
REMARK  status: ('A' for Active; 'I' for Inactive)
REMARK    1  A    between atoms: C_1  and  O_2
REMARK    2  A    between atoms: O_2  and  C_3
REMARK    3  A    between atoms: C_3  and  C_4
REMARK    4  A    between atoms: N_12  and  C_13
REMARK    5  A    between atoms: C_13  and  C_14
REMARK                            x       y       z     vdW  Elec       q    Type
REMARK                         _______ _______ _______ _____ _____    ______ ____
ROOT
ATOM      1  C   UNL     1       6.840   5.243  17.392  0.00  0.00    +0.000 C 
ATOM      2  C   UNL     1       7.180   5.398  15.899  0.00  0.00    +0.000 C 
ATOM      3  O   UNL     1       6.889   4.214  15.162  0.00  0.00    +0.000 OA
ATOM      4  C   UNL     1       5.507   3.869  15.206  0.00  0.00    +0.000 C 
ATOM      5  C   UNL     1       5.064   3.625  16.641  0.00  0.00    +0.000 C 
ATOM      6  C   UNL     1       5.324   4.848  17.576  0.00  0.00    +0.000 C 
ATOM      7  C   UNL     1       4.388   6.028  17.196  0.00  0.00    +0.000 C 
ATOM      8  C   UNL     1       2.922   5.781  17.562  0.00  0.00    +0.000 C 
ATOM      9  N   UNL     1       2.721   5.457  18.980  0.00  0.00    +0.000 NA
ATOM     10  C   UNL     1       3.504   4.261  19.326  0.00  0.00    +0.000 C 
ATOM     11  C   UNL     1       5.005   4.397  19.032  0.00  0.00    +0.000 C 
ENDROOT
BRANCH   1  12
ATOM     12  C   UNL     1       7.337   6.506  18.128  0.00  0.00    +0.000 C 
BRANCH  12  14
ATOM     13  C   UNL     1       8.043   8.747  17.844  0.00  0.00    +0.000 C 
ATOM     14  O   UNL     1       7.555   7.573  17.213  0.00  0.00    +0.000 OA
ENDBRANCH  12  14
ENDBRANCH   1  12
BRANCH   9  15
ATOM     15  C   UNL     1       3.025   6.585  19.887  0.00  0.00    +0.000 C 
BRANCH  15  16
ATOM     16  C   UNL     1       2.115   7.765  19.659  0.00  0.00    +0.000 A 
ATOM     17  C   UNL     1       1.954   8.506  18.505  0.00  0.00    +0.000 A 
ATOM     18  C   UNL     1       1.055   9.596  18.680  0.00  0.00    +0.000 A 
ATOM     19  C   UNL     1       0.542   9.641  19.959  0.00  0.00    +0.000 A 
ATOM     20  S   UNL     1       1.129   8.362  20.930  0.00  0.00    +0.000 S 
ENDBRANCH  15  16
ENDBRANCH   9  15
TORSDOF 4
ENDMDL
MODEL 5
REMARK VINA RESULT:      -5.6      2.515      4.272
REMARK  Name = 
REMARK  5 active torsions:
REMARK  status: ('A' for Active; 'I' for Inactive)
REMARK    1  A    between atoms: C_1  and  O_2
REMARK    2  A    between atoms: O_2  and  C_3
REMARK    3  A    between atoms: C_3  and  C_4
REMARK    4  A    between atoms: N_12  and  C_13
REMARK    5  A    between atoms: C_13  and  C_14
REMARK                            x       y       z     vdW  Elec       q    Type
REMARK                         _______ _______ _______ _____ _____    ______ ____
ROOT
ATOM      1  C   UNL     1       6.666   5.253  17.489  0.00  0.00    +0.000 C 
ATOM      2  C   UNL     1       7.023   5.316  15.993  0.00  0.00    +0.000 C 
ATOM      3  O   UNL     1       6.633   4.132  15.305  0.00  0.00    +0.000 OA
ATOM      4  C   UNL     1       5.226   3.909  15.353  0.00  0.00    +0.000 C 
ATOM      5  C   UNL     1       4.760   3.765  16.794  0.00  0.00    +0.000 C 
ATOM      6  C   UNL     1       5.121   4.999  17.680  0.00  0.00    +0.000 C 
ATOM      7  C   UNL     1       4.291   6.239  17.244  0.00  0.00    +0.000 C 
ATOM      8  C   UNL     1       2.808   6.135  17.610  0.00  0.00    +0.000 C 
ATOM      9  N   UNL     1       2.576   5.889  19.039  0.00  0.00    +0.000 NA
ATOM     10  C   UNL     1       3.252   4.645  19.440  0.00  0.00    +0.000 C 
ATOM     11  C   UNL     1       4.759   4.639  19.151  0.00  0.00    +0.000 C 
ENDROOT
BRANCH   1  12
ATOM     12  C   UNL     1       7.268   6.499  18.176  0.00  0.00    +0.000 C 
BRANCH  12  14
ATOM     13  C   UNL     1       7.980   8.724  17.794  0.00  0.00    +0.000 C 
ATOM     14  O   UNL     1       7.658   7.470  17.212  0.00  0.00    +0.000 OA
ENDBRANCH  12  14
ENDBRANCH   1  12
BRANCH   9  15
ATOM     15  C   UNL     1       2.973   7.024  19.901  0.00  0.00    +0.000 C 
BRANCH  15  16
ATOM     16  C   UNL     1       1.831   7.970  20.165  0.00  0.00    +0.000 A 
ATOM     17  C   UNL     1       0.998   8.013  21.266  0.00  0.00    +0.000 A 
ATOM     18  C   UNL     1      -0.020   9.001  21.139  0.00  0.00    +0.000 A 
ATOM     19  C   UNL     1       0.081   9.695  19.954  0.00  0.00    +0.000 A 
ATOM     20  S   UNL     1       1.409   9.170  19.013  0.00  0.00    +0.000 S 
ENDBRANCH  15  16
ENDBRANCH   9  15
TORSDOF 4
ENDMDL
MODEL 6
REMARK VINA RESULT:      -5.4      2.701      4.344
REMARK  Name = 
REMARK  5 active torsions:
REMARK  status: ('A' for Active; 'I' for Inactive)
REMARK    1  A    between atoms: C_1  and  O_2
REMARK    2  A    between atoms: O_2  and  C_3
REMARK    3  A    between atoms: C_3  and  C_4
REMARK    4  A    between atoms: N_12  and  C_13
REMARK    5  A    between atoms: C_13  and  C_14
REMARK                            x       y       z     vdW  Elec       q    Type
REMARK                         _______ _______ _______ _____ _____    ______ ____
ROOT
ATOM      1  C   UNL     1       6.107   4.430  17.940  0.00  0.00    +0.000 C 
ATOM      2  C   UNL     1       7.177   4.651  16.857  0.00  0.00    +0.000 C 
ATOM      3  O   UNL     1       6.795   4.078  15.610  0.00  0.00    +0.000 OA
ATOM      4  C   UNL     1       5.599   4.649  15.088  0.00  0.00    +0.000 C 
ATOM      5  C   UNL     1       4.442   4.436  16.053  0.00  0.00    +0.000 C 
ATOM      6  C   UNL     1       4.718   5.017  17.475  0.00  0.00    +0.000 C 
ATOM      7  C   UNL     1       4.754   6.570  17.427  0.00  0.00    +0.000 C 
ATOM      8  C   UNL     1       3.378   7.201  17.197  0.00  0.00    +0.000 C 
ATOM      9  N   UNL     1       2.371   6.782  18.181  0.00  0.00    +0.000 NA
ATOM     10  C   UNL     1       2.233   5.317  18.149  0.00  0.00    +0.000 C 
ATOM     11  C   UNL     1       3.548   4.566  18.399  0.00  0.00    +0.000 C 
ENDROOT
BRANCH   1  12
ATOM     12  C   UNL     1       6.675   4.939  19.283  0.00  0.00    +0.000 C 
BRANCH  12  14
ATOM     13  C   UNL     1       8.139   6.767  18.935  0.00  0.00    +0.000 C 
ATOM     14  O   UNL     1       8.024   5.366  19.133  0.00  0.00    +0.000 OA
ENDBRANCH  12  14
ENDBRANCH   1  12
BRANCH   9  15
ATOM     15  C   UNL     1       2.652   7.269  19.549  0.00  0.00    +0.000 C 
BRANCH  15  16
ATOM     16  C   UNL     1       1.611   8.246  20.034  0.00  0.00    +0.000 A 
ATOM     17  C   UNL     1       0.965   8.267  21.254  0.00  0.00    +0.000 A 
ATOM     18  C   UNL     1      -0.012   9.299  21.334  0.00  0.00    +0.000 A 
ATOM     19  C   UNL     1      -0.066  10.048  20.179  0.00  0.00    +0.000 A 
ATOM     20  S   UNL     1       1.070   9.518  19.016  0.00  0.00    +0.000 S 
ENDBRANCH  15  16
ENDBRANCH   9  15
TORSDOF 4
ENDMDL
MODEL 7
REMARK VINA RESULT:      -5.4      2.995      6.227
REMARK  Name = 
REMARK  5 active torsions:
REMARK  status: ('A' for Active; 'I' for Inactive)
REMARK    1  A    between atoms: C_1  and  O_2
REMARK    2  A    between atoms: O_2  and  C_3
REMARK    3  A    between atoms: C_3  and  C_4
REMARK    4  A    between atoms: N_12  and  C_13
REMARK    5  A    between atoms: C_13  and  C_14
REMARK                            x       y       z     vdW  Elec       q    Type
REMARK                         _______ _______ _______ _____ _____    ______ ____
ROOT
ATOM      1  C   UNL     1       3.983   4.506  19.192  0.00  0.00    +0.000 C 
ATOM      2  C   UNL     1       2.447   4.591  19.140  0.00  0.00    +0.000 C 
ATOM      3  O   UNL     1       1.973   5.869  19.554  0.00  0.00    +0.000 OA
ATOM      4  C   UNL     1       2.443   6.925  18.720  0.00  0.00    +0.000 C 
ATOM      5  C   UNL     1       3.963   6.982  18.741  0.00  0.00    +0.000 C 
ATOM      6  C   UNL     1       4.631   5.640  18.306  0.00  0.00    +0.000 C 
ATOM      7  C   UNL     1       4.386   5.378  16.794  0.00  0.00    +0.000 C 
ATOM      8  C   UNL     1       5.175   6.320  15.881  0.00  0.00    +0.000 C 
ATOM      9  N   UNL     1       6.621   6.304  16.134  0.00  0.00    +0.000 NA
ATOM     10  C   UNL     1       6.879   6.675  17.535  0.00  0.00    +0.000 C 
ATOM     11  C   UNL     1       6.162   5.779  18.554  0.00  0.00    +0.000 C 
ENDROOT
BRANCH   1  12
ATOM     12  C   UNL     1       4.391   3.049  18.884  0.00  0.00    +0.000 C 
BRANCH  12  14
ATOM     13  C   UNL     1       3.831   2.083  20.972  0.00  0.00    +0.000 C 
ATOM     14  O   UNL     1       4.868   2.398  20.056  0.00  0.00    +0.000 OA
ENDBRANCH  12  14
ENDBRANCH   1  12
BRANCH   9  15
ATOM     15  C   UNL     1       7.261   5.016  15.789  0.00  0.00    +0.000 C 
BRANCH  15  16
ATOM     16  C   UNL     1       7.140   4.690  14.323  0.00  0.00    +0.000 A 
ATOM     17  C   UNL     1       7.832   5.248  13.266  0.00  0.00    +0.000 A 
ATOM     18  C   UNL     1       7.402   4.741  12.006  0.00  0.00    +0.000 A 
ATOM     19  C   UNL     1       6.409   3.796  12.144  0.00  0.00    +0.000 A 
ATOM     20  S   UNL     1       6.016   3.511  13.783  0.00  0.00    +0.000 S 
ENDBRANCH  15  16
ENDBRANCH   9  15
TORSDOF 4
ENDMDL
MODEL 8
REMARK VINA RESULT:      -5.4      1.258      1.427
REMARK  Name = 
REMARK  5 active torsions:
REMARK  status: ('A' for Active; 'I' for Inactive)
REMARK    1  A    between atoms: C_1  and  O_2
REMARK    2  A    between atoms: O_2  and  C_3
REMARK    3  A    between atoms: C_3  and  C_4
REMARK    4  A    between atoms: N_12  and  C_13
REMARK    5  A    between atoms: C_13  and  C_14
REMARK                            x       y       z     vdW  Elec       q    Type
REMARK                         _______ _______ _______ _____ _____    ______ ____
ROOT
ATOM      1  C   UNL     1       6.436   4.915  16.589  0.00  0.00    +0.000 C 
ATOM      2  C   UNL     1       7.650   4.341  17.341  0.00  0.00    +0.000 C 
ATOM      3  O   UNL     1       8.460   5.369  17.904  0.00  0.00    +0.000 OA
ATOM      4  C   UNL     1       7.758   6.159  18.859  0.00  0.00    +0.000 C 
ATOM      5  C   UNL     1       6.559   6.837  18.210  0.00  0.00    +0.000 C 
ATOM      6  C   UNL     1       5.572   5.826  17.545  0.00  0.00    +0.000 C 
ATOM      7  C   UNL     1       4.855   4.977  18.631  0.00  0.00    +0.000 C 
ATOM      8  C   UNL     1       3.833   5.775  19.447  0.00  0.00    +0.000 C 
ATOM      9  N   UNL     1       2.818   6.441  18.621  0.00  0.00    +0.000 NA
ATOM     10  C   UNL     1       3.478   7.349  17.669  0.00  0.00    +0.000 C 
ATOM     11  C   UNL     1       4.509   6.657  16.767  0.00  0.00    +0.000 C 
ENDROOT
BRANCH   1  12
ATOM     12  C   UNL     1       5.714   3.746  15.885  0.00  0.00    +0.000 C 
BRANCH  12  14
ATOM     13  C   UNL     1       6.770   4.752  14.021  0.00  0.00    +0.000 C 
ATOM     14  O   UNL     1       5.703   3.933  14.475  0.00  0.00    +0.000 OA
ENDBRANCH  12  14
ENDBRANCH   1  12
BRANCH   9  15
ATOM     15  C   UNL     1       1.914   5.497  17.930  0.00  0.00    +0.000 C 
BRANCH  15  16
ATOM     16  C   UNL     1       1.702   4.228  18.716  0.00  0.00    +0.000 A 
ATOM     17  C   UNL     1       1.860   2.925  18.288  0.00  0.00    +0.000 A 
ATOM     18  C   UNL     1       1.501   1.977  19.289  0.00  0.00    +0.000 A 
ATOM     19  C   UNL     1       1.099   2.588  20.456  0.00  0.00    +0.000 A 
ATOM     20  S   UNL     1       1.176   4.293  20.348  0.00  0.00    +0.000 S 
ENDBRANCH  15  16
ENDBRANCH   9  15
TORSDOF 4
ENDMDL
MODEL 9
REMARK VINA RESULT:      -5.4      3.153      6.338
REMARK  Name = 
REMARK  5 active torsions:
REMARK  status: ('A' for Active; 'I' for Inactive)
REMARK    1  A    between atoms: C_1  and  O_2
REMARK    2  A    between atoms: O_2  and  C_3
REMARK    3  A    between atoms: C_3  and  C_4
REMARK    4  A    between atoms: N_12  and  C_13
REMARK    5  A    between atoms: C_13  and  C_14
REMARK                            x       y       z     vdW  Elec       q    Type
REMARK                         _______ _______ _______ _____ _____    ______ ____
ROOT
ATOM      1  C   UNL     1       3.262   3.542  19.513  0.00  0.00    +0.000 C 
ATOM      2  C   UNL     1       1.791   3.947  19.711  0.00  0.00    +0.000 C 
ATOM      3  O   UNL     1       1.669   5.158  20.451  0.00  0.00    +0.000 OA
ATOM      4  C   UNL     1       2.286   6.264  19.798  0.00  0.00    +0.000 C 
ATOM      5  C   UNL     1       3.772   6.005  19.602  0.00  0.00    +0.000 C 
ATOM      6  C   UNL     1       4.064   4.698  18.799  0.00  0.00    +0.000 C 
ATOM      7  C   UNL     1       3.616   4.860  17.320  0.00  0.00    +0.000 C 
ATOM      8  C   UNL     1       4.507   5.812  16.518  0.00  0.00    +0.000 C 
ATOM      9  N   UNL     1       5.928   5.443  16.543  0.00  0.00    +0.000 NA
ATOM     10  C   UNL     1       6.402   5.409  17.935  0.00  0.00    +0.000 C 
ATOM     11  C   UNL     1       5.603   4.460  18.839  0.00  0.00    +0.000 C 
ENDROOT
BRANCH   1  12
ATOM     12  C   UNL     1       3.288   2.148  18.848  0.00  0.00    +0.000 C 
BRANCH  12  14
ATOM     13  C   UNL     1       4.627   1.623  20.729  0.00  0.00    +0.000 C 
ATOM     14  O   UNL     1       4.359   1.363  19.359  0.00  0.00    +0.000 OA
ENDBRANCH  12  14
ENDBRANCH   1  12
BRANCH   9  15
ATOM     15  C   UNL     1       6.214   4.172  15.842  0.00  0.00    +0.000 C 
BRANCH  15  16
ATOM     16  C   UNL     1       6.726   4.392  14.442  0.00  0.00    +0.000 A 
ATOM     17  C   UNL     1       7.705   5.270  14.021  0.00  0.00    +0.000 A 
ATOM     18  C   UNL     1       7.877   5.256  12.608  0.00  0.00    +0.000 A 
ATOM     19  C   UNL     1       7.037   4.352  11.996  0.00  0.00    +0.000 A 
ATOM     20  S   UNL     1       6.064   3.513  13.125  0.00  0.00    +0.000 S 
ENDBRANCH  15  16
ENDBRANCH   9  15
TORSDOF 4
ENDMDL
