MODEL 1
REMARK VINA RESULT:      -7.4      0.000      0.000
REMARK  Name = 
REMARK  5 active torsions:
REMARK  status: ('A' for Active; 'I' for Inactive)
REMARK    1  A    between atoms: C_2  and  C_4
REMARK    2  A    between atoms: C_7  and  C_8
REMARK    3  A    between atoms: N_9  and  O_10
REMARK    4  A    between atoms: N_11  and  C_12
REMARK    5  A    between atoms: C_12  and  C_13
REMARK                            x       y       z     vdW  Elec       q    Type
REMARK                         _______ _______ _______ _____ _____    ______ ____
ROOT
ATOM      1  C   UNL     1       2.206   6.436  19.918  0.00  0.00    +0.000 A 
ATOM      2  C   UNL     1       1.953   5.356  20.750  0.00  0.00    +0.000 A 
ATOM      3  C   UNL     1       2.490   4.121  20.420  0.00  0.00    +0.000 A 
ATOM      4  C   UNL     1       3.292   3.979  19.280  0.00  0.00    +0.000 A 
ATOM      5  N   UNL     1       3.537   5.047  18.470  0.00  0.00    +0.000 N 
ATOM      6  C   UNL     1       2.969   6.248  18.760  0.00  0.00    +0.000 A 
ENDROOT
BRANCH   1   8
ATOM      7  N   UNL     1       1.590   8.192  21.509  0.00  0.00    +0.000 N 
ATOM      8  C   UNL     1       1.778   7.819  20.212  0.00  0.00    +0.000 C 
ATOM      9  O   UNL     1       1.642   8.610  19.288  0.00  0.00    +0.000 OA
ATOM     10  H   UNL     1       1.365   9.168  21.680  0.00  0.00    +0.000 HD
ATOM     11  H   UNL     1       1.754   7.630  22.330  0.00  0.00    +0.000 HD
ENDBRANCH   1   8
BRANCH   4  12
ATOM     12  C   UNL     1       3.904   2.667  19.019  0.00  0.00    +0.000 C 
ATOM     13  N   UNL     1       3.263   1.750  18.375  0.00  0.00    +0.000 NA
BRANCH  13  14
ATOM     14  O   UNL     1       4.075   0.612  18.298  0.00  0.00    +0.000 OA
ATOM     15  H   UNL     1       3.745   0.052  19.028  0.00  0.00    +0.000 HD
ENDBRANCH  13  14
ENDBRANCH   4  12
BRANCH   5  16
ATOM     16  C   UNL     1       4.542   4.999  17.363  0.00  0.00    +0.000 C 
BRANCH  16  17
ATOM     17  C   UNL     1       5.825   5.693  17.731  0.00  0.00    +0.000 A 
ATOM     18  C   UNL     1       6.648   5.205  18.755  0.00  0.00    +0.000 A 
ATOM     19  C   UNL     1       7.784   5.914  19.150  0.00  0.00    +0.000 A 
ATOM     20  C   UNL     1       8.123   7.105  18.510  0.00  0.00    +0.000 A 
ATOM     21  C   UNL     1       7.358   7.562  17.442  0.00  0.00    +0.000 A 
ATOM     22  C   UNL     1       6.225   6.853  17.043  0.00  0.00    +0.000 A 
ENDBRANCH  16  17
ENDBRANCH   5  16
TORSDOF 5
ENDMDL
MODEL 2
REMARK VINA RESULT:      -7.4      0.108      1.112
REMARK  Name = 
REMARK  5 active torsions:
REMARK  status: ('A' for Active; 'I' for Inactive)
REMARK    1  A    between atoms: C_2  and  C_4
REMARK    2  A    between atoms: C_7  and  C_8
REMARK    3  A    between atoms: N_9  and  O_10
REMARK    4  A    between atoms: N_11  and  C_12
REMARK    5  A    between atoms: C_12  and  C_13
REMARK                            x       y       z     vdW  Elec       q    Type
REMARK                         _______ _______ _______ _____ _____    ______ ____
ROOT
ATOM      1  C   UNL     1       2.156   6.455  19.982  0.00  0.00    +0.000 A 
ATOM      2  C   UNL     1       1.868   5.369  20.793  0.00  0.00    +0.000 A 
ATOM      3  C   UNL     1       2.400   4.132  20.465  0.00  0.00    +0.000 A 
ATOM      4  C   UNL     1       3.233   3.994  19.346  0.00  0.00    +0.000 A 
ATOM      5  N   UNL     1       3.513   5.069  18.557  0.00  0.00    +0.000 N 
ATOM      6  C   UNL     1       2.950   6.272  18.845  0.00  0.00    +0.000 A 
ENDROOT
BRANCH   1   8
ATOM      7  N   UNL     1       1.562   8.214  21.580  0.00  0.00    +0.000 N 
ATOM      8  C   UNL     1       1.734   7.840  20.281  0.00  0.00    +0.000 C 
ATOM      9  O   UNL     1       1.591   8.630  19.358  0.00  0.00    +0.000 OA
ATOM     10  H   UNL     1       1.341   9.190  21.752  0.00  0.00    +0.000 HD
ATOM     11  H   UNL     1       1.733   7.651  22.399  0.00  0.00    +0.000 HD
ENDBRANCH   1   8
BRANCH   4  12
ATOM     12  C   UNL     1       3.838   2.679  19.087  0.00  0.00    +0.000 C 
ATOM     13  N   UNL     1       3.213   1.781  18.403  0.00  0.00    +0.000 NA
BRANCH  13  14
ATOM     14  O   UNL     1       4.012   0.634  18.338  0.00  0.00    +0.000 OA
ATOM     15  H   UNL     1       3.373  -0.092  18.479  0.00  0.00    +0.000 HD
ENDBRANCH  13  14
ENDBRANCH   4  12
BRANCH   5  16
ATOM     16  C   UNL     1       4.550   5.022  17.478  0.00  0.00    +0.000 C 
BRANCH  16  17
ATOM     17  C   UNL     1       5.792   5.784  17.853  0.00  0.00    +0.000 A 
ATOM     18  C   UNL     1       6.172   6.942  17.159  0.00  0.00    +0.000 A 
ATOM     19  C   UNL     1       7.377   7.581  17.455  0.00  0.00    +0.000 A 
ATOM     20  C   UNL     1       8.203   7.087  18.462  0.00  0.00    +0.000 A 
ATOM     21  C   UNL     1       7.803   5.984  19.210  0.00  0.00    +0.000 A 
ATOM     22  C   UNL     1       6.598   5.346  18.919  0.00  0.00    +0.000 A 
ENDBRANCH  16  17
ENDBRANCH   5  16
TORSDOF 5
ENDMDL
MODEL 3
REMARK VINA RESULT:      -7.2      2.720      6.173
REMARK  Name = 
REMARK  5 active torsions:
REMARK  status: ('A' for Active; 'I' for Inactive)
REMARK    1  A    between atoms: C_2  and  C_4
REMARK    2  A    between atoms: C_7  and  C_8
REMARK    3  A    between atoms: N_9  and  O_10
REMARK    4  A    between atoms: N_11  and  C_12
REMARK    5  A    between atoms: C_12  and  C_13
REMARK                            x       y       z     vdW  Elec       q    Type
REMARK                         _______ _______ _______ _____ _____    ______ ____
ROOT
ATOM      1  C   UNL     1       5.746   5.137  15.768  0.00  0.00    +0.000 A 
ATOM      2  C   UNL     1       5.324   6.449  15.921  0.00  0.00    +0.000 A 
ATOM      3  C   UNL     1       4.611   6.792  17.058  0.00  0.00    +0.000 A 
ATOM      4  C   UNL     1       4.343   5.831  18.043  0.00  0.00    +0.000 A 
ATOM      5  N   UNL     1       4.764   4.545  17.885  0.00  0.00    +0.000 N 
ATOM      6  C   UNL     1       5.418   4.192  16.746  0.00  0.00    +0.000 A 
ENDROOT
BRANCH   1   8
ATOM      7  N   UNL     1       6.245   3.541  13.979  0.00  0.00    +0.000 N 
ATOM      8  C   UNL     1       6.598   4.671  14.654  0.00  0.00    +0.000 C 
ATOM      9  O   UNL     1       7.577   5.332  14.337  0.00  0.00    +0.000 OA
ATOM     10  H   UNL     1       6.812   3.289  13.175  0.00  0.00    +0.000 HD
ATOM     11  H   UNL     1       5.417   2.983  14.125  0.00  0.00    +0.000 HD
ENDBRANCH   1   8
BRANCH   4  12
ATOM     12  C   UNL     1       3.654   6.264  19.268  0.00  0.00    +0.000 C 
ATOM     13  N   UNL     1       2.426   6.662  19.236  0.00  0.00    +0.000 NA
BRANCH  13  14
ATOM     14  O   UNL     1       2.044   7.030  20.530  0.00  0.00    +0.000 OA
ATOM     15  H   UNL     1       2.089   8.007  20.508  0.00  0.00    +0.000 HD
ENDBRANCH  13  14
ENDBRANCH   4  12
BRANCH   5  16
ATOM     16  C   UNL     1       4.684   3.535  18.986  0.00  0.00    +0.000 C 
BRANCH  16  17
ATOM     17  C   UNL     1       3.264   3.160  19.311  0.00  0.00    +0.000 A 
ATOM     18  C   UNL     1       2.354   2.814  18.301  0.00  0.00    +0.000 A 
ATOM     19  C   UNL     1       1.016   2.564  18.610  0.00  0.00    +0.000 A 
ATOM     20  C   UNL     1       0.577   2.633  19.931  0.00  0.00    +0.000 A 
ATOM     21  C   UNL     1       1.484   2.900  20.951  0.00  0.00    +0.000 A 
ATOM     22  C   UNL     1       2.822   3.147  20.646  0.00  0.00    +0.000 A 
ENDBRANCH  16  17
ENDBRANCH   5  16
TORSDOF 5
ENDMDL
MODEL 4
REMARK VINA RESULT:      -7.2      2.385      6.098
REMARK  Name = 
REMARK  5 active torsions:
REMARK  status: ('A' for Active; 'I' for Inactive)
REMARK    1  A    between atoms: C_2  and  C_4
REMARK    2  A    between atoms: C_7  and  C_8
REMARK    3  A    between atoms: N_9  and  O_10
REMARK    4  A    between atoms: N_11  and  C_12
REMARK    5  A    between atoms: C_12  and  C_13
REMARK                            x       y       z     vdW  Elec       q    Type
REMARK                         _______ _______ _______ _____ _____    ______ ____
ROOT
ATOM      1  C   UNL     1       6.196   5.790  18.167  0.00  0.00    +0.000 A 
ATOM      2  C   UNL     1       6.052   6.655  17.094  0.00  0.00    +0.000 A 
ATOM      3  C   UNL     1       4.827   7.272  16.896  0.00  0.00    +0.000 A 
ATOM      4  C   UNL     1       3.765   7.040  17.781  0.00  0.00    +0.000 A 
ATOM      5  N   UNL     1       3.918   6.190  18.835  0.00  0.00    +0.000 N 
ATOM      6  C   UNL     1       5.102   5.542  19.002  0.00  0.00    +0.000 A 
ENDROOT
BRANCH   1   8
ATOM      7  N   UNL     1       8.022   5.432  19.760  0.00  0.00    +0.000 N 
ATOM      8  C   UNL     1       7.475   5.152  18.544  0.00  0.00    +0.000 C 
ATOM      9  O   UNL     1       7.992   4.354  17.773  0.00  0.00    +0.000 OA
ATOM     10  H   UNL     1       8.863   4.923  20.015  0.00  0.00    +0.000 HD
ATOM     11  H   UNL     1       7.625   6.014  20.482  0.00  0.00    +0.000 HD
ENDBRANCH   1   8
BRANCH   4  12
ATOM     12  C   UNL     1       2.512   7.781  17.574  0.00  0.00    +0.000 C 
ATOM     13  N   UNL     1       2.499   9.071  17.541  0.00  0.00    +0.000 NA
BRANCH  13  14
ATOM     14  O   UNL     1       1.180   9.498  17.356  0.00  0.00    +0.000 OA
ATOM     15  H   UNL     1       0.906   9.774  18.253  0.00  0.00    +0.000 HD
ENDBRANCH  13  14
ENDBRANCH   4  12
BRANCH   5  16
ATOM     16  C   UNL     1       2.893   6.064  19.917  0.00  0.00    +0.000 C 
BRANCH  16  17
ATOM     17  C   UNL     1       2.166   4.747  19.860  0.00  0.00    +0.000 A 
ATOM     18  C   UNL     1       1.898   4.013  21.023  0.00  0.00    +0.000 A 
ATOM     19  C   UNL     1       1.311   2.749  20.943  0.00  0.00    +0.000 A 
ATOM     20  C   UNL     1       0.962   2.216  19.704  0.00  0.00    +0.000 A 
ATOM     21  C   UNL     1       1.153   2.965  18.547  0.00  0.00    +0.000 A 
ATOM     22  C   UNL     1       1.736   4.229  18.625  0.00  0.00    +0.000 A 
ENDBRANCH  16  17
ENDBRANCH   5  16
TORSDOF 5
ENDMDL
MODEL 5
REMARK VINA RESULT:      -7.1      2.441      6.283
REMARK  Name = 
REMARK  5 active torsions:
REMARK  status: ('A' for Active; 'I' for Inactive)
REMARK    1  A    between atoms: C_2  and  C_4
REMARK    2  A    between atoms: C_7  and  C_8
REMARK    3  A    between atoms: N_9  and  O_10
REMARK    4  A    between atoms: N_11  and  C_12
REMARK    5  A    between atoms: C_12  and  C_13
REMARK                            x       y       z     vdW  Elec       q    Type
REMARK                         _______ _______ _______ _____ _____    ______ ____
ROOT
ATOM      1  C   UNL     1       6.063   5.664  17.844  0.00  0.00    +0.000 A 
ATOM      2  C   UNL     1       5.882   6.585  16.824  0.00  0.00    +0.000 A 
ATOM      3  C   UNL     1       4.684   7.279  16.758  0.00  0.00    +0.000 A 
ATOM      4  C   UNL     1       3.689   7.068  17.721  0.00  0.00    +0.000 A 
ATOM      5  N   UNL     1       3.877   6.163  18.722  0.00  0.00    +0.000 N 
ATOM      6  C   UNL     1       5.029   5.441  18.760  0.00  0.00    +0.000 A 
ENDROOT
BRANCH   1   8
ATOM      7  N   UNL     1       7.922   4.286  17.044  0.00  0.00    +0.000 N 
ATOM      8  C   UNL     1       7.328   4.938  18.082  0.00  0.00    +0.000 C 
ATOM      9  O   UNL     1       7.834   4.973  19.196  0.00  0.00    +0.000 OA
ATOM     10  H   UNL     1       8.825   3.858  17.225  0.00  0.00    +0.000 HD
ATOM     11  H   UNL     1       7.615   4.273  16.083  0.00  0.00    +0.000 HD
ENDBRANCH   1   8
BRANCH   4  12
ATOM     12  C   UNL     1       2.469   7.888  17.653  0.00  0.00    +0.000 C 
ATOM     13  N   UNL     1       2.534   9.162  17.455  0.00  0.00    +0.000 NA
BRANCH  13  14
ATOM     14  O   UNL     1       1.234   9.680  17.462  0.00  0.00    +0.000 OA
ATOM     15  H   UNL     1       1.378  10.646  17.494  0.00  0.00    +0.000 HD
ENDBRANCH  13  14
ENDBRANCH   4  12
BRANCH   5  16
ATOM     16  C   UNL     1       2.940   6.045  19.883  0.00  0.00    +0.000 C 
BRANCH  16  17
ATOM     17  C   UNL     1       2.238   4.714  19.912  0.00  0.00    +0.000 A 
ATOM     18  C   UNL     1       1.712   4.144  18.745  0.00  0.00    +0.000 A 
ATOM     19  C   UNL     1       0.979   2.957  18.806  0.00  0.00    +0.000 A 
ATOM     20  C   UNL     1       0.786   2.314  20.027  0.00  0.00    +0.000 A 
ATOM     21  C   UNL     1       1.367   2.829  21.182  0.00  0.00    +0.000 A 
ATOM     22  C   UNL     1       2.102   4.012  21.123  0.00  0.00    +0.000 A 
ENDBRANCH  16  17
ENDBRANCH   5  16
TORSDOF 5
ENDMDL
MODEL 6
REMARK VINA RESULT:      -7.1      1.090      1.090
REMARK  Name = 
REMARK  5 active torsions:
REMARK  status: ('A' for Active; 'I' for Inactive)
REMARK    1  A    between atoms: C_2  and  C_4
REMARK    2  A    between atoms: C_7  and  C_8
REMARK    3  A    between atoms: N_9  and  O_10
REMARK    4  A    between atoms: N_11  and  C_12
REMARK    5  A    between atoms: C_12  and  C_13
REMARK                            x       y       z     vdW  Elec       q    Type
REMARK                         _______ _______ _______ _____ _____    ______ ____
ROOT
ATOM      1  C   UNL     1       2.237   6.290  19.947  0.00  0.00    +0.000 A 
ATOM      2  C   UNL     1       1.964   5.300  20.879  0.00  0.00    +0.000 A 
ATOM      3  C   UNL     1       2.513   4.041  20.694  0.00  0.00    +0.000 A 
ATOM      4  C   UNL     1       3.346   3.786  19.597  0.00  0.00    +0.000 A 
ATOM      5  N   UNL     1       3.611   4.765  18.687  0.00  0.00    +0.000 N 
ATOM      6  C   UNL     1       3.032   5.987  18.836  0.00  0.00    +0.000 A 
ENDROOT
BRANCH   1   8
ATOM      7  N   UNL     1       1.922   8.534  19.019  0.00  0.00    +0.000 N 
ATOM      8  C   UNL     1       1.797   7.694  20.084  0.00  0.00    +0.000 C 
ATOM      9  O   UNL     1       1.291   8.058  21.137  0.00  0.00    +0.000 OA
ATOM     10  H   UNL     1       1.545   9.471  19.125  0.00  0.00    +0.000 HD
ATOM     11  H   UNL     1       2.254   8.296  18.097  0.00  0.00    +0.000 HD
ENDBRANCH   1   8
BRANCH   4  12
ATOM     12  C   UNL     1       3.969   2.457  19.490  0.00  0.00    +0.000 C 
ATOM     13  N   UNL     1       4.918   2.101  20.288  0.00  0.00    +0.000 NA
BRANCH  13  14
ATOM     14  O   UNL     1       5.330   0.809  19.942  0.00  0.00    +0.000 OA
ATOM     15  H   UNL     1       6.225   0.748  20.329  0.00  0.00    +0.000 HD
ENDBRANCH  13  14
ENDBRANCH   4  12
BRANCH   5  16
ATOM     16  C   UNL     1       4.647   4.609  17.619  0.00  0.00    +0.000 C 
BRANCH  16  17
ATOM     17  C   UNL     1       5.890   5.403  17.914  0.00  0.00    +0.000 A 
ATOM     18  C   UNL     1       6.718   5.082  18.999  0.00  0.00    +0.000 A 
ATOM     19  C   UNL     1       7.813   5.888  19.316  0.00  0.00    +0.000 A 
ATOM     20  C   UNL     1       8.108   7.006  18.540  0.00  0.00    +0.000 A 
ATOM     21  C   UNL     1       7.340   7.293  17.415  0.00  0.00    +0.000 A 
ATOM     22  C   UNL     1       6.248   6.489  17.094  0.00  0.00    +0.000 A 
ENDBRANCH  16  17
ENDBRANCH   5  16
TORSDOF 5
ENDMDL
MODEL 7
REMARK VINA RESULT:      -7.0      2.637      4.862
REMARK  Name = 
REMARK  5 active torsions:
REMARK  status: ('A' for Active; 'I' for Inactive)
REMARK    1  A    between atoms: C_2  and  C_4
REMARK    2  A    between atoms: C_7  and  C_8
REMARK    3  A    between atoms: N_9  and  O_10
REMARK    4  A    between atoms: N_11  and  C_12
REMARK    5  A    between atoms: C_12  and  C_13
REMARK                            x       y       z     vdW  Elec       q    Type
REMARK                         _______ _______ _______ _____ _____    ______ ____
ROOT
ATOM      1  C   UNL     1       2.426   3.440  19.104  0.00  0.00    +0.000 A 
ATOM      2  C   UNL     1       3.553   2.901  19.704  0.00  0.00    +0.000 A 
ATOM      3  C   UNL     1       4.760   3.570  19.577  0.00  0.00    +0.000 A 
ATOM      4  C   UNL     1       4.828   4.780  18.874  0.00  0.00    +0.000 A 
ATOM      5  N   UNL     1       3.714   5.304  18.290  0.00  0.00    +0.000 N 
ATOM      6  C   UNL     1       2.539   4.623  18.366  0.00  0.00    +0.000 A 
ENDROOT
BRANCH   1   8
ATOM      7  N   UNL     1       0.402   3.051  20.428  0.00  0.00    +0.000 N 
ATOM      8  C   UNL     1       1.067   2.877  19.251  0.00  0.00    +0.000 C 
ATOM      9  O   UNL     1       0.553   2.306  18.298  0.00  0.00    +0.000 OA
ATOM     10  H   UNL     1      -0.555   2.714  20.470  0.00  0.00    +0.000 HD
ATOM     11  H   UNL     1       0.720   3.573  21.230  0.00  0.00    +0.000 HD
ENDBRANCH   1   8
BRANCH   4  12
ATOM     12  C   UNL     1       6.114   5.493  18.838  0.00  0.00    +0.000 C 
ATOM     13  N   UNL     1       7.015   5.286  19.739  0.00  0.00    +0.000 NA
BRANCH  13  14
ATOM     14  O   UNL     1       8.113   6.110  19.467  0.00  0.00    +0.000 OA
ATOM     15  H   UNL     1       8.210   6.633  20.288  0.00  0.00    +0.000 HD
ENDBRANCH  13  14
ENDBRANCH   4  12
BRANCH   5  16
ATOM     16  C   UNL     1       3.687   6.681  17.706  0.00  0.00    +0.000 C 
BRANCH  16  17
ATOM     17  C   UNL     1       2.692   7.571  18.400  0.00  0.00    +0.000 A 
ATOM     18  C   UNL     1       2.090   8.648  17.733  0.00  0.00    +0.000 A 
ATOM     19  C   UNL     1       1.244   9.521  18.418  0.00  0.00    +0.000 A 
ATOM     20  C   UNL     1       0.970   9.316  19.769  0.00  0.00    +0.000 A 
ATOM     21  C   UNL     1       1.499   8.208  20.424  0.00  0.00    +0.000 A 
ATOM     22  C   UNL     1       2.341   7.332  19.741  0.00  0.00    +0.000 A 
ENDBRANCH  16  17
ENDBRANCH   5  16
TORSDOF 5
ENDMDL
MODEL 8
REMARK VINA RESULT:      -7.0      2.711      6.162
REMARK  Name = 
REMARK  5 active torsions:
REMARK  status: ('A' for Active; 'I' for Inactive)
REMARK    1  A    between atoms: C_2  and  C_4
REMARK    2  A    between atoms: C_7  and  C_8
REMARK    3  A    between atoms: N_9  and  O_10
REMARK    4  A    between atoms: N_11  and  C_12
REMARK    5  A    between atoms: C_12  and  C_13
REMARK                            x       y       z     vdW  Elec       q    Type
REMARK                         _______ _______ _______ _____ _____    ______ ____
ROOT
ATOM      1  C   UNL     1       5.737   5.152  15.736  0.00  0.00    +0.000 A 
ATOM      2  C   UNL     1       5.301   6.463  15.857  0.00  0.00    +0.000 A 
ATOM      3  C   UNL     1       4.565   6.820  16.976  0.00  0.00    +0.000 A 
ATOM      4  C   UNL     1       4.290   5.875  17.974  0.00  0.00    +0.000 A 
ATOM      5  N   UNL     1       4.725   4.590  17.847  0.00  0.00    +0.000 N 
ATOM      6  C   UNL     1       5.402   4.223  16.726  0.00  0.00    +0.000 A 
ENDROOT
BRANCH   1   8
ATOM      7  N   UNL     1       6.248   3.563  13.944  0.00  0.00    +0.000 N 
ATOM      8  C   UNL     1       6.611   4.673  14.645  0.00  0.00    +0.000 C 
ATOM      9  O   UNL     1       7.620   5.308  14.369  0.00  0.00    +0.000 OA
ATOM     10  H   UNL     1       6.834   3.303  13.157  0.00  0.00    +0.000 HD
ATOM     11  H   UNL     1       5.399   3.029  14.055  0.00  0.00    +0.000 HD
ENDBRANCH   1   8
BRANCH   4  12
ATOM     12  C   UNL     1       3.576   6.324  19.179  0.00  0.00    +0.000 C 
ATOM     13  N   UNL     1       2.562   7.118  19.095  0.00  0.00    +0.000 NA
BRANCH  13  14
ATOM     14  O   UNL     1       2.104   7.391  20.388  0.00  0.00    +0.000 OA
ATOM     15  H   UNL     1       1.261   6.899  20.436  0.00  0.00    +0.000 HD
ENDBRANCH  13  14
ENDBRANCH   4  12
BRANCH   5  16
ATOM     16  C   UNL     1       4.637   3.600  18.966  0.00  0.00    +0.000 C 
BRANCH  16  17
ATOM     17  C   UNL     1       3.213   3.260  19.311  0.00  0.00    +0.000 A 
ATOM     18  C   UNL     1       2.767   3.260  20.641  0.00  0.00    +0.000 A 
ATOM     19  C   UNL     1       1.470   2.848  20.952  0.00  0.00    +0.000 A 
ATOM     20  C   UNL     1       0.597   2.455  19.939  0.00  0.00    +0.000 A 
ATOM     21  C   UNL     1       1.002   2.523  18.610  0.00  0.00    +0.000 A 
ATOM     22  C   UNL     1       2.295   2.938  18.296  0.00  0.00    +0.000 A 
ENDBRANCH  16  17
ENDBRANCH   5  16
TORSDOF 5
ENDMDL
MODEL 9
REMARK VINA RESULT:      -6.9      2.651      4.715
REMARK  Name = 
REMARK  5 active torsions:
REMARK  status: ('A' for Active; 'I' for Inactive)
REMARK    1  A    between atoms: C_2  and  C_4
REMARK    2  A    between atoms: C_7  and  C_8
REMARK    3  A    between atoms: N_9  and  O_10
REMARK    4  A    between atoms: N_11  and  C_12
REMARK    5  A    between atoms: C_12  and  C_13
REMARK                            x       y       z     vdW  Elec       q    Type
REMARK                         _______ _______ _______ _____ _____    ______ ____
ROOT
ATOM      1  C   UNL     1       2.438   3.382  19.063  0.00  0.00    +0.000 A 
ATOM      2  C   UNL     1       3.565   2.840  19.661  0.00  0.00    +0.000 A 
ATOM      3  C   UNL     1       4.776   3.499  19.520  0.00  0.00    +0.000 A 
ATOM      4  C   UNL     1       4.849   4.703  18.806  0.00  0.00    +0.000 A 
ATOM      5  N   UNL     1       3.735   5.229  18.224  0.00  0.00    +0.000 N 
ATOM      6  C   UNL     1       2.555   4.558  18.315  0.00  0.00    +0.000 A 
ENDROOT
BRANCH   1   8
ATOM      7  N   UNL     1       0.376   3.117  20.357  0.00  0.00    +0.000 N 
ATOM      8  C   UNL     1       1.076   2.832  19.224  0.00  0.00    +0.000 C 
ATOM      9  O   UNL     1       0.592   2.167  18.317  0.00  0.00    +0.000 OA
ATOM     10  H   UNL     1      -0.582   2.782  20.404  0.00  0.00    +0.000 HD
ATOM     11  H   UNL     1       0.669   3.717  21.114  0.00  0.00    +0.000 HD
ENDBRANCH   1   8
BRANCH   4  12
ATOM     12  C   UNL     1       6.140   5.405  18.755  0.00  0.00    +0.000 C 
ATOM     13  N   UNL     1       6.985   5.317  19.727  0.00  0.00    +0.000 NA
BRANCH  13  14
ATOM     14  O   UNL     1       8.103   6.099  19.417  0.00  0.00    +0.000 OA
ATOM     15  H   UNL     1       8.571   5.564  18.746  0.00  0.00    +0.000 HD
ENDBRANCH  13  14
ENDBRANCH   4  12
BRANCH   5  16
ATOM     16  C   UNL     1       3.714   6.602  17.629  0.00  0.00    +0.000 C 
BRANCH  16  17
ATOM     17  C   UNL     1       2.796   7.530  18.376  0.00  0.00    +0.000 A 
ATOM     18  C   UNL     1       2.469   7.302  19.721  0.00  0.00    +0.000 A 
ATOM     19  C   UNL     1       1.540   8.117  20.370  0.00  0.00    +0.000 A 
ATOM     20  C   UNL     1       0.947   9.182  19.694  0.00  0.00    +0.000 A 
ATOM     21  C   UNL     1       1.319   9.465  18.384  0.00  0.00    +0.000 A 
ATOM     22  C   UNL     1       2.249   8.656  17.734  0.00  0.00    +0.000 A 
ENDBRANCH  16  17
ENDBRANCH   5  16
TORSDOF 5
ENDMDL
