MODEL 1
REMARK VINA RESULT:      -9.3      0.000      0.000
REMARK  Name = 
REMARK  6 active torsions:
REMARK  status: ('A' for Active; 'I' for Inactive)
REMARK    1  A    between atoms: C_1  and  O_2
REMARK    2  A    between atoms: O_2  and  C_3
REMARK    3  A    between atoms: C_6  and  C_7
REMARK    4  A    between atoms: C_12  and  C_13
REMARK    5  A    between atoms: C_19  and  C_20
REMARK    6  A    between atoms: C_20  and  C_22
REMARK                            x       y       z     vdW  Elec       q    Type
REMARK                         _______ _______ _______ _____ _____    ______ ____
ROOT
ATOM      1  C   UNL     1       1.151   9.775  18.988  0.00  0.00    +0.000 C 
ATOM      2  O   UNL     1       0.526   9.138  19.835  0.00  0.00    +0.000 OA
ATOM      3  N   UNL     1       2.185   9.277  18.216  0.00  0.00    +0.000 N 
ATOM      4  C   UNL     1       2.560   7.963  18.336  0.00  0.00    +0.000 A 
ATOM      5  N   UNL     1       1.972   7.001  18.983  0.00  0.00    +0.000 NA
ATOM      6  C   UNL     1       2.740   5.846  18.968  0.00  0.00    +0.000 A 
ATOM      7  C   UNL     1       3.953   5.977  18.296  0.00  0.00    +0.000 A 
ATOM      8  S   UNL     1       3.977   7.528  17.507  0.00  0.00    +0.000 S 
ATOM      9  H   UNL     1       2.761   9.862  17.637  0.00  0.00    +0.000 HD
ENDROOT
BRANCH   1  13
ATOM     10  C   UNL     1       0.264  13.975  18.552  0.00  0.00    +0.000 A 
ATOM     11  C   UNL     1       1.567  13.514  18.706  0.00  0.00    +0.000 A 
ATOM     12  C   UNL     1       1.824  12.148  18.818  0.00  0.00    +0.000 A 
ATOM     13  C   UNL     1       0.776  11.213  18.801  0.00  0.00    +0.000 A 
ATOM     14  C   UNL     1      -0.536  11.678  18.657  0.00  0.00    +0.000 A 
ATOM     15  C   UNL     1      -0.788  13.056  18.529  0.00  0.00    +0.000 A 
BRANCH  10  17
ATOM     16  C   UNL     1       1.239  16.088  18.976  0.00  0.00    +0.000 C 
ATOM     17  O   UNL     1       0.137  15.333  18.494  0.00  0.00    +0.000 OA
ENDBRANCH  10  17
ENDBRANCH   1  13
BRANCH   6  18
ATOM     18  C   UNL     1       2.210   4.676  19.669  0.00  0.00    +0.000 A 
ATOM     19  C   UNL     1       2.498   4.533  21.040  0.00  0.00    +0.000 A 
ATOM     20  C   UNL     1       2.080   3.407  21.754  0.00  0.00    +0.000 A 
ATOM     21  C   UNL     1       1.364   2.406  21.107  0.00  0.00    +0.000 A 
ATOM     22  C   UNL     1       1.072   2.530  19.751  0.00  0.00    +0.000 A 
ATOM     23  C   UNL     1       1.500   3.653  19.034  0.00  0.00    +0.000 A 
ENDBRANCH   6  18
BRANCH   7  24
ATOM     24  C   UNL     1       5.035   5.025  18.092  0.00  0.00    +0.000 C 
ATOM     25  O   UNL     1       5.482   4.310  18.988  0.00  0.00    +0.000 OA
BRANCH  24  26
ATOM     26  C   UNL     1       5.653   4.832  16.747  0.00  0.00    +0.000 A 
ATOM     27  C   UNL     1       4.897   4.189  15.752  0.00  0.00    +0.000 A 
ATOM     28  C   UNL     1       5.404   4.062  14.456  0.00  0.00    +0.000 A 
ATOM     29  C   UNL     1       6.663   4.572  14.158  0.00  0.00    +0.000 A 
ATOM     30  F   UNL     1       7.127   4.492  12.906  0.00  0.00    +0.000 F 
ATOM     31  C   UNL     1       7.448   5.155  15.142  0.00  0.00    +0.000 A 
ATOM     32  C   UNL     1       6.950   5.255  16.439  0.00  0.00    +0.000 A 
ATOM     33  F   UNL     1       7.756   5.762  17.380  0.00  0.00    +0.000 F 
ENDBRANCH  24  26
ENDBRANCH   7  24
TORSDOF 5
ENDMDL
MODEL 2
REMARK VINA RESULT:      -9.1      0.333      1.236
REMARK  Name = 
REMARK  6 active torsions:
REMARK  status: ('A' for Active; 'I' for Inactive)
REMARK    1  A    between atoms: C_1  and  O_2
REMARK    2  A    between atoms: O_2  and  C_3
REMARK    3  A    between atoms: C_6  and  C_7
REMARK    4  A    between atoms: C_12  and  C_13
REMARK    5  A    between atoms: C_19  and  C_20
REMARK    6  A    between atoms: C_20  and  C_22
REMARK                            x       y       z     vdW  Elec       q    Type
REMARK                         _______ _______ _______ _____ _____    ______ ____
ROOT
ATOM      1  C   UNL     1       1.351   9.771  18.973  0.00  0.00    +0.000 C 
ATOM      2  O   UNL     1       0.705   9.121  19.792  0.00  0.00    +0.000 OA
ATOM      3  N   UNL     1       2.373   9.273  18.184  0.00  0.00    +0.000 N 
ATOM      4  C   UNL     1       2.710   7.946  18.254  0.00  0.00    +0.000 A 
ATOM      5  N   UNL     1       2.093   6.977  18.863  0.00  0.00    +0.000 NA
ATOM      6  C   UNL     1       2.828   5.801  18.806  0.00  0.00    +0.000 A 
ATOM      7  C   UNL     1       4.046   5.923  18.142  0.00  0.00    +0.000 A 
ATOM      8  S   UNL     1       4.117   7.502  17.413  0.00  0.00    +0.000 S 
ATOM      9  H   UNL     1       2.968   9.863  17.629  0.00  0.00    +0.000 HD
ENDROOT
BRANCH   1  13
ATOM     10  C   UNL     1       0.181  13.900  18.533  0.00  0.00    +0.000 A 
ATOM     11  C   UNL     1      -0.749  12.900  18.800  0.00  0.00    +0.000 A 
ATOM     12  C   UNL     1      -0.336  11.579  18.963  0.00  0.00    +0.000 A 
ATOM     13  C   UNL     1       1.018  11.225  18.839  0.00  0.00    +0.000 A 
ATOM     14  C   UNL     1       1.952  12.231  18.560  0.00  0.00    +0.000 A 
ATOM     15  C   UNL     1       1.530  13.564  18.412  0.00  0.00    +0.000 A 
BRANCH  10  17
ATOM     16  C   UNL     1       0.454  16.238  18.772  0.00  0.00    +0.000 C 
ATOM     17  O   UNL     1      -0.350  15.145  18.354  0.00  0.00    +0.000 OA
ENDBRANCH  10  17
ENDBRANCH   1  13
BRANCH   6  18
ATOM     18  C   UNL     1       2.261   4.621  19.460  0.00  0.00    +0.000 A 
ATOM     19  C   UNL     1       1.630   3.652  18.655  0.00  0.00    +0.000 A 
ATOM     20  C   UNL     1       1.010   2.535  19.219  0.00  0.00    +0.000 A 
ATOM     21  C   UNL     1       1.013   2.367  20.600  0.00  0.00    +0.000 A 
ATOM     22  C   UNL     1       1.631   3.317  21.411  0.00  0.00    +0.000 A 
ATOM     23  C   UNL     1       2.243   4.441  20.845  0.00  0.00    +0.000 A 
ENDBRANCH   6  18
BRANCH   7  24
ATOM     24  C   UNL     1       5.100   4.949  17.905  0.00  0.00    +0.000 C 
ATOM     25  O   UNL     1       5.524   4.189  18.774  0.00  0.00    +0.000 OA
BRANCH  24  26
ATOM     26  C   UNL     1       5.716   4.788  16.555  0.00  0.00    +0.000 A 
ATOM     27  C   UNL     1       4.996   4.089  15.572  0.00  0.00    +0.000 A 
ATOM     28  C   UNL     1       5.497   3.987  14.272  0.00  0.00    +0.000 A 
ATOM     29  C   UNL     1       6.715   4.579  13.957  0.00  0.00    +0.000 A 
ATOM     30  F   UNL     1       7.172   4.522  12.700  0.00  0.00    +0.000 F 
ATOM     31  C   UNL     1       7.469   5.222  14.929  0.00  0.00    +0.000 A 
ATOM     32  C   UNL     1       6.978   5.297  16.230  0.00  0.00    +0.000 A 
ATOM     33  F   UNL     1       7.758   5.864  17.159  0.00  0.00    +0.000 F 
ENDBRANCH  24  26
ENDBRANCH   7  24
TORSDOF 5
ENDMDL
MODEL 3
REMARK VINA RESULT:      -8.8      0.930      1.516
REMARK  Name = 
REMARK  6 active torsions:
REMARK  status: ('A' for Active; 'I' for Inactive)
REMARK    1  A    between atoms: C_1  and  O_2
REMARK    2  A    between atoms: O_2  and  C_3
REMARK    3  A    between atoms: C_6  and  C_7
REMARK    4  A    between atoms: C_12  and  C_13
REMARK    5  A    between atoms: C_19  and  C_20
REMARK    6  A    between atoms: C_20  and  C_22
REMARK                            x       y       z     vdW  Elec       q    Type
REMARK                         _______ _______ _______ _____ _____    ______ ____
ROOT
ATOM      1  C   UNL     1       1.014   9.869  19.050  0.00  0.00    +0.000 C 
ATOM      2  O   UNL     1       0.437   9.200  19.905  0.00  0.00    +0.000 OA
ATOM      3  N   UNL     1       2.056   9.424  18.257  0.00  0.00    +0.000 N 
ATOM      4  C   UNL     1       2.498   8.131  18.364  0.00  0.00    +0.000 A 
ATOM      5  N   UNL     1       1.970   7.139  19.019  0.00  0.00    +0.000 NA
ATOM      6  C   UNL     1       2.794   6.023  18.986  0.00  0.00    +0.000 A 
ATOM      7  C   UNL     1       3.986   6.216  18.291  0.00  0.00    +0.000 A 
ATOM      8  S   UNL     1       3.919   7.768  17.508  0.00  0.00    +0.000 S 
ATOM      9  H   UNL     1       2.592  10.039  17.669  0.00  0.00    +0.000 HD
ENDROOT
BRANCH   1  13
ATOM     10  C   UNL     1      -0.076  14.021  18.619  0.00  0.00    +0.000 A 
ATOM     11  C   UNL     1       1.252  13.607  18.603  0.00  0.00    +0.000 A 
ATOM     12  C   UNL     1       1.571  12.255  18.718  0.00  0.00    +0.000 A 
ATOM     13  C   UNL     1       0.565  11.287  18.875  0.00  0.00    +0.000 A 
ATOM     14  C   UNL     1      -0.771  11.706  18.902  0.00  0.00    +0.000 A 
ATOM     15  C   UNL     1      -1.087  13.070  18.770  0.00  0.00    +0.000 A 
BRANCH  10  17
ATOM     16  C   UNL     1       0.371  16.152  19.546  0.00  0.00    +0.000 C 
ATOM     17  O   UNL     1      -0.258  15.372  18.540  0.00  0.00    +0.000 OA
ENDBRANCH  10  17
ENDBRANCH   1  13
BRANCH   6  18
ATOM     18  C   UNL     1       2.335   4.826  19.691  0.00  0.00    +0.000 A 
ATOM     19  C   UNL     1       1.547   3.897  18.984  0.00  0.00    +0.000 A 
ATOM     20  C   UNL     1       1.020   2.767  19.614  0.00  0.00    +0.000 A 
ATOM     21  C   UNL     1       1.274   2.547  20.964  0.00  0.00    +0.000 A 
ATOM     22  C   UNL     1       2.050   3.457  21.679  0.00  0.00    +0.000 A 
ATOM     23  C   UNL     1       2.569   4.594  21.049  0.00  0.00    +0.000 A 
ENDBRANCH   6  18
BRANCH   7  24
ATOM     24  C   UNL     1       5.109   5.319  18.064  0.00  0.00    +0.000 C 
ATOM     25  O   UNL     1       5.759   4.807  18.975  0.00  0.00    +0.000 OA
BRANCH  24  26
ATOM     26  C   UNL     1       5.523   4.932  16.684  0.00  0.00    +0.000 A 
ATOM     27  C   UNL     1       6.720   5.462  16.172  0.00  0.00    +0.000 A 
ATOM     28  C   UNL     1       7.188   5.061  14.919  0.00  0.00    +0.000 A 
ATOM     29  C   UNL     1       6.461   4.136  14.178  0.00  0.00    +0.000 A 
ATOM     30  F   UNL     1       6.935   3.717  12.999  0.00  0.00    +0.000 F 
ATOM     31  C   UNL     1       5.247   3.647  14.640  0.00  0.00    +0.000 A 
ATOM     32  C   UNL     1       4.771   4.071  15.878  0.00  0.00    +0.000 A 
ATOM     33  F   UNL     1       3.566   3.633  16.266  0.00  0.00    +0.000 F 
ENDBRANCH  24  26
ENDBRANCH   7  24
TORSDOF 5
ENDMDL
MODEL 4
REMARK VINA RESULT:      -8.5      2.701      3.346
REMARK  Name = 
REMARK  6 active torsions:
REMARK  status: ('A' for Active; 'I' for Inactive)
REMARK    1  A    between atoms: C_1  and  O_2
REMARK    2  A    between atoms: O_2  and  C_3
REMARK    3  A    between atoms: C_6  and  C_7
REMARK    4  A    between atoms: C_12  and  C_13
REMARK    5  A    between atoms: C_19  and  C_20
REMARK    6  A    between atoms: C_20  and  C_22
REMARK                            x       y       z     vdW  Elec       q    Type
REMARK                         _______ _______ _______ _____ _____    ______ ____
ROOT
ATOM      1  C   UNL     1       0.425   9.176  20.711  0.00  0.00    +0.000 C 
ATOM      2  O   UNL     1       0.442   8.098  21.303  0.00  0.00    +0.000 OA
ATOM      3  N   UNL     1       1.065   9.440  19.514  0.00  0.00    +0.000 N 
ATOM      4  C   UNL     1       1.760   8.447  18.873  0.00  0.00    +0.000 A 
ATOM      5  N   UNL     1       1.796   7.174  19.136  0.00  0.00    +0.000 NA
ATOM      6  C   UNL     1       2.724   6.524  18.335  0.00  0.00    +0.000 A 
ATOM      7  C   UNL     1       3.411   7.364  17.462  0.00  0.00    +0.000 A 
ATOM      8  S   UNL     1       2.685   8.944  17.539  0.00  0.00    +0.000 S 
ATOM      9  H   UNL     1       1.143  10.367  19.133  0.00  0.00    +0.000 HD
ENDROOT
BRANCH   1  13
ATOM     10  C   UNL     1      -1.689  12.538  22.397  0.00  0.00    +0.000 A 
ATOM     11  C   UNL     1      -1.391  12.466  21.040  0.00  0.00    +0.000 A 
ATOM     12  C   UNL     1      -0.730  11.354  20.521  0.00  0.00    +0.000 A 
ATOM     13  C   UNL     1      -0.332  10.296  21.355  0.00  0.00    +0.000 A 
ATOM     14  C   UNL     1      -0.623  10.374  22.722  0.00  0.00    +0.000 A 
ATOM     15  C   UNL     1      -1.303  11.492  23.237  0.00  0.00    +0.000 A 
BRANCH  10  17
ATOM     16  C   UNL     1      -3.012  13.642  24.017  0.00  0.00    +0.000 C 
ATOM     17  O   UNL     1      -2.301  13.693  22.790  0.00  0.00    +0.000 OA
ENDBRANCH  10  17
ENDBRANCH   1  13
BRANCH   6  18
ATOM     18  C   UNL     1       2.884   5.082  18.525  0.00  0.00    +0.000 A 
ATOM     19  C   UNL     1       3.776   4.636  19.520  0.00  0.00    +0.000 A 
ATOM     20  C   UNL     1       4.027   3.275  19.710  0.00  0.00    +0.000 A 
ATOM     21  C   UNL     1       3.387   2.336  18.907  0.00  0.00    +0.000 A 
ATOM     22  C   UNL     1       2.502   2.760  17.917  0.00  0.00    +0.000 A 
ATOM     23  C   UNL     1       2.260   4.124  17.721  0.00  0.00    +0.000 A 
ENDBRANCH   6  18
BRANCH   7  24
ATOM     24  C   UNL     1       4.467   7.080  16.503  0.00  0.00    +0.000 C 
ATOM     25  O   UNL     1       4.472   7.520  15.354  0.00  0.00    +0.000 OA
BRANCH  24  26
ATOM     26  C   UNL     1       5.649   6.249  16.877  0.00  0.00    +0.000 A 
ATOM     27  C   UNL     1       6.607   6.802  17.743  0.00  0.00    +0.000 A 
ATOM     28  C   UNL     1       7.684   6.031  18.186  0.00  0.00    +0.000 A 
ATOM     29  C   UNL     1       7.806   4.713  17.760  0.00  0.00    +0.000 A 
ATOM     30  F   UNL     1       8.811   3.960  18.222  0.00  0.00    +0.000 F 
ATOM     31  C   UNL     1       6.903   4.168  16.857  0.00  0.00    +0.000 A 
ATOM     32  C   UNL     1       5.847   4.949  16.398  0.00  0.00    +0.000 A 
ATOM     33  F   UNL     1       5.032   4.418  15.477  0.00  0.00    +0.000 F 
ENDBRANCH  24  26
ENDBRANCH   7  24
TORSDOF 5
ENDMDL
MODEL 5
REMARK VINA RESULT:      -8.5      2.797      3.574
REMARK  Name = 
REMARK  6 active torsions:
REMARK  status: ('A' for Active; 'I' for Inactive)
REMARK    1  A    between atoms: C_1  and  O_2
REMARK    2  A    between atoms: O_2  and  C_3
REMARK    3  A    between atoms: C_6  and  C_7
REMARK    4  A    between atoms: C_12  and  C_13
REMARK    5  A    between atoms: C_19  and  C_20
REMARK    6  A    between atoms: C_20  and  C_22
REMARK                            x       y       z     vdW  Elec       q    Type
REMARK                         _______ _______ _______ _____ _____    ______ ____
ROOT
ATOM      1  C   UNL     1       0.483   9.183  20.795  0.00  0.00    +0.000 C 
ATOM      2  O   UNL     1       0.513   8.108  21.392  0.00  0.00    +0.000 OA
ATOM      3  N   UNL     1       1.103   9.443  19.587  0.00  0.00    +0.000 N 
ATOM      4  C   UNL     1       1.791   8.449  18.940  0.00  0.00    +0.000 A 
ATOM      5  N   UNL     1       1.835   7.177  19.208  0.00  0.00    +0.000 NA
ATOM      6  C   UNL     1       2.752   6.526  18.396  0.00  0.00    +0.000 A 
ATOM      7  C   UNL     1       3.422   7.364  17.507  0.00  0.00    +0.000 A 
ATOM      8  S   UNL     1       2.693   8.942  17.588  0.00  0.00    +0.000 S 
ATOM      9  H   UNL     1       1.172  10.368  19.200  0.00  0.00    +0.000 HD
ENDROOT
BRANCH   1  13
ATOM     10  C   UNL     1      -1.777  12.261  22.803  0.00  0.00    +0.000 A 
ATOM     11  C   UNL     1      -1.517  11.034  23.404  0.00  0.00    +0.000 A 
ATOM     12  C   UNL     1      -0.761  10.069  22.740  0.00  0.00    +0.000 A 
ATOM     13  C   UNL     1      -0.267  10.304  21.446  0.00  0.00    +0.000 A 
ATOM     14  C   UNL     1      -0.538  11.535  20.837  0.00  0.00    +0.000 A 
ATOM     15  C   UNL     1      -1.289  12.510  21.518  0.00  0.00    +0.000 A 
BRANCH  10  17
ATOM     16  C   UNL     1      -3.962  12.884  23.464  0.00  0.00    +0.000 C 
ATOM     17  O   UNL     1      -2.561  13.105  23.535  0.00  0.00    +0.000 OA
ENDBRANCH  10  17
ENDBRANCH   1  13
BRANCH   6  18
ATOM     18  C   UNL     1       2.919   5.085  18.590  0.00  0.00    +0.000 A 
ATOM     19  C   UNL     1       2.110   4.213  17.836  0.00  0.00    +0.000 A 
ATOM     20  C   UNL     1       2.170   2.829  18.020  0.00  0.00    +0.000 A 
ATOM     21  C   UNL     1       3.043   2.295  18.961  0.00  0.00    +0.000 A 
ATOM     22  C   UNL     1       3.849   3.143  19.717  0.00  0.00    +0.000 A 
ATOM     23  C   UNL     1       3.781   4.530  19.539  0.00  0.00    +0.000 A 
ENDBRANCH   6  18
BRANCH   7  24
ATOM     24  C   UNL     1       4.463   7.077  16.533  0.00  0.00    +0.000 C 
ATOM     25  O   UNL     1       4.455   7.522  15.386  0.00  0.00    +0.000 OA
BRANCH  24  26
ATOM     26  C   UNL     1       5.646   6.239  16.887  0.00  0.00    +0.000 A 
ATOM     27  C   UNL     1       6.622   6.788  17.735  0.00  0.00    +0.000 A 
ATOM     28  C   UNL     1       7.702   6.010  18.161  0.00  0.00    +0.000 A 
ATOM     29  C   UNL     1       7.808   4.690  17.736  0.00  0.00    +0.000 A 
ATOM     30  F   UNL     1       8.816   3.932  18.181  0.00  0.00    +0.000 F 
ATOM     31  C   UNL     1       6.886   4.150  16.850  0.00  0.00    +0.000 A 
ATOM     32  C   UNL     1       5.826   4.937  16.407  0.00  0.00    +0.000 A 
ATOM     33  F   UNL     1       4.992   4.410  15.502  0.00  0.00    +0.000 F 
ENDBRANCH  24  26
ENDBRANCH   7  24
TORSDOF 5
ENDMDL
MODEL 6
REMARK VINA RESULT:      -8.3      3.103      3.668
REMARK  Name = 
REMARK  6 active torsions:
REMARK  status: ('A' for Active; 'I' for Inactive)
REMARK    1  A    between atoms: C_1  and  O_2
REMARK    2  A    between atoms: O_2  and  C_3
REMARK    3  A    between atoms: C_6  and  C_7
REMARK    4  A    between atoms: C_12  and  C_13
REMARK    5  A    between atoms: C_19  and  C_20
REMARK    6  A    between atoms: C_20  and  C_22
REMARK                            x       y       z     vdW  Elec       q    Type
REMARK                         _______ _______ _______ _____ _____    ______ ____
ROOT
ATOM      1  C   UNL     1       0.223  10.048  21.644  0.00  0.00    +0.000 C 
ATOM      2  O   UNL     1       0.065   9.165  22.484  0.00  0.00    +0.000 OA
ATOM      3  N   UNL     1       0.814   9.876  20.405  0.00  0.00    +0.000 N 
ATOM      4  C   UNL     1       1.244   8.634  20.016  0.00  0.00    +0.000 A 
ATOM      5  N   UNL     1       1.041   7.483  20.586  0.00  0.00    +0.000 NA
ATOM      6  C   UNL     1       1.757   6.477  19.952  0.00  0.00    +0.000 A 
ATOM      7  C   UNL     1       2.533   6.918  18.883  0.00  0.00    +0.000 A 
ATOM      8  S   UNL     1       2.151   8.589  18.581  0.00  0.00    +0.000 S 
ATOM      9  H   UNL     1       1.050  10.646  19.804  0.00  0.00    +0.000 HD
ENDROOT
BRANCH   1  13
ATOM     10  C   UNL     1      -0.918  14.096  22.608  0.00  0.00    +0.000 A 
ATOM     11  C   UNL     1       0.038  13.816  21.637  0.00  0.00    +0.000 A 
ATOM     12  C   UNL     1       0.366  12.497  21.329  0.00  0.00    +0.000 A 
ATOM     13  C   UNL     1      -0.242  11.425  22.005  0.00  0.00    +0.000 A 
ATOM     14  C   UNL     1      -1.196  11.708  22.990  0.00  0.00    +0.000 A 
ATOM     15  C   UNL     1      -1.533  13.041  23.285  0.00  0.00    +0.000 A 
BRANCH  10  17
ATOM     16  C   UNL     1      -0.756  15.895  24.136  0.00  0.00    +0.000 C 
ATOM     17  O   UNL     1      -1.122  15.424  22.848  0.00  0.00    +0.000 OA
ENDBRANCH  10  17
ENDBRANCH   1  13
BRANCH   6  18
ATOM     18  C   UNL     1       1.634   5.122  20.491  0.00  0.00    +0.000 A 
ATOM     19  C   UNL     1       2.607   4.680  21.409  0.00  0.00    +0.000 A 
ATOM     20  C   UNL     1       2.590   3.376  21.910  0.00  0.00    +0.000 A 
ATOM     21  C   UNL     1       1.595   2.493  21.503  0.00  0.00    +0.000 A 
ATOM     22  C   UNL     1       0.626   2.914  20.595  0.00  0.00    +0.000 A 
ATOM     23  C   UNL     1       0.651   4.216  20.085  0.00  0.00    +0.000 A 
ENDBRANCH   6  18
BRANCH   7  24
ATOM     24  C   UNL     1       3.437   6.194  18.003  0.00  0.00    +0.000 C 
ATOM     25  O   UNL     1       4.173   6.748  17.188  0.00  0.00    +0.000 OA
BRANCH  24  26
ATOM     26  C   UNL     1       3.552   4.707  18.064  0.00  0.00    +0.000 A 
ATOM     27  C   UNL     1       4.675   4.150  18.698  0.00  0.00    +0.000 A 
ATOM     28  C   UNL     1       4.781   2.766  18.852  0.00  0.00    +0.000 A 
ATOM     29  C   UNL     1       3.770   1.941  18.370  0.00  0.00    +0.000 A 
ATOM     30  F   UNL     1       3.850   0.619  18.560  0.00  0.00    +0.000 F 
ATOM     31  C   UNL     1       2.683   2.469  17.688  0.00  0.00    +0.000 A 
ATOM     32  C   UNL     1       2.595   3.848  17.512  0.00  0.00    +0.000 A 
ATOM     33  F   UNL     1       1.570   4.321  16.792  0.00  0.00    +0.000 F 
ENDBRANCH  24  26
ENDBRANCH   7  24
TORSDOF 5
ENDMDL
MODEL 7
REMARK VINA RESULT:      -8.2      2.954      3.371
REMARK  Name = 
REMARK  6 active torsions:
REMARK  status: ('A' for Active; 'I' for Inactive)
REMARK    1  A    between atoms: C_1  and  O_2
REMARK    2  A    between atoms: O_2  and  C_3
REMARK    3  A    between atoms: C_6  and  C_7
REMARK    4  A    between atoms: C_12  and  C_13
REMARK    5  A    between atoms: C_19  and  C_20
REMARK    6  A    between atoms: C_20  and  C_22
REMARK                            x       y       z     vdW  Elec       q    Type
REMARK                         _______ _______ _______ _____ _____    ______ ____
ROOT
ATOM      1  C   UNL     1       0.220  10.121  21.590  0.00  0.00    +0.000 C 
ATOM      2  O   UNL     1       0.046   9.237  22.427  0.00  0.00    +0.000 OA
ATOM      3  N   UNL     1       0.832   9.949  20.362  0.00  0.00    +0.000 N 
ATOM      4  C   UNL     1       1.264   8.706  19.978  0.00  0.00    +0.000 A 
ATOM      5  N   UNL     1       1.047   7.555  20.542  0.00  0.00    +0.000 NA
ATOM      6  C   UNL     1       1.769   6.547  19.918  0.00  0.00    +0.000 A 
ATOM      7  C   UNL     1       2.565   6.987  18.863  0.00  0.00    +0.000 A 
ATOM      8  S   UNL     1       2.194   8.660  18.557  0.00  0.00    +0.000 S 
ATOM      9  H   UNL     1       1.080  10.719  19.766  0.00  0.00    +0.000 HD
ENDROOT
BRANCH   1  13
ATOM     10  C   UNL     1      -0.924  14.172  22.537  0.00  0.00    +0.000 A 
ATOM     11  C   UNL     1       0.024  13.888  21.559  0.00  0.00    +0.000 A 
ATOM     12  C   UNL     1       0.353  12.568  21.257  0.00  0.00    +0.000 A 
ATOM     13  C   UNL     1      -0.245  11.499  21.947  0.00  0.00    +0.000 A 
ATOM     14  C   UNL     1      -1.190  11.786  22.939  0.00  0.00    +0.000 A 
ATOM     15  C   UNL     1      -1.529  13.120  23.228  0.00  0.00    +0.000 A 
BRANCH  10  17
ATOM     16  C   UNL     1      -1.535  15.855  24.083  0.00  0.00    +0.000 C 
ATOM     17  O   UNL     1      -1.130  15.501  22.769  0.00  0.00    +0.000 OA
ENDBRANCH  10  17
ENDBRANCH   1  13
BRANCH   6  18
ATOM     18  C   UNL     1       1.633   5.192  20.452  0.00  0.00    +0.000 A 
ATOM     19  C   UNL     1       2.542   4.772  21.443  0.00  0.00    +0.000 A 
ATOM     20  C   UNL     1       2.512   3.470  21.948  0.00  0.00    +0.000 A 
ATOM     21  C   UNL     1       1.569   2.566  21.471  0.00  0.00    +0.000 A 
ATOM     22  C   UNL     1       0.663   2.964  20.490  0.00  0.00    +0.000 A 
ATOM     23  C   UNL     1       0.701   4.266  19.977  0.00  0.00    +0.000 A 
ENDBRANCH   6  18
BRANCH   7  24
ATOM     24  C   UNL     1       3.481   6.261  17.996  0.00  0.00    +0.000 C 
ATOM     25  O   UNL     1       4.227   6.814  17.189  0.00  0.00    +0.000 OA
BRANCH  24  26
ATOM     26  C   UNL     1       3.596   4.775  18.063  0.00  0.00    +0.000 A 
ATOM     27  C   UNL     1       2.680   4.001  17.330  0.00  0.00    +0.000 A 
ATOM     28  C   UNL     1       2.803   2.610  17.297  0.00  0.00    +0.000 A 
ATOM     29  C   UNL     1       3.835   1.994  17.997  0.00  0.00    +0.000 A 
ATOM     30  F   UNL     1       3.981   0.666  17.926  0.00  0.00    +0.000 F 
ATOM     31  C   UNL     1       4.712   2.737  18.775  0.00  0.00    +0.000 A 
ATOM     32  C   UNL     1       4.569   4.121  18.828  0.00  0.00    +0.000 A 
ATOM     33  F   UNL     1       5.387   4.803  19.639  0.00  0.00    +0.000 F 
ENDBRANCH  24  26
ENDBRANCH   7  24
TORSDOF 5
ENDMDL
MODEL 8
REMARK VINA RESULT:      -8.0      3.309      3.925
REMARK  Name = 
REMARK  6 active torsions:
REMARK  status: ('A' for Active; 'I' for Inactive)
REMARK    1  A    between atoms: C_1  and  O_2
REMARK    2  A    between atoms: O_2  and  C_3
REMARK    3  A    between atoms: C_6  and  C_7
REMARK    4  A    between atoms: C_12  and  C_13
REMARK    5  A    between atoms: C_19  and  C_20
REMARK    6  A    between atoms: C_20  and  C_22
REMARK                            x       y       z     vdW  Elec       q    Type
REMARK                         _______ _______ _______ _____ _____    ______ ____
ROOT
ATOM      1  C   UNL     1      -0.061   9.996  21.888  0.00  0.00    +0.000 C 
ATOM      2  O   UNL     1      -0.111   9.081  22.707  0.00  0.00    +0.000 OA
ATOM      3  N   UNL     1       0.494   9.908  20.624  0.00  0.00    +0.000 N 
ATOM      4  C   UNL     1       1.012   8.717  20.183  0.00  0.00    +0.000 A 
ATOM      5  N   UNL     1       0.929   7.539  20.726  0.00  0.00    +0.000 NA
ATOM      6  C   UNL     1       1.702   6.615  20.037  0.00  0.00    +0.000 A 
ATOM      7  C   UNL     1       2.396   7.148  18.954  0.00  0.00    +0.000 A 
ATOM      8  S   UNL     1       1.863   8.787  18.715  0.00  0.00    +0.000 S 
ATOM      9  H   UNL     1       0.641  10.711  20.038  0.00  0.00    +0.000 HD
ENDROOT
BRANCH   1  13
ATOM     10  C   UNL     1      -1.483  13.898  23.058  0.00  0.00    +0.000 A 
ATOM     11  C   UNL     1      -0.373  13.740  22.234  0.00  0.00    +0.000 A 
ATOM     12  C   UNL     1       0.046  12.466  21.852  0.00  0.00    +0.000 A 
ATOM     13  C   UNL     1      -0.625  11.319  22.306  0.00  0.00    +0.000 A 
ATOM     14  C   UNL     1      -1.735  11.478  23.144  0.00  0.00    +0.000 A 
ATOM     15  C   UNL     1      -2.162  12.766  23.514  0.00  0.00    +0.000 A 
BRANCH  10  17
ATOM     16  C   UNL     1      -2.513  15.378  24.589  0.00  0.00    +0.000 C 
ATOM     17  O   UNL     1      -1.769  15.189  23.395  0.00  0.00    +0.000 OA
ENDBRANCH  10  17
ENDBRANCH   1  13
BRANCH   6  18
ATOM     18  C   UNL     1       1.715   5.240  20.540  0.00  0.00    +0.000 A 
ATOM     19  C   UNL     1       0.665   4.382  20.160  0.00  0.00    +0.000 A 
ATOM     20  C   UNL     1       0.579   3.079  20.657  0.00  0.00    +0.000 A 
ATOM     21  C   UNL     1       1.546   2.612  21.541  0.00  0.00    +0.000 A 
ATOM     22  C   UNL     1       2.591   3.449  21.928  0.00  0.00    +0.000 A 
ATOM     23  C   UNL     1       2.670   4.757  21.439  0.00  0.00    +0.000 A 
ENDBRANCH   6  18
BRANCH   7  24
ATOM     24  C   UNL     1       3.323   6.526  18.020  0.00  0.00    +0.000 C 
ATOM     25  O   UNL     1       4.058   7.169  17.271  0.00  0.00    +0.000 OA
BRANCH  24  26
ATOM     26  C   UNL     1       3.465   5.043  17.941  0.00  0.00    +0.000 A 
ATOM     27  C   UNL     1       4.668   4.464  18.379  0.00  0.00    +0.000 A 
ATOM     28  C   UNL     1       4.812   3.074  18.402  0.00  0.00    +0.000 A 
ATOM     29  C   UNL     1       3.759   2.267  17.985  0.00  0.00    +0.000 A 
ATOM     30  F   UNL     1       3.881   0.937  18.052  0.00  0.00    +0.000 F 
ATOM     31  C   UNL     1       2.586   2.822  17.493  0.00  0.00    +0.000 A 
ATOM     32  C   UNL     1       2.457   4.208  17.446  0.00  0.00    +0.000 A 
ATOM     33  F   UNL     1       1.341   4.713  16.905  0.00  0.00    +0.000 F 
ENDBRANCH  24  26
ENDBRANCH   7  24
TORSDOF 5
ENDMDL
MODEL 9
REMARK VINA RESULT:      -8.0      2.635      3.405
REMARK  Name = 
REMARK  6 active torsions:
REMARK  status: ('A' for Active; 'I' for Inactive)
REMARK    1  A    between atoms: C_1  and  O_2
REMARK    2  A    between atoms: O_2  and  C_3
REMARK    3  A    between atoms: C_6  and  C_7
REMARK    4  A    between atoms: C_12  and  C_13
REMARK    5  A    between atoms: C_19  and  C_20
REMARK    6  A    between atoms: C_20  and  C_22
REMARK                            x       y       z     vdW  Elec       q    Type
REMARK                         _______ _______ _______ _____ _____    ______ ____
ROOT
ATOM      1  C   UNL     1       0.294   9.609  20.801  0.00  0.00    +0.000 C 
ATOM      2  O   UNL     1       0.232   8.553  21.428  0.00  0.00    +0.000 OA
ATOM      3  N   UNL     1       0.974   9.793  19.611  0.00  0.00    +0.000 N 
ATOM      4  C   UNL     1       1.618   8.738  19.018  0.00  0.00    +0.000 A 
ATOM      5  N   UNL     1       1.569   7.475  19.323  0.00  0.00    +0.000 NA
ATOM      6  C   UNL     1       2.471   6.742  18.564  0.00  0.00    +0.000 A 
ATOM      7  C   UNL     1       3.226   7.508  17.679  0.00  0.00    +0.000 A 
ATOM      8  S   UNL     1       2.600   9.132  17.689  0.00  0.00    +0.000 S 
ATOM      9  H   UNL     1       1.117  10.699  19.202  0.00  0.00    +0.000 HD
ENDROOT
BRANCH   1  13
ATOM     10  C   UNL     1      -1.609  13.157  22.352  0.00  0.00    +0.000 A 
ATOM     11  C   UNL     1      -1.114  13.100  21.053  0.00  0.00    +0.000 A 
ATOM     12  C   UNL     1      -0.528  11.930  20.572  0.00  0.00    +0.000 A 
ATOM     13  C   UNL     1      -0.404  10.795  21.392  0.00  0.00    +0.000 A 
ATOM     14  C   UNL     1      -0.892  10.857  22.702  0.00  0.00    +0.000 A 
ATOM     15  C   UNL     1      -1.495  12.036  23.176  0.00  0.00    +0.000 A 
BRANCH  10  17
ATOM     16  C   UNL     1      -3.257  14.339  23.571  0.00  0.00    +0.000 C 
ATOM     17  O   UNL     1      -2.122  14.368  22.719  0.00  0.00    +0.000 OA
ENDBRANCH  10  17
ENDBRANCH   1  13
BRANCH   6  18
ATOM     18  C   UNL     1       2.536   5.300  18.804  0.00  0.00    +0.000 A 
ATOM     19  C   UNL     1       1.835   4.446  17.929  0.00  0.00    +0.000 A 
ATOM     20  C   UNL     1       1.799   3.066  18.139  0.00  0.00    +0.000 A 
ATOM     21  C   UNL     1       2.468   2.515  19.227  0.00  0.00    +0.000 A 
ATOM     22  C   UNL     1       3.165   3.345  20.103  0.00  0.00    +0.000 A 
ATOM     23  C   UNL     1       3.191   4.729  19.898  0.00  0.00    +0.000 A 
ENDBRANCH   6  18
BRANCH   7  24
ATOM     24  C   UNL     1       4.282   7.127  16.754  0.00  0.00    +0.000 C 
ATOM     25  O   UNL     1       4.250   7.383  15.551  0.00  0.00    +0.000 OA
BRANCH  24  26
ATOM     26  C   UNL     1       5.508   6.419  17.227  0.00  0.00    +0.000 A 
ATOM     27  C   UNL     1       6.548   7.184  17.781  0.00  0.00    +0.000 A 
ATOM     28  C   UNL     1       7.677   6.556  18.313  0.00  0.00    +0.000 A 
ATOM     29  C   UNL     1       7.767   5.169  18.287  0.00  0.00    +0.000 A 
ATOM     30  F   UNL     1       8.827   4.566  18.839  0.00  0.00    +0.000 F 
ATOM     31  C   UNL     1       6.778   4.400  17.689  0.00  0.00    +0.000 A 
ATOM     32  C   UNL     1       5.668   5.032  17.136  0.00  0.00    +0.000 A 
ATOM     33  F   UNL     1       4.764   4.269  16.508  0.00  0.00    +0.000 F 
ENDBRANCH  24  26
ENDBRANCH   7  24
TORSDOF 5
ENDMDL
