MODEL 1
REMARK VINA RESULT:      -8.5      0.000      0.000
REMARK  Name = 
REMARK  8 active torsions:
REMARK  status: ('A' for Active; 'I' for Inactive)
REMARK    1  A    between atoms: C_1  and  O_2
REMARK    2  A    between atoms: O_2  and  C_3
REMARK    3  A    between atoms: C_8  and  C_9
REMARK    4  A    between atoms: C_12  and  N_13
REMARK    5  A    between atoms: N_13  and  C_14
REMARK    6  A    between atoms: C_17  and  C_18
REMARK    7  A    between atoms: C_18  and  C_19
REMARK    8  A    between atoms: C_23  and  C_24
REMARK                            x       y       z     vdW  Elec       q    Type
REMARK                         _______ _______ _______ _____ _____    ______ ____
ROOT
ATOM      1  C   UNL     1       1.350  10.879  19.148  0.00  0.00    +0.000 A 
ATOM      2  N   UNL     1       1.947  10.233  18.129  0.00  0.00    +0.000 NA
ATOM      3  N   UNL     1       2.158   8.844  18.154  0.00  0.00    +0.000 NA
ATOM      4  C   UNL     1       1.832   8.082  19.217  0.00  0.00    +0.000 A 
ATOM      5  C   UNL     1       1.260   8.728  20.294  0.00  0.00    +0.000 A 
ATOM      6  C   UNL     1       1.022  10.118  20.270  0.00  0.00    +0.000 A 
ATOM      7  C   UNL     1       0.300  10.519  21.530  0.00  0.00    +0.000 C 
ATOM      8  C   UNL     1       0.636   9.357  22.469  0.00  0.00    +0.000 C 
ATOM      9  C   UNL     1       0.782   8.123  21.583  0.00  0.00    +0.000 C 
ENDROOT
BRANCH   1  15
ATOM     10  C   UNL     1      -0.195  12.845  18.594  0.00  0.00    +0.000 A 
ATOM     11  C   UNL     1      -0.425  14.231  18.574  0.00  0.00    +0.000 A 
ATOM     12  C   UNL     1       0.603  15.130  18.836  0.00  0.00    +0.000 A 
ATOM     13  C   UNL     1       1.880  14.651  19.076  0.00  0.00    +0.000 A 
ATOM     14  C   UNL     1       2.113  13.274  19.098  0.00  0.00    +0.000 A 
ATOM     15  C   UNL     1       1.079  12.327  18.943  0.00  0.00    +0.000 A 
BRANCH  10  17
ATOM     16  C   UNL     1      -2.298  12.035  19.291  0.00  0.00    +0.000 C 
ATOM     17  O   UNL     1      -1.232  11.976  18.340  0.00  0.00    +0.000 OA
ENDBRANCH  10  17
ENDBRANCH   1  15
BRANCH   4  18
ATOM     18  N   UNL     1       1.984   6.673  19.172  0.00  0.00    +0.000 N 
ATOM     19  H   UNL     1       2.263   6.340  20.090  0.00  0.00    +0.000 HD
BRANCH  18  20
ATOM     20  C   UNL     1       2.832   6.039  18.214  0.00  0.00    +0.000 A 
ATOM     21  C   UNL     1       3.989   6.699  17.762  0.00  0.00    +0.000 A 
ATOM     22  C   UNL     1       4.895   6.076  16.905  0.00  0.00    +0.000 A 
ATOM     23  C   UNL     1       4.687   4.758  16.500  0.00  0.00    +0.000 A 
ATOM     24  C   UNL     1       3.541   4.086  16.950  0.00  0.00    +0.000 A 
ATOM     25  C   UNL     1       2.626   4.702  17.830  0.00  0.00    +0.000 A 
ATOM     26  C   UNL     1       1.477   3.888  18.366  0.00  0.00    +0.000 C 
BRANCH  23  27
ATOM     27  C   UNL     1       5.734   4.044  15.672  0.00  0.00    +0.000 C 
BRANCH  27  28
ATOM     28  C   UNL     1       7.141   4.608  15.640  0.00  0.00    +0.000 C 
ATOM     29  N   UNL     1       7.547   5.326  14.562  0.00  0.00    +0.000 N 
ATOM     30  O   UNL     1       7.928   4.409  16.566  0.00  0.00    +0.000 OA
ATOM     31  H   UNL     1       6.952   5.524  13.769  0.00  0.00    +0.000 HD
ATOM     32  H   UNL     1       8.490   5.693  14.569  0.00  0.00    +0.000 HD
ENDBRANCH  27  28
ENDBRANCH  23  27
ENDBRANCH  18  20
ENDBRANCH   4  18
TORSDOF 6
ENDMDL
MODEL 2
REMARK VINA RESULT:      -8.5      2.576      8.779
REMARK  Name = 
REMARK  8 active torsions:
REMARK  status: ('A' for Active; 'I' for Inactive)
REMARK    1  A    between atoms: C_1  and  O_2
REMARK    2  A    between atoms: O_2  and  C_3
REMARK    3  A    between atoms: C_8  and  C_9
REMARK    4  A    between atoms: C_12  and  N_13
REMARK    5  A    between atoms: N_13  and  C_14
REMARK    6  A    between atoms: C_17  and  C_18
REMARK    7  A    between atoms: C_18  and  C_19
REMARK    8  A    between atoms: C_23  and  C_24
REMARK                            x       y       z     vdW  Elec       q    Type
REMARK                         _______ _______ _______ _____ _____    ______ ____
ROOT
ATOM      1  C   UNL     1       3.617   6.949  17.734  0.00  0.00    +0.000 A 
ATOM      2  N   UNL     1       3.318   8.102  17.107  0.00  0.00    +0.000 NA
ATOM      3  N   UNL     1       2.417   9.031  17.654  0.00  0.00    +0.000 NA
ATOM      4  C   UNL     1       1.752   8.802  18.804  0.00  0.00    +0.000 A 
ATOM      5  C   UNL     1       2.004   7.605  19.442  0.00  0.00    +0.000 A 
ATOM      6  C   UNL     1       2.926   6.677  18.914  0.00  0.00    +0.000 A 
ATOM      7  C   UNL     1       3.070   5.523  19.873  0.00  0.00    +0.000 C 
ATOM      8  C   UNL     1       1.780   5.628  20.689  0.00  0.00    +0.000 C 
ATOM      9  C   UNL     1       1.427   7.112  20.738  0.00  0.00    +0.000 C 
ENDROOT
BRANCH   1  15
ATOM     10  C   UNL     1       6.033   6.511  17.007  0.00  0.00    +0.000 A 
ATOM     11  C   UNL     1       7.013   5.612  16.554  0.00  0.00    +0.000 A 
ATOM     12  C   UNL     1       6.669   4.332  16.134  0.00  0.00    +0.000 A 
ATOM     13  C   UNL     1       5.337   3.955  16.123  0.00  0.00    +0.000 A 
ATOM     14  C   UNL     1       4.359   4.845  16.575  0.00  0.00    +0.000 A 
ATOM     15  C   UNL     1       4.675   6.112  17.107  0.00  0.00    +0.000 A 
BRANCH  10  17
ATOM     16  C   UNL     1       7.808   7.941  17.616  0.00  0.00    +0.000 C 
ATOM     17  O   UNL     1       6.401   7.769  17.426  0.00  0.00    +0.000 OA
ENDBRANCH  10  17
ENDBRANCH   1  15
BRANCH   4  18
ATOM     18  N   UNL     1       0.914   9.798  19.366  0.00  0.00    +0.000 N 
ATOM     19  H   UNL     1       0.632   9.508  20.297  0.00  0.00    +0.000 HD
BRANCH  18  20
ATOM     20  C   UNL     1      -0.258  10.262  18.693  0.00  0.00    +0.000 A 
ATOM     21  C   UNL     1      -0.751   9.554  17.583  0.00  0.00    +0.000 A 
ATOM     22  C   UNL     1      -1.945   9.915  16.960  0.00  0.00    +0.000 A 
ATOM     23  C   UNL     1      -2.701  10.979  17.452  0.00  0.00    +0.000 A 
ATOM     24  C   UNL     1      -2.223  11.688  18.565  0.00  0.00    +0.000 A 
ATOM     25  C   UNL     1      -1.024  11.322  19.211  0.00  0.00    +0.000 A 
ATOM     26  C   UNL     1      -0.626  12.052  20.467  0.00  0.00    +0.000 C 
BRANCH  23  27
ATOM     27  C   UNL     1      -4.055  11.289  16.854  0.00  0.00    +0.000 C 
BRANCH  27  28
ATOM     28  C   UNL     1      -5.206  11.605  17.789  0.00  0.00    +0.000 C 
ATOM     29  N   UNL     1      -5.592  12.896  17.958  0.00  0.00    +0.000 N 
ATOM     30  O   UNL     1      -5.784  10.714  18.411  0.00  0.00    +0.000 OA
ATOM     31  H   UNL     1      -5.160  13.673  17.479  0.00  0.00    +0.000 HD
ATOM     32  H   UNL     1      -6.365  13.077  18.586  0.00  0.00    +0.000 HD
ENDBRANCH  27  28
ENDBRANCH  23  27
ENDBRANCH  18  20
ENDBRANCH   4  18
TORSDOF 6
ENDMDL
MODEL 3
REMARK VINA RESULT:      -8.2      2.556      8.752
REMARK  Name = 
REMARK  8 active torsions:
REMARK  status: ('A' for Active; 'I' for Inactive)
REMARK    1  A    between atoms: C_1  and  O_2
REMARK    2  A    between atoms: O_2  and  C_3
REMARK    3  A    between atoms: C_8  and  C_9
REMARK    4  A    between atoms: C_12  and  N_13
REMARK    5  A    between atoms: N_13  and  C_14
REMARK    6  A    between atoms: C_17  and  C_18
REMARK    7  A    between atoms: C_18  and  C_19
REMARK    8  A    between atoms: C_23  and  C_24
REMARK                            x       y       z     vdW  Elec       q    Type
REMARK                         _______ _______ _______ _____ _____    ______ ____
ROOT
ATOM      1  C   UNL     1       3.481   6.994  17.811  0.00  0.00    +0.000 A 
ATOM      2  N   UNL     1       3.216   8.093  17.080  0.00  0.00    +0.000 NA
ATOM      3  N   UNL     1       2.347   9.097  17.539  0.00  0.00    +0.000 NA
ATOM      4  C   UNL     1       1.680   8.998  18.706  0.00  0.00    +0.000 A 
ATOM      5  C   UNL     1       1.897   7.858  19.453  0.00  0.00    +0.000 A 
ATOM      6  C   UNL     1       2.787   6.856  19.013  0.00  0.00    +0.000 A 
ATOM      7  C   UNL     1       2.899   5.793  20.075  0.00  0.00    +0.000 C 
ATOM      8  C   UNL     1       1.616   6.014  20.880  0.00  0.00    +0.000 C 
ATOM      9  C   UNL     1       1.310   7.507  20.791  0.00  0.00    +0.000 C 
ENDROOT
BRANCH   1  15
ATOM     10  C   UNL     1       4.227   4.749  16.832  0.00  0.00    +0.000 A 
ATOM     11  C   UNL     1       5.206   3.984  16.176  0.00  0.00    +0.000 A 
ATOM     12  C   UNL     1       6.492   4.477  15.989  0.00  0.00    +0.000 A 
ATOM     13  C   UNL     1       6.823   5.722  16.496  0.00  0.00    +0.000 A 
ATOM     14  C   UNL     1       5.852   6.488  17.147  0.00  0.00    +0.000 A 
ATOM     15  C   UNL     1       4.510   6.070  17.265  0.00  0.00    +0.000 A 
BRANCH  10  17
ATOM     16  C   UNL     1       2.913   2.951  17.611  0.00  0.00    +0.000 C 
ATOM     17  O   UNL     1       2.958   4.240  16.995  0.00  0.00    +0.000 OA
ENDBRANCH  10  17
ENDBRANCH   1  15
BRANCH   4  18
ATOM     18  N   UNL     1       0.876  10.068  19.174  0.00  0.00    +0.000 N 
ATOM     19  H   UNL     1       0.640   9.905  20.148  0.00  0.00    +0.000 HD
BRANCH  18  20
ATOM     20  C   UNL     1      -0.326  10.453  18.505  0.00  0.00    +0.000 A 
ATOM     21  C   UNL     1      -0.922   9.576  17.581  0.00  0.00    +0.000 A 
ATOM     22  C   UNL     1      -2.146   9.870  16.982  0.00  0.00    +0.000 A 
ATOM     23  C   UNL     1      -2.829  11.039  17.316  0.00  0.00    +0.000 A 
ATOM     24  C   UNL     1      -2.249  11.919  18.243  0.00  0.00    +0.000 A 
ATOM     25  C   UNL     1      -1.018  11.623  18.865  0.00  0.00    +0.000 A 
ATOM     26  C   UNL     1      -0.506  12.553  19.935  0.00  0.00    +0.000 C 
BRANCH  23  27
ATOM     27  C   UNL     1      -4.213  11.295  16.760  0.00  0.00    +0.000 C 
BRANCH  27  28
ATOM     28  C   UNL     1      -5.339  11.599  17.730  0.00  0.00    +0.000 C 
ATOM     29  N   UNL     1      -5.890  10.587  18.448  0.00  0.00    +0.000 N 
ATOM     30  O   UNL     1      -5.774  12.742  17.863  0.00  0.00    +0.000 OA
ATOM     31  H   UNL     1      -5.581   9.627  18.385  0.00  0.00    +0.000 HD
ATOM     32  H   UNL     1      -6.638  10.819  19.090  0.00  0.00    +0.000 HD
ENDBRANCH  27  28
ENDBRANCH  23  27
ENDBRANCH  18  20
ENDBRANCH   4  18
TORSDOF 6
ENDMDL
MODEL 4
REMARK VINA RESULT:      -8.2      2.220      8.721
REMARK  Name = 
REMARK  8 active torsions:
REMARK  status: ('A' for Active; 'I' for Inactive)
REMARK    1  A    between atoms: C_1  and  O_2
REMARK    2  A    between atoms: O_2  and  C_3
REMARK    3  A    between atoms: C_8  and  C_9
REMARK    4  A    between atoms: C_12  and  N_13
REMARK    5  A    between atoms: N_13  and  C_14
REMARK    6  A    between atoms: C_17  and  C_18
REMARK    7  A    between atoms: C_18  and  C_19
REMARK    8  A    between atoms: C_23  and  C_24
REMARK                            x       y       z     vdW  Elec       q    Type
REMARK                         _______ _______ _______ _____ _____    ______ ____
ROOT
ATOM      1  C   UNL     1       4.091   5.886  18.004  0.00  0.00    +0.000 A 
ATOM      2  N   UNL     1       3.801   7.198  17.923  0.00  0.00    +0.000 NA
ATOM      3  N   UNL     1       2.934   7.823  18.835  0.00  0.00    +0.000 NA
ATOM      4  C   UNL     1       2.296   7.143  19.808  0.00  0.00    +0.000 A 
ATOM      5  C   UNL     1       2.540   5.787  19.883  0.00  0.00    +0.000 A 
ATOM      6  C   UNL     1       3.427   5.154  18.987  0.00  0.00    +0.000 A 
ATOM      7  C   UNL     1       3.573   3.705  19.375  0.00  0.00    +0.000 C 
ATOM      8  C   UNL     1       2.307   3.472  20.205  0.00  0.00    +0.000 C 
ATOM      9  C   UNL     1       1.987   4.805  20.876  0.00  0.00    +0.000 C 
ENDROOT
BRANCH   1  15
ATOM     10  C   UNL     1       6.389   4.900  17.452  0.00  0.00    +0.000 A 
ATOM     11  C   UNL     1       7.247   4.282  16.527  0.00  0.00    +0.000 A 
ATOM     12  C   UNL     1       6.896   4.177  15.186  0.00  0.00    +0.000 A 
ATOM     13  C   UNL     1       5.703   4.729  14.751  0.00  0.00    +0.000 A 
ATOM     14  C   UNL     1       4.845   5.342  15.668  0.00  0.00    +0.000 A 
ATOM     15  C   UNL     1       5.114   5.377  17.052  0.00  0.00    +0.000 A 
BRANCH  10  17
ATOM     16  C   UNL     1       7.803   5.921  19.042  0.00  0.00    +0.000 C 
ATOM     17  O   UNL     1       6.758   4.983  18.776  0.00  0.00    +0.000 OA
ENDBRANCH  10  17
ENDBRANCH   1  15
BRANCH   4  18
ATOM     18  N   UNL     1       1.494   7.822  20.760  0.00  0.00    +0.000 N 
ATOM     19  H   UNL     1       0.833   7.167  21.165  0.00  0.00    +0.000 HD
BRANCH  18  20
ATOM     20  C   UNL     1       0.767   9.005  20.423  0.00  0.00    +0.000 A 
ATOM     21  C   UNL     1       0.589   9.353  19.073  0.00  0.00    +0.000 A 
ATOM     22  C   UNL     1      -0.198  10.442  18.699  0.00  0.00    +0.000 A 
ATOM     23  C   UNL     1      -0.858  11.198  19.667  0.00  0.00    +0.000 A 
ATOM     24  C   UNL     1      -0.694  10.855  21.018  0.00  0.00    +0.000 A 
ATOM     25  C   UNL     1       0.087   9.746  21.406  0.00  0.00    +0.000 A 
ATOM     26  C   UNL     1       0.129   9.364  22.862  0.00  0.00    +0.000 C 
BRANCH  23  27
ATOM     27  C   UNL     1      -1.809  12.300  19.253  0.00  0.00    +0.000 C 
BRANCH  27  28
ATOM     28  C   UNL     1      -3.058  11.926  18.479  0.00  0.00    +0.000 C 
ATOM     29  N   UNL     1      -2.996  11.813  17.128  0.00  0.00    +0.000 N 
ATOM     30  O   UNL     1      -4.131  11.743  19.053  0.00  0.00    +0.000 OA
ATOM     31  H   UNL     1      -2.147  11.951  16.596  0.00  0.00    +0.000 HD
ATOM     32  H   UNL     1      -3.844  11.559  16.637  0.00  0.00    +0.000 HD
ENDBRANCH  27  28
ENDBRANCH  23  27
ENDBRANCH  18  20
ENDBRANCH   4  18
TORSDOF 6
ENDMDL
MODEL 5
REMARK VINA RESULT:      -8.2      2.985      4.334
REMARK  Name = 
REMARK  8 active torsions:
REMARK  status: ('A' for Active; 'I' for Inactive)
REMARK    1  A    between atoms: C_1  and  O_2
REMARK    2  A    between atoms: O_2  and  C_3
REMARK    3  A    between atoms: C_8  and  C_9
REMARK    4  A    between atoms: C_12  and  N_13
REMARK    5  A    between atoms: N_13  and  C_14
REMARK    6  A    between atoms: C_17  and  C_18
REMARK    7  A    between atoms: C_18  and  C_19
REMARK    8  A    between atoms: C_23  and  C_24
REMARK                            x       y       z     vdW  Elec       q    Type
REMARK                         _______ _______ _______ _____ _____    ______ ____
ROOT
ATOM      1  C   UNL     1      -0.391  11.117  21.377  0.00  0.00    +0.000 A 
ATOM      2  N   UNL     1       0.649  10.436  21.894  0.00  0.00    +0.000 NA
ATOM      3  N   UNL     1       1.422   9.560  21.114  0.00  0.00    +0.000 NA
ATOM      4  C   UNL     1       1.138   9.300  19.822  0.00  0.00    +0.000 A 
ATOM      5  C   UNL     1       0.048   9.948  19.281  0.00  0.00    +0.000 A 
ATOM      6  C   UNL     1      -0.721  10.849  20.049  0.00  0.00    +0.000 A 
ATOM      7  C   UNL     1      -1.771  11.477  19.170  0.00  0.00    +0.000 C 
ATOM      8  C   UNL     1      -1.864  10.471  18.020  0.00  0.00    +0.000 C 
ATOM      9  C   UNL     1      -0.471   9.862  17.874  0.00  0.00    +0.000 C 
ENDROOT
BRANCH   1  15
ATOM     10  C   UNL     1      -0.667  13.464  22.361  0.00  0.00    +0.000 A 
ATOM     11  C   UNL     1      -1.430  14.379  23.107  0.00  0.00    +0.000 A 
ATOM     12  C   UNL     1      -2.540  13.960  23.831  0.00  0.00    +0.000 A 
ATOM     13  C   UNL     1      -2.871  12.615  23.851  0.00  0.00    +0.000 A 
ATOM     14  C   UNL     1      -2.117  11.703  23.108  0.00  0.00    +0.000 A 
ATOM     15  C   UNL     1      -1.049  12.101  22.278  0.00  0.00    +0.000 A 
BRANCH  10  17
ATOM     16  C   UNL     1       1.061  15.063  22.196  0.00  0.00    +0.000 C 
ATOM     17  O   UNL     1       0.423  13.907  21.646  0.00  0.00    +0.000 OA
ENDBRANCH  10  17
ENDBRANCH   1  15
BRANCH   4  18
ATOM     18  N   UNL     1       1.990   8.473  19.046  0.00  0.00    +0.000 N 
ATOM     19  H   UNL     1       1.630   8.424  18.098  0.00  0.00    +0.000 HD
BRANCH  18  20
ATOM     20  C   UNL     1       2.315   7.142  19.447  0.00  0.00    +0.000 A 
ATOM     21  C   UNL     1       1.581   6.523  20.475  0.00  0.00    +0.000 A 
ATOM     22  C   UNL     1       1.799   5.192  20.827  0.00  0.00    +0.000 A 
ATOM     23  C   UNL     1       2.740   4.428  20.138  0.00  0.00    +0.000 A 
ATOM     24  C   UNL     1       3.474   5.031  19.106  0.00  0.00    +0.000 A 
ATOM     25  C   UNL     1       3.250   6.373  18.731  0.00  0.00    +0.000 A 
ATOM     26  C   UNL     1       3.990   6.925  17.541  0.00  0.00    +0.000 C 
BRANCH  23  27
ATOM     27  C   UNL     1       2.887   2.952  20.439  0.00  0.00    +0.000 C 
BRANCH  27  28
ATOM     28  C   UNL     1       4.032   2.192  19.797  0.00  0.00    +0.000 C 
ATOM     29  N   UNL     1       3.867   1.661  18.559  0.00  0.00    +0.000 N 
ATOM     30  O   UNL     1       5.100   2.033  20.387  0.00  0.00    +0.000 OA
ATOM     31  H   UNL     1       3.016   1.754  18.021  0.00  0.00    +0.000 HD
ATOM     32  H   UNL     1       4.649   1.161  18.153  0.00  0.00    +0.000 HD
ENDBRANCH  27  28
ENDBRANCH  23  27
ENDBRANCH  18  20
ENDBRANCH   4  18
TORSDOF 6
ENDMDL
MODEL 6
REMARK VINA RESULT:      -8.1      3.024      8.910
REMARK  Name = 
REMARK  8 active torsions:
REMARK  status: ('A' for Active; 'I' for Inactive)
REMARK    1  A    between atoms: C_1  and  O_2
REMARK    2  A    between atoms: O_2  and  C_3
REMARK    3  A    between atoms: C_8  and  C_9
REMARK    4  A    between atoms: C_12  and  N_13
REMARK    5  A    between atoms: N_13  and  C_14
REMARK    6  A    between atoms: C_17  and  C_18
REMARK    7  A    between atoms: C_18  and  C_19
REMARK    8  A    between atoms: C_23  and  C_24
REMARK                            x       y       z     vdW  Elec       q    Type
REMARK                         _______ _______ _______ _____ _____    ______ ____
ROOT
ATOM      1  C   UNL     1       2.372   7.271  18.994  0.00  0.00    +0.000 A 
ATOM      2  N   UNL     1       2.216   7.701  17.728  0.00  0.00    +0.000 NA
ATOM      3  N   UNL     1       1.518   8.882  17.426  0.00  0.00    +0.000 NA
ATOM      4  C   UNL     1       0.913   9.626  18.374  0.00  0.00    +0.000 A 
ATOM      5  C   UNL     1       1.018   9.182  19.676  0.00  0.00    +0.000 A 
ATOM      6  C   UNL     1       1.737   8.010  19.991  0.00  0.00    +0.000 A 
ATOM      7  C   UNL     1       1.766   7.835  21.488  0.00  0.00    +0.000 C 
ATOM      8  C   UNL     1       0.574   8.688  21.929  0.00  0.00    +0.000 C 
ATOM      9  C   UNL     1       0.467   9.826  20.916  0.00  0.00    +0.000 C 
ENDROOT
BRANCH   1  15
ATOM     10  C   UNL     1       2.740   4.811  19.600  0.00  0.00    +0.000 A 
ATOM     11  C   UNL     1       3.574   3.680  19.604  0.00  0.00    +0.000 A 
ATOM     12  C   UNL     1       4.917   3.781  19.258  0.00  0.00    +0.000 A 
ATOM     13  C   UNL     1       5.447   5.022  18.949  0.00  0.00    +0.000 A 
ATOM     14  C   UNL     1       4.621   6.149  18.942  0.00  0.00    +0.000 A 
ATOM     15  C   UNL     1       3.233   6.074  19.183  0.00  0.00    +0.000 A 
BRANCH  10  17
ATOM     16  C   UNL     1       1.076   3.433  20.548  0.00  0.00    +0.000 C 
ATOM     17  O   UNL     1       1.412   4.681  19.938  0.00  0.00    +0.000 OA
ENDBRANCH  10  17
ENDBRANCH   1  15
BRANCH   4  18
ATOM     18  N   UNL     1       0.289  10.855  18.040  0.00  0.00    +0.000 N 
ATOM     19  H   UNL     1       0.620  11.577  18.673  0.00  0.00    +0.000 HD
BRANCH  18  20
ATOM     20  C   UNL     1      -1.131  10.980  17.959  0.00  0.00    +0.000 A 
ATOM     21  C   UNL     1      -1.874  10.034  17.230  0.00  0.00    +0.000 A 
ATOM     22  C   UNL     1      -3.267  10.061  17.208  0.00  0.00    +0.000 A 
ATOM     23  C   UNL     1      -3.963  11.020  17.944  0.00  0.00    +0.000 A 
ATOM     24  C   UNL     1      -3.233  11.965  18.682  0.00  0.00    +0.000 A 
ATOM     25  C   UNL     1      -1.824  11.936  18.723  0.00  0.00    +0.000 A 
ATOM     26  C   UNL     1      -1.105  12.907  19.624  0.00  0.00    +0.000 C 
BRANCH  23  27
ATOM     27  C   UNL     1      -5.473  10.972  18.019  0.00  0.00    +0.000 C 
BRANCH  27  28
ATOM     28  C   UNL     1      -6.239  12.279  18.073  0.00  0.00    +0.000 C 
ATOM     29  N   UNL     1      -6.080  13.186  17.075  0.00  0.00    +0.000 N 
ATOM     30  O   UNL     1      -6.987  12.541  19.015  0.00  0.00    +0.000 OA
ATOM     31  H   UNL     1      -5.481  13.034  16.275  0.00  0.00    +0.000 HD
ATOM     32  H   UNL     1      -6.606  14.049  17.135  0.00  0.00    +0.000 HD
ENDBRANCH  27  28
ENDBRANCH  23  27
ENDBRANCH  18  20
ENDBRANCH   4  18
TORSDOF 6
ENDMDL
MODEL 7
REMARK VINA RESULT:      -8.1      2.646      8.926
REMARK  Name = 
REMARK  8 active torsions:
REMARK  status: ('A' for Active; 'I' for Inactive)
REMARK    1  A    between atoms: C_1  and  O_2
REMARK    2  A    between atoms: O_2  and  C_3
REMARK    3  A    between atoms: C_8  and  C_9
REMARK    4  A    between atoms: C_12  and  N_13
REMARK    5  A    between atoms: N_13  and  C_14
REMARK    6  A    between atoms: C_17  and  C_18
REMARK    7  A    between atoms: C_18  and  C_19
REMARK    8  A    between atoms: C_23  and  C_24
REMARK                            x       y       z     vdW  Elec       q    Type
REMARK                         _______ _______ _______ _____ _____    ______ ____
ROOT
ATOM      1  C   UNL     1       2.714   7.373  18.192  0.00  0.00    +0.000 A 
ATOM      2  N   UNL     1       2.643   8.284  17.204  0.00  0.00    +0.000 NA
ATOM      3  N   UNL     1       1.993   9.517  17.377  0.00  0.00    +0.000 NA
ATOM      4  C   UNL     1       1.350   9.841  18.517  0.00  0.00    +0.000 A 
ATOM      5  C   UNL     1       1.368   8.904  19.530  0.00  0.00    +0.000 A 
ATOM      6  C   UNL     1       2.039   7.673  19.374  0.00  0.00    +0.000 A 
ATOM      7  C   UNL     1       1.976   6.908  20.671  0.00  0.00    +0.000 C 
ATOM      8  C   UNL     1       0.780   7.563  21.366  0.00  0.00    +0.000 C 
ATOM      9  C   UNL     1       0.760   9.016  20.899  0.00  0.00    +0.000 C 
ENDROOT
BRANCH   1  15
ATOM     10  C   UNL     1       2.982   4.875  17.693  0.00  0.00    +0.000 A 
ATOM     11  C   UNL     1       3.796   3.808  17.278  0.00  0.00    +0.000 A 
ATOM     12  C   UNL     1       5.170   3.970  17.136  0.00  0.00    +0.000 A 
ATOM     13  C   UNL     1       5.746   5.188  17.450  0.00  0.00    +0.000 A 
ATOM     14  C   UNL     1       4.941   6.254  17.860  0.00  0.00    +0.000 A 
ATOM     15  C   UNL     1       3.534   6.163  17.917  0.00  0.00    +0.000 A 
BRANCH  10  17
ATOM     16  C   UNL     1       1.251   3.526  18.558  0.00  0.00    +0.000 C 
ATOM     17  O   UNL     1       1.624   4.690  17.818  0.00  0.00    +0.000 OA
ENDBRANCH  10  17
ENDBRANCH   1  15
BRANCH   4  18
ATOM     18  N   UNL     1       0.777  11.127  18.684  0.00  0.00    +0.000 N 
ATOM     19  H   UNL     1       1.077  11.511  19.575  0.00  0.00    +0.000 HD
BRANCH  18  20
ATOM     20  C   UNL     1      -0.632  11.340  18.583  0.00  0.00    +0.000 A 
ATOM     21  C   UNL     1      -1.398  10.544  17.714  0.00  0.00    +0.000 A 
ATOM     22  C   UNL     1      -2.787  10.652  17.659  0.00  0.00    +0.000 A 
ATOM     23  C   UNL     1      -3.456  11.541  18.500  0.00  0.00    +0.000 A 
ATOM     24  C   UNL     1      -2.703  12.336  19.377  0.00  0.00    +0.000 A 
ATOM     25  C   UNL     1      -1.299  12.223  19.451  0.00  0.00    +0.000 A 
ATOM     26  C   UNL     1      -0.562  13.023  20.494  0.00  0.00    +0.000 C 
BRANCH  23  27
ATOM     27  C   UNL     1      -4.969  11.567  18.528  0.00  0.00    +0.000 C 
BRANCH  27  28
ATOM     28  C   UNL     1      -5.659  12.519  19.485  0.00  0.00    +0.000 C 
ATOM     29  N   UNL     1      -5.918  13.792  19.088  0.00  0.00    +0.000 N 
ATOM     30  O   UNL     1      -5.972  12.164  20.621  0.00  0.00    +0.000 OA
ATOM     31  H   UNL     1      -5.686  14.147  18.171  0.00  0.00    +0.000 HD
ATOM     32  H   UNL     1      -6.382  14.404  19.746  0.00  0.00    +0.000 HD
ENDBRANCH  27  28
ENDBRANCH  23  27
ENDBRANCH  18  20
ENDBRANCH   4  18
TORSDOF 6
ENDMDL
MODEL 8
REMARK VINA RESULT:      -8.1      2.456      8.679
REMARK  Name = 
REMARK  8 active torsions:
REMARK  status: ('A' for Active; 'I' for Inactive)
REMARK    1  A    between atoms: C_1  and  O_2
REMARK    2  A    between atoms: O_2  and  C_3
REMARK    3  A    between atoms: C_8  and  C_9
REMARK    4  A    between atoms: C_12  and  N_13
REMARK    5  A    between atoms: N_13  and  C_14
REMARK    6  A    between atoms: C_17  and  C_18
REMARK    7  A    between atoms: C_18  and  C_19
REMARK    8  A    between atoms: C_23  and  C_24
REMARK                            x       y       z     vdW  Elec       q    Type
REMARK                         _______ _______ _______ _____ _____    ______ ____
ROOT
ATOM      1  C   UNL     1       3.997   6.493  17.834  0.00  0.00    +0.000 A 
ATOM      2  N   UNL     1       3.733   7.779  17.539  0.00  0.00    +0.000 NA
ATOM      3  N   UNL     1       2.815   8.537  18.285  0.00  0.00    +0.000 NA
ATOM      4  C   UNL     1       2.100   8.012  19.300  0.00  0.00    +0.000 A 
ATOM      5  C   UNL     1       2.318   6.682  19.592  0.00  0.00    +0.000 A 
ATOM      6  C   UNL     1       3.255   5.918  18.865  0.00  0.00    +0.000 A 
ATOM      7  C   UNL     1       3.351   4.543  19.473  0.00  0.00    +0.000 C 
ATOM      8  C   UNL     1       2.028   4.441  20.235  0.00  0.00    +0.000 C 
ATOM      9  C   UNL     1       1.682   5.861  20.678  0.00  0.00    +0.000 C 
ENDROOT
BRANCH   1  15
ATOM     10  C   UNL     1       6.308   5.414  17.601  0.00  0.00    +0.000 A 
ATOM     11  C   UNL     1       7.218   4.662  16.839  0.00  0.00    +0.000 A 
ATOM     12  C   UNL     1       6.963   4.372  15.504  0.00  0.00    +0.000 A 
ATOM     13  C   UNL     1       5.817   4.869  14.907  0.00  0.00    +0.000 A 
ATOM     14  C   UNL     1       4.908   5.615  15.661  0.00  0.00    +0.000 A 
ATOM     15  C   UNL     1       5.076   5.843  17.043  0.00  0.00    +0.000 A 
BRANCH  10  17
ATOM     16  C   UNL     1       7.973   5.728  19.243  0.00  0.00    +0.000 C 
ATOM     17  O   UNL     1       6.581   5.680  18.924  0.00  0.00    +0.000 OA
ENDBRANCH  10  17
ENDBRANCH   1  15
BRANCH   4  18
ATOM     18  N   UNL     1       1.245   8.830  20.082  0.00  0.00    +0.000 N 
ATOM     19  H   UNL     1       0.776   8.253  20.773  0.00  0.00    +0.000 HD
BRANCH  18  20
ATOM     20  C   UNL     1       0.254   9.668  19.485  0.00  0.00    +0.000 A 
ATOM     21  C   UNL     1      -0.197   9.395  18.181  0.00  0.00    +0.000 A 
ATOM     22  C   UNL     1      -1.233  10.126  17.601  0.00  0.00    +0.000 A 
ATOM     23  C   UNL     1      -1.871  11.135  18.322  0.00  0.00    +0.000 A 
ATOM     24  C   UNL     1      -1.435  11.411  19.627  0.00  0.00    +0.000 A 
ATOM     25  C   UNL     1      -0.399  10.667  20.229  0.00  0.00    +0.000 A 
ATOM     26  C   UNL     1      -0.056  10.938  21.670  0.00  0.00    +0.000 C 
BRANCH  23  27
ATOM     27  C   UNL     1      -3.074  11.841  17.737  0.00  0.00    +0.000 C 
BRANCH  27  28
ATOM     28  C   UNL     1      -4.270  11.009  17.316  0.00  0.00    +0.000 C 
ATOM     29  N   UNL     1      -4.477  10.758  15.998  0.00  0.00    +0.000 N 
ATOM     30  O   UNL     1      -5.067  10.574  18.147  0.00  0.00    +0.000 OA
ATOM     31  H   UNL     1      -3.862  11.087  15.266  0.00  0.00    +0.000 HD
ATOM     32  H   UNL     1      -5.281  10.198  15.746  0.00  0.00    +0.000 HD
ENDBRANCH  27  28
ENDBRANCH  23  27
ENDBRANCH  18  20
ENDBRANCH   4  18
TORSDOF 6
ENDMDL
MODEL 9
REMARK VINA RESULT:      -8.0      3.119      4.622
REMARK  Name = 
REMARK  8 active torsions:
REMARK  status: ('A' for Active; 'I' for Inactive)
REMARK    1  A    between atoms: C_1  and  O_2
REMARK    2  A    between atoms: O_2  and  C_3
REMARK    3  A    between atoms: C_8  and  C_9
REMARK    4  A    between atoms: C_12  and  N_13
REMARK    5  A    between atoms: N_13  and  C_14
REMARK    6  A    between atoms: C_17  and  C_18
REMARK    7  A    between atoms: C_18  and  C_19
REMARK    8  A    between atoms: C_23  and  C_24
REMARK                            x       y       z     vdW  Elec       q    Type
REMARK                         _______ _______ _______ _____ _____    ______ ____
ROOT
ATOM      1  C   UNL     1      -0.725  11.302  21.378  0.00  0.00    +0.000 A 
ATOM      2  N   UNL     1       0.339  10.730  21.972  0.00  0.00    +0.000 NA
ATOM      3  N   UNL     1       1.220   9.893  21.267  0.00  0.00    +0.000 NA
ATOM      4  C   UNL     1       1.026   9.562  19.975  0.00  0.00    +0.000 A 
ATOM      5  C   UNL     1      -0.085  10.097  19.355  0.00  0.00    +0.000 A 
ATOM      6  C   UNL     1      -0.963  10.958  20.048  0.00  0.00    +0.000 A 
ATOM      7  C   UNL     1      -2.014  11.464  19.094  0.00  0.00    +0.000 C 
ATOM      8  C   UNL     1      -1.965  10.412  17.983  0.00  0.00    +0.000 C 
ATOM      9  C   UNL     1      -0.522   9.916  17.930  0.00  0.00    +0.000 C 
ENDROOT
BRANCH   1  15
ATOM     10  C   UNL     1      -1.379  13.669  22.102  0.00  0.00    +0.000 A 
ATOM     11  C   UNL     1      -2.259  14.521  22.791  0.00  0.00    +0.000 A 
ATOM     12  C   UNL     1      -3.234  14.008  23.638  0.00  0.00    +0.000 A 
ATOM     13  C   UNL     1      -3.310  12.640  23.836  0.00  0.00    +0.000 A 
ATOM     14  C   UNL     1      -2.439  11.788  23.151  0.00  0.00    +0.000 A 
ATOM     15  C   UNL     1      -1.506  12.260  22.204  0.00  0.00    +0.000 A 
BRANCH  10  17
ATOM     16  C   UNL     1       0.812  14.522  21.900  0.00  0.00    +0.000 C 
ATOM     17  O   UNL     1      -0.428  14.204  21.262  0.00  0.00    +0.000 OA
ENDBRANCH  10  17
ENDBRANCH   1  15
BRANCH   4  18
ATOM     18  N   UNL     1       1.981   8.782  19.275  0.00  0.00    +0.000 N 
ATOM     19  H   UNL     1       1.813   8.868  18.278  0.00  0.00    +0.000 HD
BRANCH  18  20
ATOM     20  C   UNL     1       2.169   7.394  19.556  0.00  0.00    +0.000 A 
ATOM     21  C   UNL     1       1.430   6.785  20.586  0.00  0.00    +0.000 A 
ATOM     22  C   UNL     1       1.510   5.414  20.826  0.00  0.00    +0.000 A 
ATOM     23  C   UNL     1       2.308   4.604  20.019  0.00  0.00    +0.000 A 
ATOM     24  C   UNL     1       3.044   5.199  18.984  0.00  0.00    +0.000 A 
ATOM     25  C   UNL     1       2.959   6.583  18.723  0.00  0.00    +0.000 A 
ATOM     26  C   UNL     1       3.685   7.140  17.526  0.00  0.00    +0.000 C 
BRANCH  23  27
ATOM     27  C   UNL     1       2.296   3.102  20.203  0.00  0.00    +0.000 C 
BRANCH  27  28
ATOM     28  C   UNL     1       1.835   2.235  19.048  0.00  0.00    +0.000 C 
ATOM     29  N   UNL     1       2.740   1.469  18.386  0.00  0.00    +0.000 N 
ATOM     30  O   UNL     1       0.658   2.228  18.687  0.00  0.00    +0.000 OA
ATOM     31  H   UNL     1       3.720   1.429  18.631  0.00  0.00    +0.000 HD
ATOM     32  H   UNL     1       2.403   0.897  17.621  0.00  0.00    +0.000 HD
ENDBRANCH  27  28
ENDBRANCH  23  27
ENDBRANCH  18  20
ENDBRANCH   4  18
TORSDOF 6
ENDMDL
