MODEL 1
REMARK VINA RESULT:      -6.9      0.000      0.000
REMARK  Name = 
REMARK  14 active torsions:
REMARK  status: ('A' for Active; 'I' for Inactive)
REMARK    1  A    between atoms: C_1  and  C_2
REMARK    2  A    between atoms: C_2  and  O_3
REMARK    3  A    between atoms: O_3  and  C_4
REMARK    4  A    between atoms: C_7  and  N_8
REMARK    5  A    between atoms: N_8  and  S_9
REMARK    6  A    between atoms: S_9  and  C_12
REMARK    7  A    between atoms: C_15  and  O_16
REMARK    8  A    between atoms: O_16  and  C_17
REMARK    9  A    between atoms: C_17  and  C_18
REMARK   10  A    between atoms: N_20  and  C_21
REMARK   11  A    between atoms: C_21  and  C_22
REMARK   12  A    between atoms: C_22  and  C_23
REMARK   13  A    between atoms: C_23  and  O_24
REMARK   14  A    between atoms: O_24  and  C_25
REMARK                            x       y       z     vdW  Elec       q    Type
REMARK                         _______ _______ _______ _____ _____    ______ ____
ROOT
ATOM      1  C   UNL     1       1.651   7.662  20.411  0.00  0.00    +0.000 A 
ATOM      2  C   UNL     1       1.656   6.362  20.914  0.00  0.00    +0.000 A 
ATOM      3  C   UNL     1       2.253   5.341  20.169  0.00  0.00    +0.000 A 
ATOM      4  C   UNL     1       2.817   5.604  18.916  0.00  0.00    +0.000 A 
ATOM      5  C   UNL     1       2.800   6.908  18.416  0.00  0.00    +0.000 A 
ATOM      6  C   UNL     1       2.214   7.938  19.160  0.00  0.00    +0.000 A 
ENDROOT
BRANCH   1   7
ATOM      7  S   UNL     1       0.841   8.972  21.308  0.00  0.00    +0.000 S 
ATOM      8  O   UNL     1       1.738   9.391  22.366  0.00  0.00    +0.000 OA
ATOM      9  O   UNL     1      -0.516   8.565  21.602  0.00  0.00    +0.000 OA
BRANCH   7  10
ATOM     10  N   UNL     1       0.818  10.230  20.201  0.00  0.00    +0.000 N 
ATOM     11  H   UNL     1       1.517  10.952  20.367  0.00  0.00    +0.000 HD
BRANCH  10  15
ATOM     12  C   UNL     1      -2.606  11.306  17.990  0.00  0.00    +0.000 A 
ATOM     13  C   UNL     1      -2.346  11.930  19.211  0.00  0.00    +0.000 A 
ATOM     14  C   UNL     1      -1.214  11.585  19.961  0.00  0.00    +0.000 A 
ATOM     15  C   UNL     1      -0.372  10.569  19.517  0.00  0.00    +0.000 A 
ATOM     16  C   UNL     1      -0.628   9.936  18.310  0.00  0.00    +0.000 A 
ATOM     17  C   UNL     1      -1.727  10.325  17.542  0.00  0.00    +0.000 A 
BRANCH  12  18
ATOM     18  O   UNL     1      -3.719  11.741  17.326  0.00  0.00    +0.000 OA
BRANCH  18  20
ATOM     19  C   UNL     1      -6.017  12.387  17.257  0.00  0.00    +0.000 C 
ATOM     20  C   UNL     1      -4.990  11.497  17.932  0.00  0.00    +0.000 C 
ENDBRANCH  18  20
ENDBRANCH  12  18
ENDBRANCH  10  15
ENDBRANCH   7  10
ENDBRANCH   1   7
BRANCH   4  21
ATOM     21  O   UNL     1       3.389   4.528  18.292  0.00  0.00    +0.000 OA
BRANCH  21  22
ATOM     22  C   UNL     1       4.546   3.966  18.912  0.00  0.00    +0.000 C 
BRANCH  22  23
ATOM     23  C   UNL     1       5.816   4.807  18.778  0.00  0.00    +0.000 C 
ATOM     24  O   UNL     1       6.503   5.103  19.752  0.00  0.00    +0.000 OA
ATOM     25  N   UNL     1       6.098   5.219  17.492  0.00  0.00    +0.000 N 
ATOM     26  H   UNL     1       5.536   4.841  16.745  0.00  0.00    +0.000 HD
BRANCH  25  27
ATOM     27  C   UNL     1       7.282   5.989  17.167  0.00  0.00    +0.000 C 
BRANCH  27  28
ATOM     28  C   UNL     1       7.118   7.490  17.417  0.00  0.00    +0.000 C 
BRANCH  28  29
ATOM     29  C   UNL     1       8.217   8.040  18.306  0.00  0.00    +0.000 C 
BRANCH  29  30
ATOM     30  O   UNL     1       8.457   9.391  17.912  0.00  0.00    +0.000 OA
ATOM     31  C   UNL     1       9.098  10.109  18.943  0.00  0.00    +0.000 C 
ENDBRANCH  29  30
ENDBRANCH  28  29
ENDBRANCH  27  28
ENDBRANCH  25  27
ENDBRANCH  22  23
ENDBRANCH  21  22
ENDBRANCH   4  21
TORSDOF 12
ENDMDL
MODEL 2
REMARK VINA RESULT:      -6.9      2.240      9.146
REMARK  Name = 
REMARK  14 active torsions:
REMARK  status: ('A' for Active; 'I' for Inactive)
REMARK    1  A    between atoms: C_1  and  C_2
REMARK    2  A    between atoms: C_2  and  O_3
REMARK    3  A    between atoms: O_3  and  C_4
REMARK    4  A    between atoms: C_7  and  N_8
REMARK    5  A    between atoms: N_8  and  S_9
REMARK    6  A    between atoms: S_9  and  C_12
REMARK    7  A    between atoms: C_15  and  O_16
REMARK    8  A    between atoms: O_16  and  C_17
REMARK    9  A    between atoms: C_17  and  C_18
REMARK   10  A    between atoms: N_20  and  C_21
REMARK   11  A    between atoms: C_21  and  C_22
REMARK   12  A    between atoms: C_22  and  C_23
REMARK   13  A    between atoms: C_23  and  O_24
REMARK   14  A    between atoms: O_24  and  C_25
REMARK                            x       y       z     vdW  Elec       q    Type
REMARK                         _______ _______ _______ _____ _____    ______ ____
ROOT
ATOM      1  C   UNL     1       2.566   5.147  18.751  0.00  0.00    +0.000 A 
ATOM      2  C   UNL     1       2.243   5.434  20.077  0.00  0.00    +0.000 A 
ATOM      3  C   UNL     1       1.920   6.746  20.435  0.00  0.00    +0.000 A 
ATOM      4  C   UNL     1       1.946   7.775  19.488  0.00  0.00    +0.000 A 
ATOM      5  C   UNL     1       2.280   7.480  18.164  0.00  0.00    +0.000 A 
ATOM      6  C   UNL     1       2.594   6.168  17.794  0.00  0.00    +0.000 A 
ENDROOT
BRANCH   1   7
ATOM      7  S   UNL     1       3.044   3.496  18.277  0.00  0.00    +0.000 S 
ATOM      8  O   UNL     1       1.951   2.933  17.511  0.00  0.00    +0.000 OA
ATOM      9  O   UNL     1       3.568   2.812  19.439  0.00  0.00    +0.000 OA
BRANCH   7  10
ATOM     10  N   UNL     1       4.283   3.763  17.180  0.00  0.00    +0.000 N 
ATOM     11  H   UNL     1       4.457   2.989  16.542  0.00  0.00    +0.000 HD
BRANCH  10  15
ATOM     12  C   UNL     1       7.304   6.505  18.244  0.00  0.00    +0.000 A 
ATOM     13  C   UNL     1       6.773   6.525  16.954  0.00  0.00    +0.000 A 
ATOM     14  C   UNL     1       5.770   5.622  16.581  0.00  0.00    +0.000 A 
ATOM     15  C   UNL     1       5.338   4.654  17.484  0.00  0.00    +0.000 A 
ATOM     16  C   UNL     1       5.868   4.618  18.766  0.00  0.00    +0.000 A 
ATOM     17  C   UNL     1       6.827   5.558  19.146  0.00  0.00    +0.000 A 
BRANCH  12  18
ATOM     18  O   UNL     1       8.254   7.450  18.512  0.00  0.00    +0.000 OA
BRANCH  18  20
ATOM     19  C   UNL     1       8.909   9.742  18.651  0.00  0.00    +0.000 C 
ATOM     20  C   UNL     1       8.138   8.711  17.849  0.00  0.00    +0.000 C 
ENDBRANCH  18  20
ENDBRANCH  12  18
ENDBRANCH  10  15
ENDBRANCH   7  10
ENDBRANCH   1   7
BRANCH   4  21
ATOM     21  O   UNL     1       1.592   9.011  19.954  0.00  0.00    +0.000 OA
BRANCH  21  22
ATOM     22  C   UNL     1       1.171   9.968  18.983  0.00  0.00    +0.000 C 
BRANCH  22  23
ATOM     23  C   UNL     1      -0.340  10.200  18.926  0.00  0.00    +0.000 C 
ATOM     24  O   UNL     1      -1.082   9.854  19.841  0.00  0.00    +0.000 OA
ATOM     25  N   UNL     1      -0.786  10.797  17.766  0.00  0.00    +0.000 N 
ATOM     26  H   UNL     1      -0.093  11.140  17.119  0.00  0.00    +0.000 HD
BRANCH  25  27
ATOM     27  C   UNL     1      -2.179  11.131  17.553  0.00  0.00    +0.000 C 
BRANCH  27  28
ATOM     28  C   UNL     1      -2.877  10.215  16.545  0.00  0.00    +0.000 C 
BRANCH  28  29
ATOM     29  C   UNL     1      -3.250  10.950  15.272  0.00  0.00    +0.000 C 
BRANCH  29  30
ATOM     30  O   UNL     1      -2.968  10.084  14.173  0.00  0.00    +0.000 OA
ATOM     31  C   UNL     1      -4.134   9.833  13.419  0.00  0.00    +0.000 C 
ENDBRANCH  29  30
ENDBRANCH  28  29
ENDBRANCH  27  28
ENDBRANCH  25  27
ENDBRANCH  22  23
ENDBRANCH  21  22
ENDBRANCH   4  21
TORSDOF 12
ENDMDL
MODEL 3
REMARK VINA RESULT:      -6.8      3.803      5.487
REMARK  Name = 
REMARK  14 active torsions:
REMARK  status: ('A' for Active; 'I' for Inactive)
REMARK    1  A    between atoms: C_1  and  C_2
REMARK    2  A    between atoms: C_2  and  O_3
REMARK    3  A    between atoms: O_3  and  C_4
REMARK    4  A    between atoms: C_7  and  N_8
REMARK    5  A    between atoms: N_8  and  S_9
REMARK    6  A    between atoms: S_9  and  C_12
REMARK    7  A    between atoms: C_15  and  O_16
REMARK    8  A    between atoms: O_16  and  C_17
REMARK    9  A    between atoms: C_17  and  C_18
REMARK   10  A    between atoms: N_20  and  C_21
REMARK   11  A    between atoms: C_21  and  C_22
REMARK   12  A    between atoms: C_22  and  C_23
REMARK   13  A    between atoms: C_23  and  O_24
REMARK   14  A    between atoms: O_24  and  C_25
REMARK                            x       y       z     vdW  Elec       q    Type
REMARK                         _______ _______ _______ _____ _____    ______ ____
ROOT
ATOM      1  C   UNL     1       3.440   4.742  19.315  0.00  0.00    +0.000 A 
ATOM      2  C   UNL     1       4.705   5.236  19.636  0.00  0.00    +0.000 A 
ATOM      3  C   UNL     1       5.774   4.997  18.768  0.00  0.00    +0.000 A 
ATOM      4  C   UNL     1       5.595   4.246  17.601  0.00  0.00    +0.000 A 
ATOM      5  C   UNL     1       4.328   3.748  17.293  0.00  0.00    +0.000 A 
ATOM      6  C   UNL     1       3.249   3.992  18.150  0.00  0.00    +0.000 A 
ENDROOT
BRANCH   1   7
ATOM      7  S   UNL     1       2.072   4.976  20.434  0.00  0.00    +0.000 S 
ATOM      8  O   UNL     1       2.263   4.068  21.547  0.00  0.00    +0.000 OA
ATOM      9  O   UNL     1       0.842   4.971  19.673  0.00  0.00    +0.000 OA
BRANCH   7  10
ATOM     10  N   UNL     1       2.344   6.512  21.046  0.00  0.00    +0.000 N 
ATOM     11  H   UNL     1       2.498   6.546  22.052  0.00  0.00    +0.000 HD
BRANCH  10  15
ATOM     12  C   UNL     1       0.595   9.828  19.116  0.00  0.00    +0.000 A 
ATOM     13  C   UNL     1       1.531   9.046  18.437  0.00  0.00    +0.000 A 
ATOM     14  C   UNL     1       2.124   7.941  19.062  0.00  0.00    +0.000 A 
ATOM     15  C   UNL     1       1.825   7.653  20.391  0.00  0.00    +0.000 A 
ATOM     16  C   UNL     1       0.904   8.432  21.077  0.00  0.00    +0.000 A 
ATOM     17  C   UNL     1       0.276   9.496  20.430  0.00  0.00    +0.000 A 
BRANCH  12  18
ATOM     18  O   UNL     1       0.054  10.861  18.403  0.00  0.00    +0.000 OA
BRANCH  18  20
ATOM     19  C   UNL     1      -1.905  10.037  17.315  0.00  0.00    +0.000 C 
ATOM     20  C   UNL     1      -1.370  10.975  18.380  0.00  0.00    +0.000 C 
ENDBRANCH  18  20
ENDBRANCH  12  18
ENDBRANCH  10  15
ENDBRANCH   7  10
ENDBRANCH   1   7
BRANCH   4  21
ATOM     21  O   UNL     1       6.711   4.097  16.823  0.00  0.00    +0.000 OA
BRANCH  21  22
ATOM     22  C   UNL     1       7.033   5.177  15.947  0.00  0.00    +0.000 C 
BRANCH  22  23
ATOM     23  C   UNL     1       6.980   4.832  14.459  0.00  0.00    +0.000 C 
ATOM     24  O   UNL     1       7.523   5.535  13.611  0.00  0.00    +0.000 OA
ATOM     25  N   UNL     1       6.258   3.695  14.159  0.00  0.00    +0.000 N 
ATOM     26  H   UNL     1       5.937   3.127  14.927  0.00  0.00    +0.000 HD
BRANCH  25  27
ATOM     27  C   UNL     1       6.133   3.192  12.806  0.00  0.00    +0.000 C 
BRANCH  27  28
ATOM     28  C   UNL     1       4.947   3.786  12.042  0.00  0.00    +0.000 C 
BRANCH  28  29
ATOM     29  C   UNL     1       4.359   2.801  11.051  0.00  0.00    +0.000 C 
BRANCH  29  30
ATOM     30  O   UNL     1       3.046   3.252  10.720  0.00  0.00    +0.000 OA
ATOM     31  C   UNL     1       3.059   4.011   9.531  0.00  0.00    +0.000 C 
ENDBRANCH  29  30
ENDBRANCH  28  29
ENDBRANCH  27  28
ENDBRANCH  25  27
ENDBRANCH  22  23
ENDBRANCH  21  22
ENDBRANCH   4  21
TORSDOF 12
ENDMDL
MODEL 4
REMARK VINA RESULT:      -6.7      2.410      4.076
REMARK  Name = 
REMARK  14 active torsions:
REMARK  status: ('A' for Active; 'I' for Inactive)
REMARK    1  A    between atoms: C_1  and  C_2
REMARK    2  A    between atoms: C_2  and  O_3
REMARK    3  A    between atoms: O_3  and  C_4
REMARK    4  A    between atoms: C_7  and  N_8
REMARK    5  A    between atoms: N_8  and  S_9
REMARK    6  A    between atoms: S_9  and  C_12
REMARK    7  A    between atoms: C_15  and  O_16
REMARK    8  A    between atoms: O_16  and  C_17
REMARK    9  A    between atoms: C_17  and  C_18
REMARK   10  A    between atoms: N_20  and  C_21
REMARK   11  A    between atoms: C_21  and  C_22
REMARK   12  A    between atoms: C_22  and  C_23
REMARK   13  A    between atoms: C_23  and  O_24
REMARK   14  A    between atoms: O_24  and  C_25
REMARK                            x       y       z     vdW  Elec       q    Type
REMARK                         _______ _______ _______ _____ _____    ______ ____
ROOT
ATOM      1  C   UNL     1       1.224   9.226  19.754  0.00  0.00    +0.000 A 
ATOM      2  C   UNL     1       1.611   9.428  18.429  0.00  0.00    +0.000 A 
ATOM      3  C   UNL     1       2.331   8.432  17.766  0.00  0.00    +0.000 A 
ATOM      4  C   UNL     1       2.693   7.251  18.423  0.00  0.00    +0.000 A 
ATOM      5  C   UNL     1       2.309   7.060  19.752  0.00  0.00    +0.000 A 
ATOM      6  C   UNL     1       1.578   8.048  20.421  0.00  0.00    +0.000 A 
ENDROOT
BRANCH   1   7
ATOM      7  S   UNL     1       0.361  10.506  20.646  0.00  0.00    +0.000 S 
ATOM      8  O   UNL     1       1.360  11.337  21.286  0.00  0.00    +0.000 OA
ATOM      9  O   UNL     1      -0.705   9.900  21.413  0.00  0.00    +0.000 OA
BRANCH   7  10
ATOM     10  N   UNL     1      -0.296  11.441  19.420  0.00  0.00    +0.000 N 
ATOM     11  H   UNL     1       0.257  12.260  19.170  0.00  0.00    +0.000 HD
BRANCH  10  15
ATOM     12  C   UNL     1      -4.416  11.562  18.536  0.00  0.00    +0.000 A 
ATOM     13  C   UNL     1      -3.907  12.349  19.569  0.00  0.00    +0.000 A 
ATOM     14  C   UNL     1      -2.541  12.321  19.879  0.00  0.00    +0.000 A 
ATOM     15  C   UNL     1      -1.691  11.458  19.192  0.00  0.00    +0.000 A 
ATOM     16  C   UNL     1      -2.191  10.664  18.170  0.00  0.00    +0.000 A 
ATOM     17  C   UNL     1      -3.542  10.739  17.831  0.00  0.00    +0.000 A 
BRANCH  12  18
ATOM     18  O   UNL     1      -5.756  11.689  18.297  0.00  0.00    +0.000 OA
BRANCH  18  20
ATOM     19  C   UNL     1      -6.615  13.389  16.856  0.00  0.00    +0.000 C 
ATOM     20  C   UNL     1      -6.305  13.008  18.292  0.00  0.00    +0.000 C 
ENDBRANCH  18  20
ENDBRANCH  12  18
ENDBRANCH  10  15
ENDBRANCH   7  10
ENDBRANCH   1   7
BRANCH   4  21
ATOM     21  O   UNL     1       3.379   6.342  17.663  0.00  0.00    +0.000 OA
BRANCH  21  22
ATOM     22  C   UNL     1       4.587   5.822  18.219  0.00  0.00    +0.000 C 
BRANCH  22  23
ATOM     23  C   UNL     1       4.529   4.342  18.600  0.00  0.00    +0.000 C 
ATOM     24  O   UNL     1       5.413   3.812  19.268  0.00  0.00    +0.000 OA
ATOM     25  N   UNL     1       3.431   3.666  18.113  0.00  0.00    +0.000 N 
ATOM     26  H   UNL     1       2.708   4.207  17.664  0.00  0.00    +0.000 HD
BRANCH  25  27
ATOM     27  C   UNL     1       3.189   2.268  18.406  0.00  0.00    +0.000 C 
BRANCH  27  28
ATOM     28  C   UNL     1       1.733   1.965  18.769  0.00  0.00    +0.000 C 
BRANCH  28  29
ATOM     29  C   UNL     1       1.071   3.131  19.476  0.00  0.00    +0.000 C 
BRANCH  29  30
ATOM     30  O   UNL     1       1.872   3.461  20.611  0.00  0.00    +0.000 OA
ATOM     31  C   UNL     1       1.506   2.682  21.729  0.00  0.00    +0.000 C 
ENDBRANCH  29  30
ENDBRANCH  28  29
ENDBRANCH  27  28
ENDBRANCH  25  27
ENDBRANCH  22  23
ENDBRANCH  21  22
ENDBRANCH   4  21
TORSDOF 12
ENDMDL
MODEL 5
REMARK VINA RESULT:      -6.7      2.270      3.936
REMARK  Name = 
REMARK  14 active torsions:
REMARK  status: ('A' for Active; 'I' for Inactive)
REMARK    1  A    between atoms: C_1  and  C_2
REMARK    2  A    between atoms: C_2  and  O_3
REMARK    3  A    between atoms: O_3  and  C_4
REMARK    4  A    between atoms: C_7  and  N_8
REMARK    5  A    between atoms: N_8  and  S_9
REMARK    6  A    between atoms: S_9  and  C_12
REMARK    7  A    between atoms: C_15  and  O_16
REMARK    8  A    between atoms: O_16  and  C_17
REMARK    9  A    between atoms: C_17  and  C_18
REMARK   10  A    between atoms: N_20  and  C_21
REMARK   11  A    between atoms: C_21  and  C_22
REMARK   12  A    between atoms: C_22  and  C_23
REMARK   13  A    between atoms: C_23  and  O_24
REMARK   14  A    between atoms: O_24  and  C_25
REMARK                            x       y       z     vdW  Elec       q    Type
REMARK                         _______ _______ _______ _____ _____    ______ ____
ROOT
ATOM      1  C   UNL     1       1.441   8.457  20.133  0.00  0.00    +0.000 A 
ATOM      2  C   UNL     1       1.760   8.880  18.842  0.00  0.00    +0.000 A 
ATOM      3  C   UNL     1       2.449   8.014  17.988  0.00  0.00    +0.000 A 
ATOM      4  C   UNL     1       2.847   6.745  18.422  0.00  0.00    +0.000 A 
ATOM      5  C   UNL     1       2.532   6.334  19.719  0.00  0.00    +0.000 A 
ATOM      6  C   UNL     1       1.832   7.189  20.577  0.00  0.00    +0.000 A 
ENDROOT
BRANCH   1   7
ATOM      7  S   UNL     1       0.620   9.562  21.265  0.00  0.00    +0.000 S 
ATOM      8  O   UNL     1       1.600   9.983  22.246  0.00  0.00    +0.000 OA
ATOM      9  O   UNL     1      -0.632   8.964  21.675  0.00  0.00    +0.000 OA
BRANCH   7  10
ATOM     10  N   UNL     1       0.311  10.910  20.319  0.00  0.00    +0.000 N 
ATOM     11  H   UNL     1       0.957  11.685  20.461  0.00  0.00    +0.000 HD
BRANCH  10  15
ATOM     12  C   UNL     1      -3.499  11.791  18.741  0.00  0.00    +0.000 A 
ATOM     13  C   UNL     1      -3.066  12.430  19.904  0.00  0.00    +0.000 A 
ATOM     14  C   UNL     1      -1.804  12.150  20.445  0.00  0.00    +0.000 A 
ATOM     15  C   UNL     1      -0.996  11.182  19.853  0.00  0.00    +0.000 A 
ATOM     16  C   UNL     1      -1.423  10.534  18.703  0.00  0.00    +0.000 A 
ATOM     17  C   UNL     1      -2.657  10.860  18.140  0.00  0.00    +0.000 A 
BRANCH  12  18
ATOM     18  O   UNL     1      -4.731  12.162  18.283  0.00  0.00    +0.000 OA
BRANCH  18  20
ATOM     19  C   UNL     1      -6.953  11.287  18.295  0.00  0.00    +0.000 C 
ATOM     20  C   UNL     1      -5.559  11.145  17.714  0.00  0.00    +0.000 C 
ENDBRANCH  18  20
ENDBRANCH  12  18
ENDBRANCH  10  15
ENDBRANCH   7  10
ENDBRANCH   1   7
BRANCH   4  21
ATOM     21  O   UNL     1       3.496   5.983  17.490  0.00  0.00    +0.000 OA
BRANCH  21  22
ATOM     22  C   UNL     1       4.753   5.427  17.876  0.00  0.00    +0.000 C 
BRANCH  22  23
ATOM     23  C   UNL     1       4.674   4.017  18.464  0.00  0.00    +0.000 C 
ATOM     24  O   UNL     1       5.451   3.635  19.335  0.00  0.00    +0.000 OA
ATOM     25  N   UNL     1       3.689   3.221  17.917  0.00  0.00    +0.000 N 
ATOM     26  H   UNL     1       3.036   3.654  17.283  0.00  0.00    +0.000 HD
BRANCH  25  27
ATOM     27  C   UNL     1       3.441   1.870  18.376  0.00  0.00    +0.000 C 
BRANCH  27  28
ATOM     28  C   UNL     1       2.086   1.702  19.068  0.00  0.00    +0.000 C 
BRANCH  28  29
ATOM     29  C   UNL     1       1.087   2.752  18.621  0.00  0.00    +0.000 C 
BRANCH  29  30
ATOM     30  O   UNL     1       0.865   3.634  19.722  0.00  0.00    +0.000 OA
ATOM     31  C   UNL     1       1.253   3.029  20.937  0.00  0.00    +0.000 C 
ENDBRANCH  29  30
ENDBRANCH  28  29
ENDBRANCH  27  28
ENDBRANCH  25  27
ENDBRANCH  22  23
ENDBRANCH  21  22
ENDBRANCH   4  21
TORSDOF 12
ENDMDL
MODEL 6
REMARK VINA RESULT:      -6.7      2.461      4.147
REMARK  Name = 
REMARK  14 active torsions:
REMARK  status: ('A' for Active; 'I' for Inactive)
REMARK    1  A    between atoms: C_1  and  C_2
REMARK    2  A    between atoms: C_2  and  O_3
REMARK    3  A    between atoms: O_3  and  C_4
REMARK    4  A    between atoms: C_7  and  N_8
REMARK    5  A    between atoms: N_8  and  S_9
REMARK    6  A    between atoms: S_9  and  C_12
REMARK    7  A    between atoms: C_15  and  O_16
REMARK    8  A    between atoms: O_16  and  C_17
REMARK    9  A    between atoms: C_17  and  C_18
REMARK   10  A    between atoms: N_20  and  C_21
REMARK   11  A    between atoms: C_21  and  C_22
REMARK   12  A    between atoms: C_22  and  C_23
REMARK   13  A    between atoms: C_23  and  O_24
REMARK   14  A    between atoms: O_24  and  C_25
REMARK                            x       y       z     vdW  Elec       q    Type
REMARK                         _______ _______ _______ _____ _____    ______ ____
ROOT
ATOM      1  C   UNL     1       1.635   8.782  18.965  0.00  0.00    +0.000 A 
ATOM      2  C   UNL     1       2.284   8.906  17.737  0.00  0.00    +0.000 A 
ATOM      3  C   UNL     1       3.208   7.932  17.349  0.00  0.00    +0.000 A 
ATOM      4  C   UNL     1       3.508   6.854  18.189  0.00  0.00    +0.000 A 
ATOM      5  C   UNL     1       2.860   6.742  19.420  0.00  0.00    +0.000 A 
ATOM      6  C   UNL     1       1.926   7.707  19.812  0.00  0.00    +0.000 A 
ENDROOT
BRANCH   1   7
ATOM      7  S   UNL     1       0.500  10.042  19.515  0.00  0.00    +0.000 S 
ATOM      8  O   UNL     1       1.291  11.154  20.001  0.00  0.00    +0.000 OA
ATOM      9  O   UNL     1      -0.511   9.428  20.347  0.00  0.00    +0.000 OA
BRANCH   7  10
ATOM     10  N   UNL     1      -0.199  10.569  18.085  0.00  0.00    +0.000 N 
ATOM     11  H   UNL     1       0.407  11.146  17.505  0.00  0.00    +0.000 HD
BRANCH  10  15
ATOM     12  C   UNL     1      -4.349  11.104  17.569  0.00  0.00    +0.000 A 
ATOM     13  C   UNL     1      -3.686  11.780  18.594  0.00  0.00    +0.000 A 
ATOM     14  C   UNL     1      -2.308  11.614  18.782  0.00  0.00    +0.000 A 
ATOM     15  C   UNL     1      -1.601  10.722  17.980  0.00  0.00    +0.000 A 
ATOM     16  C   UNL     1      -2.254  10.037  16.966  0.00  0.00    +0.000 A 
ATOM     17  C   UNL     1      -3.616  10.250  16.749  0.00  0.00    +0.000 A 
BRANCH  12  18
ATOM     18  O   UNL     1      -5.686  11.362  17.453  0.00  0.00    +0.000 OA
BRANCH  18  20
ATOM     19  C   UNL     1      -7.418  12.060  18.942  0.00  0.00    +0.000 C 
ATOM     20  C   UNL     1      -6.543  10.902  18.501  0.00  0.00    +0.000 C 
ENDBRANCH  18  20
ENDBRANCH  12  18
ENDBRANCH  10  15
ENDBRANCH   7  10
ENDBRANCH   1   7
BRANCH   4  21
ATOM     21  O   UNL     1       4.413   5.956  17.690  0.00  0.00    +0.000 OA
BRANCH  21  22
ATOM     22  C   UNL     1       5.105   5.146  18.640  0.00  0.00    +0.000 C 
BRANCH  22  23
ATOM     23  C   UNL     1       4.530   3.742  18.825  0.00  0.00    +0.000 C 
ATOM     24  O   UNL     1       4.956   2.975  19.684  0.00  0.00    +0.000 OA
ATOM     25  N   UNL     1       3.527   3.412  17.937  0.00  0.00    +0.000 N 
ATOM     26  H   UNL     1       3.173   4.140  17.337  0.00  0.00    +0.000 HD
BRANCH  25  27
ATOM     27  C   UNL     1       2.836   2.139  17.987  0.00  0.00    +0.000 C 
BRANCH  27  28
ATOM     28  C   UNL     1       1.443   2.227  18.615  0.00  0.00    +0.000 C 
BRANCH  28  29
ATOM     29  C   UNL     1       1.482   1.998  20.114  0.00  0.00    +0.000 C 
BRANCH  29  30
ATOM     30  O   UNL     1       1.016   3.190  20.746  0.00  0.00    +0.000 OA
ATOM     31  C   UNL     1       2.045   3.796  21.497  0.00  0.00    +0.000 C 
ENDBRANCH  29  30
ENDBRANCH  28  29
ENDBRANCH  27  28
ENDBRANCH  25  27
ENDBRANCH  22  23
ENDBRANCH  21  22
ENDBRANCH   4  21
TORSDOF 12
ENDMDL
MODEL 7
REMARK VINA RESULT:      -6.7      2.316      3.318
REMARK  Name = 
REMARK  14 active torsions:
REMARK  status: ('A' for Active; 'I' for Inactive)
REMARK    1  A    between atoms: C_1  and  C_2
REMARK    2  A    between atoms: C_2  and  O_3
REMARK    3  A    between atoms: O_3  and  C_4
REMARK    4  A    between atoms: C_7  and  N_8
REMARK    5  A    between atoms: N_8  and  S_9
REMARK    6  A    between atoms: S_9  and  C_12
REMARK    7  A    between atoms: C_15  and  O_16
REMARK    8  A    between atoms: O_16  and  C_17
REMARK    9  A    between atoms: C_17  and  C_18
REMARK   10  A    between atoms: N_20  and  C_21
REMARK   11  A    between atoms: C_21  and  C_22
REMARK   12  A    between atoms: C_22  and  C_23
REMARK   13  A    between atoms: C_23  and  O_24
REMARK   14  A    between atoms: O_24  and  C_25
REMARK                            x       y       z     vdW  Elec       q    Type
REMARK                         _______ _______ _______ _____ _____    ______ ____
ROOT
ATOM      1  C   UNL     1       1.282   9.392  19.354  0.00  0.00    +0.000 A 
ATOM      2  C   UNL     1       1.741   9.253  18.044  0.00  0.00    +0.000 A 
ATOM      3  C   UNL     1       2.438   8.098  17.681  0.00  0.00    +0.000 A 
ATOM      4  C   UNL     1       2.705   7.096  18.621  0.00  0.00    +0.000 A 
ATOM      5  C   UNL     1       2.250   7.248  19.932  0.00  0.00    +0.000 A 
ATOM      6  C   UNL     1       1.541   8.396  20.302  0.00  0.00    +0.000 A 
ENDROOT
BRANCH   1   7
ATOM      7  S   UNL     1       0.446  10.882  19.862  0.00  0.00    +0.000 S 
ATOM      8  O   UNL     1       1.462  11.887  20.103  0.00  0.00    +0.000 OA
ATOM      9  O   UNL     1      -0.525  10.547  20.880  0.00  0.00    +0.000 OA
BRANCH   7  10
ATOM     10  N   UNL     1      -0.350  11.361  18.467  0.00  0.00    +0.000 N 
ATOM     11  H   UNL     1       0.108  12.114  17.956  0.00  0.00    +0.000 HD
BRANCH  10  15
ATOM     12  C   UNL     1      -4.500  10.915  17.875  0.00  0.00    +0.000 A 
ATOM     13  C   UNL     1      -4.028  11.873  18.773  0.00  0.00    +0.000 A 
ATOM     14  C   UNL     1      -2.653  12.036  18.984  0.00  0.00    +0.000 A 
ATOM     15  C   UNL     1      -1.748  11.195  18.340  0.00  0.00    +0.000 A 
ATOM     16  C   UNL     1      -2.209  10.232  17.454  0.00  0.00    +0.000 A 
ATOM     17  C   UNL     1      -3.577  10.115  17.207  0.00  0.00    +0.000 A 
BRANCH  12  18
ATOM     18  O   UNL     1      -5.857  10.862  17.719  0.00  0.00    +0.000 OA
BRANCH  18  20
ATOM     19  C   UNL     1      -7.306  12.757  17.596  0.00  0.00    +0.000 C 
ATOM     20  C   UNL     1      -6.649  11.746  18.516  0.00  0.00    +0.000 C 
ENDBRANCH  18  20
ENDBRANCH  12  18
ENDBRANCH  10  15
ENDBRANCH   7  10
ENDBRANCH   1   7
BRANCH   4  21
ATOM     21  O   UNL     1       3.378   6.005  18.142  0.00  0.00    +0.000 OA
BRANCH  21  22
ATOM     22  C   UNL     1       4.128   5.245  19.089  0.00  0.00    +0.000 C 
BRANCH  22  23
ATOM     23  C   UNL     1       5.544   4.882  18.639  0.00  0.00    +0.000 C 
ATOM     24  O   UNL     1       6.443   4.662  19.447  0.00  0.00    +0.000 OA
ATOM     25  N   UNL     1       5.722   4.850  17.272  0.00  0.00    +0.000 N 
ATOM     26  H   UNL     1       4.903   4.941  16.691  0.00  0.00    +0.000 HD
BRANCH  25  27
ATOM     27  C   UNL     1       6.985   4.486  16.663  0.00  0.00    +0.000 C 
BRANCH  27  28
ATOM     28  C   UNL     1       7.054   4.804  15.168  0.00  0.00    +0.000 C 
BRANCH  28  29
ATOM     29  C   UNL     1       6.172   3.881  14.350  0.00  0.00    +0.000 C 
BRANCH  29  30
ATOM     30  O   UNL     1       6.645   3.912  13.003  0.00  0.00    +0.000 OA
ATOM     31  C   UNL     1       5.767   3.215  12.146  0.00  0.00    +0.000 C 
ENDBRANCH  29  30
ENDBRANCH  28  29
ENDBRANCH  27  28
ENDBRANCH  25  27
ENDBRANCH  22  23
ENDBRANCH  21  22
ENDBRANCH   4  21
TORSDOF 12
ENDMDL
MODEL 8
REMARK VINA RESULT:      -6.7      2.654      8.623
REMARK  Name = 
REMARK  14 active torsions:
REMARK  status: ('A' for Active; 'I' for Inactive)
REMARK    1  A    between atoms: C_1  and  C_2
REMARK    2  A    between atoms: C_2  and  O_3
REMARK    3  A    between atoms: O_3  and  C_4
REMARK    4  A    between atoms: C_7  and  N_8
REMARK    5  A    between atoms: N_8  and  S_9
REMARK    6  A    between atoms: S_9  and  C_12
REMARK    7  A    between atoms: C_15  and  O_16
REMARK    8  A    between atoms: O_16  and  C_17
REMARK    9  A    between atoms: C_17  and  C_18
REMARK   10  A    between atoms: N_20  and  C_21
REMARK   11  A    between atoms: C_21  and  C_22
REMARK   12  A    between atoms: C_22  and  C_23
REMARK   13  A    between atoms: C_23  and  O_24
REMARK   14  A    between atoms: O_24  and  C_25
REMARK                            x       y       z     vdW  Elec       q    Type
REMARK                         _______ _______ _______ _____ _____    ______ ____
ROOT
ATOM      1  C   UNL     1       2.236   4.704  18.830  0.00  0.00    +0.000 A 
ATOM      2  C   UNL     1       1.978   4.842  20.194  0.00  0.00    +0.000 A 
ATOM      3  C   UNL     1       1.862   6.122  20.743  0.00  0.00    +0.000 A 
ATOM      4  C   UNL     1       2.030   7.261  19.948  0.00  0.00    +0.000 A 
ATOM      5  C   UNL     1       2.296   7.113  18.585  0.00  0.00    +0.000 A 
ATOM      6  C   UNL     1       2.403   5.836  18.025  0.00  0.00    +0.000 A 
ENDROOT
BRANCH   1   7
ATOM      7  S   UNL     1       2.453   3.086  18.115  0.00  0.00    +0.000 S 
ATOM      8  O   UNL     1       2.158   3.195  16.700  0.00  0.00    +0.000 OA
ATOM      9  O   UNL     1       1.772   2.115  18.943  0.00  0.00    +0.000 OA
BRANCH   7  10
ATOM     10  N   UNL     1       4.108   2.846  18.220  0.00  0.00    +0.000 N 
ATOM     11  H   UNL     1       4.391   2.128  18.884  0.00  0.00    +0.000 HD
BRANCH  10  15
ATOM     12  C   UNL     1       6.671   6.097  17.421  0.00  0.00    +0.000 A 
ATOM     13  C   UNL     1       6.054   5.427  16.365  0.00  0.00    +0.000 A 
ATOM     14  C   UNL     1       5.200   4.343  16.610  0.00  0.00    +0.000 A 
ATOM     15  C   UNL     1       5.011   3.891  17.913  0.00  0.00    +0.000 A 
ATOM     16  C   UNL     1       5.629   4.545  18.969  0.00  0.00    +0.000 A 
ATOM     17  C   UNL     1       6.433   5.658  18.720  0.00  0.00    +0.000 A 
BRANCH  12  18
ATOM     18  O   UNL     1       7.458   7.159  17.073  0.00  0.00    +0.000 OA
BRANCH  18  20
ATOM     19  C   UNL     1       8.125   9.331  17.811  0.00  0.00    +0.000 C 
ATOM     20  C   UNL     1       8.145   7.846  18.121  0.00  0.00    +0.000 C 
ENDBRANCH  18  20
ENDBRANCH  12  18
ENDBRANCH  10  15
ENDBRANCH   7  10
ENDBRANCH   1   7
BRANCH   4  21
ATOM     21  O   UNL     1       1.872   8.457  20.595  0.00  0.00    +0.000 OA
BRANCH  21  22
ATOM     22  C   UNL     1       0.634   9.137  20.395  0.00  0.00    +0.000 C 
BRANCH  22  23
ATOM     23  C   UNL     1       0.646  10.171  19.269  0.00  0.00    +0.000 C 
ATOM     24  O   UNL     1       0.176   9.926  18.161  0.00  0.00    +0.000 OA
ATOM     25  N   UNL     1       1.246  11.369  19.596  0.00  0.00    +0.000 N 
ATOM     26  H   UNL     1       1.508  11.515  20.558  0.00  0.00    +0.000 HD
BRANCH  25  27
ATOM     27  C   UNL     1       1.314  12.480  18.668  0.00  0.00    +0.000 C 
BRANCH  27  28
ATOM     28  C   UNL     1       0.659  13.757  19.198  0.00  0.00    +0.000 C 
BRANCH  28  29
ATOM     29  C   UNL     1      -0.801  13.544  19.546  0.00  0.00    +0.000 C 
BRANCH  29  30
ATOM     30  O   UNL     1      -0.865  13.113  20.905  0.00  0.00    +0.000 OA
ATOM     31  C   UNL     1      -1.963  12.252  21.109  0.00  0.00    +0.000 C 
ENDBRANCH  29  30
ENDBRANCH  28  29
ENDBRANCH  27  28
ENDBRANCH  25  27
ENDBRANCH  22  23
ENDBRANCH  21  22
ENDBRANCH   4  21
TORSDOF 12
ENDMDL
MODEL 9
REMARK VINA RESULT:      -6.6      2.586      8.534
REMARK  Name = 
REMARK  14 active torsions:
REMARK  status: ('A' for Active; 'I' for Inactive)
REMARK    1  A    between atoms: C_1  and  C_2
REMARK    2  A    between atoms: C_2  and  O_3
REMARK    3  A    between atoms: O_3  and  C_4
REMARK    4  A    between atoms: C_7  and  N_8
REMARK    5  A    between atoms: N_8  and  S_9
REMARK    6  A    between atoms: S_9  and  C_12
REMARK    7  A    between atoms: C_15  and  O_16
REMARK    8  A    between atoms: O_16  and  C_17
REMARK    9  A    between atoms: C_17  and  C_18
REMARK   10  A    between atoms: N_20  and  C_21
REMARK   11  A    between atoms: C_21  and  C_22
REMARK   12  A    between atoms: C_22  and  C_23
REMARK   13  A    between atoms: C_23  and  O_24
REMARK   14  A    between atoms: O_24  and  C_25
REMARK                            x       y       z     vdW  Elec       q    Type
REMARK                         _______ _______ _______ _____ _____    ______ ____
ROOT
ATOM      1  C   UNL     1       2.399   4.614  18.815  0.00  0.00    +0.000 A 
ATOM      2  C   UNL     1       2.182   4.743  20.187  0.00  0.00    +0.000 A 
ATOM      3  C   UNL     1       1.996   6.015  20.735  0.00  0.00    +0.000 A 
ATOM      4  C   UNL     1       2.056   7.158  19.929  0.00  0.00    +0.000 A 
ATOM      5  C   UNL     1       2.283   7.020  18.558  0.00  0.00    +0.000 A 
ATOM      6  C   UNL     1       2.458   5.749  18.000  0.00  0.00    +0.000 A 
ENDROOT
BRANCH   1   7
ATOM      7  S   UNL     1       2.703   3.010  18.099  0.00  0.00    +0.000 S 
ATOM      8  O   UNL     1       2.352   3.090  16.695  0.00  0.00    +0.000 OA
ATOM      9  O   UNL     1       2.120   2.000  18.954  0.00  0.00    +0.000 OA
BRANCH   7  10
ATOM     10  N   UNL     1       4.373   2.886  18.147  0.00  0.00    +0.000 N 
ATOM     11  H   UNL     1       4.727   2.171  18.780  0.00  0.00    +0.000 HD
BRANCH  10  15
ATOM     12  C   UNL     1       6.948   6.071  17.146  0.00  0.00    +0.000 A 
ATOM     13  C   UNL     1       6.664   5.806  18.486  0.00  0.00    +0.000 A 
ATOM     14  C   UNL     1       5.809   4.753  18.839  0.00  0.00    +0.000 A 
ATOM     15  C   UNL     1       5.190   4.000  17.844  0.00  0.00    +0.000 A 
ATOM     16  C   UNL     1       5.458   4.264  16.509  0.00  0.00    +0.000 A 
ATOM     17  C   UNL     1       6.354   5.278  16.168  0.00  0.00    +0.000 A 
BRANCH  12  18
ATOM     18  O   UNL     1       7.819   7.099  16.915  0.00  0.00    +0.000 OA
BRANCH  18  20
ATOM     19  C   UNL     1       8.580   8.793  18.417  0.00  0.00    +0.000 C 
ATOM     20  C   UNL     1       7.485   8.382  17.450  0.00  0.00    +0.000 C 
ENDBRANCH  18  20
ENDBRANCH  12  18
ENDBRANCH  10  15
ENDBRANCH   7  10
ENDBRANCH   1   7
BRANCH   4  21
ATOM     21  O   UNL     1       1.839   8.344  20.577  0.00  0.00    +0.000 OA
BRANCH  21  22
ATOM     22  C   UNL     1       0.524   8.892  20.491  0.00  0.00    +0.000 C 
BRANCH  22  23
ATOM     23  C   UNL     1       0.384  10.072  19.529  0.00  0.00    +0.000 C 
ATOM     24  O   UNL     1       1.257  10.346  18.709  0.00  0.00    +0.000 OA
ATOM     25  N   UNL     1      -0.776  10.803  19.681  0.00  0.00    +0.000 N 
ATOM     26  H   UNL     1      -1.478  10.442  20.307  0.00  0.00    +0.000 HD
BRANCH  25  27
ATOM     27  C   UNL     1      -1.098  11.931  18.831  0.00  0.00    +0.000 C 
BRANCH  27  28
ATOM     28  C   UNL     1      -1.168  13.261  19.586  0.00  0.00    +0.000 C 
BRANCH  28  29
ATOM     29  C   UNL     1       0.029  13.460  20.495  0.00  0.00    +0.000 C 
BRANCH  29  30
ATOM     30  O   UNL     1       1.194  13.522  19.671  0.00  0.00    +0.000 OA
ATOM     31  C   UNL     1       2.366  13.420  20.450  0.00  0.00    +0.000 C 
ENDBRANCH  29  30
ENDBRANCH  28  29
ENDBRANCH  27  28
ENDBRANCH  25  27
ENDBRANCH  22  23
ENDBRANCH  21  22
ENDBRANCH   4  21
TORSDOF 12
ENDMDL
