MODEL 1
REMARK VINA RESULT:      -7.3      0.000      0.000
REMARK  Name = 
REMARK  4 active torsions:
REMARK  status: ('A' for Active; 'I' for Inactive)
REMARK    1  A    between atoms: S_2  and  N_4
REMARK    2  A    between atoms: S_2  and  C_13
REMARK    3  A    between atoms: N_4  and  C_5
REMARK    4  A    between atoms: C_5  and  C_6
REMARK                            x       y       z     vdW  Elec       q    Type
REMARK                         _______ _______ _______ _____ _____    ______ ____
ROOT
ATOM      1  N   UNL     1       6.141   3.745  18.653  0.00  0.00    +0.000 NA
ATOM      2  H   UNL     1       6.691   3.084  19.198  0.00  0.00    +0.000 HD
ENDROOT
BRANCH   1   4
ATOM      3  O   UNL     1       6.914   6.121  18.106  0.00  0.00    +0.000 OA
ATOM      4  S   UNL     1       7.173   4.740  17.760  0.00  0.00    +0.000 S 
ATOM      5  O   UNL     1       8.495   4.164  17.901  0.00  0.00    +0.000 OA
BRANCH   4   6
ATOM      6  C   UNL     1       6.810   4.604  16.058  0.00  0.00    +0.000 A 
ATOM      7  C   UNL     1       5.744   3.916  15.507  0.00  0.00    +0.000 A 
ATOM      8  N   UNL     1       5.869   4.081  14.157  0.00  0.00    +0.000 N 
ATOM      9  C   UNL     1       6.980   4.846  13.935  0.00  0.00    +0.000 A 
ATOM     10  N   UNL     1       7.571   5.188  15.057  0.00  0.00    +0.000 NA
ATOM     11  H   UNL     1       5.256   3.706  13.445  0.00  0.00    +0.000 HD
ENDBRANCH   4   6
ENDBRANCH   1   4
BRANCH   1  12
ATOM     12  C   UNL     1       5.099   4.449  19.409  0.00  0.00    +0.000 C 
BRANCH  12  13
ATOM     13  C   UNL     1       3.711   3.961  19.056  0.00  0.00    +0.000 A 
ATOM     14  C   UNL     1       3.258   2.743  19.603  0.00  0.00    +0.000 A 
ATOM     15  C   UNL     1       1.964   2.277  19.351  0.00  0.00    +0.000 A 
ATOM     16  C   UNL     1       1.106   3.013  18.539  0.00  0.00    +0.000 A 
ATOM     17  C   UNL     1       1.549   4.205  17.965  0.00  0.00    +0.000 A 
ATOM     18  C   UNL     1       2.845   4.674  18.213  0.00  0.00    +0.000 A 
ATOM     19 CL   UNL     1       3.312   6.153  17.454  0.00  0.00    +0.000 Cl
ENDBRANCH  12  13
ENDBRANCH   1  12
TORSDOF 4
ENDMDL
MODEL 2
REMARK VINA RESULT:      -7.2      1.151      1.191
REMARK  Name = 
REMARK  4 active torsions:
REMARK  status: ('A' for Active; 'I' for Inactive)
REMARK    1  A    between atoms: S_2  and  N_4
REMARK    2  A    between atoms: S_2  and  C_13
REMARK    3  A    between atoms: N_4  and  C_5
REMARK    4  A    between atoms: C_5  and  C_6
REMARK                            x       y       z     vdW  Elec       q    Type
REMARK                         _______ _______ _______ _____ _____    ______ ____
ROOT
ATOM      1  N   UNL     1       5.780   3.694  18.553  0.00  0.00    +0.000 NA
ATOM      2  H   UNL     1       6.339   2.981  19.016  0.00  0.00    +0.000 HD
ENDROOT
BRANCH   1   4
ATOM      3  O   UNL     1       6.304   6.134  17.991  0.00  0.00    +0.000 OA
ATOM      4  S   UNL     1       6.798   4.792  17.769  0.00  0.00    +0.000 S 
ATOM      5  O   UNL     1       8.147   4.415  18.144  0.00  0.00    +0.000 OA
BRANCH   4   6
ATOM      6  C   UNL     1       6.732   4.543  16.044  0.00  0.00    +0.000 A 
ATOM      7  C   UNL     1       6.003   3.565  15.391  0.00  0.00    +0.000 A 
ATOM      8  N   UNL     1       6.260   3.750  14.062  0.00  0.00    +0.000 N 
ATOM      9  C   UNL     1       7.117   4.811  13.951  0.00  0.00    +0.000 A 
ATOM     10  N   UNL     1       7.418   5.320  15.124  0.00  0.00    +0.000 NA
ATOM     11  H   UNL     1       5.890   3.205  13.296  0.00  0.00    +0.000 HD
ENDBRANCH   4   6
ENDBRANCH   1   4
BRANCH   1  12
ATOM     12  C   UNL     1       4.738   4.301  19.389  0.00  0.00    +0.000 C 
BRANCH  12  13
ATOM     13  C   UNL     1       3.381   3.679  19.148  0.00  0.00    +0.000 A 
ATOM     14  C   UNL     1       3.289   2.545  18.315  0.00  0.00    +0.000 A 
ATOM     15  C   UNL     1       2.067   1.901  18.105  0.00  0.00    +0.000 A 
ATOM     16  C   UNL     1       0.913   2.386  18.713  0.00  0.00    +0.000 A 
ATOM     17  C   UNL     1       0.980   3.525  19.516  0.00  0.00    +0.000 A 
ATOM     18  C   UNL     1       2.203   4.174  19.726  0.00  0.00    +0.000 A 
ATOM     19 CL   UNL     1       2.191   5.582  20.726  0.00  0.00    +0.000 Cl
ENDBRANCH  12  13
ENDBRANCH   1  12
TORSDOF 4
ENDMDL
MODEL 3
REMARK VINA RESULT:      -7.2      1.581      1.965
REMARK  Name = 
REMARK  4 active torsions:
REMARK  status: ('A' for Active; 'I' for Inactive)
REMARK    1  A    between atoms: S_2  and  N_4
REMARK    2  A    between atoms: S_2  and  C_13
REMARK    3  A    between atoms: N_4  and  C_5
REMARK    4  A    between atoms: C_5  and  C_6
REMARK                            x       y       z     vdW  Elec       q    Type
REMARK                         _______ _______ _______ _____ _____    ______ ____
ROOT
ATOM      1  N   UNL     1       5.603   5.530  17.617  0.00  0.00    +0.000 NA
ATOM      2  H   UNL     1       4.858   5.700  16.944  0.00  0.00    +0.000 HD
ENDROOT
BRANCH   1   4
ATOM      3  O   UNL     1       7.540   6.878  16.629  0.00  0.00    +0.000 OA
ATOM      4  S   UNL     1       7.093   5.515  16.821  0.00  0.00    +0.000 S 
ATOM      5  O   UNL     1       7.908   4.548  17.529  0.00  0.00    +0.000 OA
BRANCH   4   6
ATOM      6  C   UNL     1       6.909   4.848  15.219  0.00  0.00    +0.000 A 
ATOM      7  C   UNL     1       6.121   3.764  14.875  0.00  0.00    +0.000 A 
ATOM      8  N   UNL     1       6.293   3.606  13.529  0.00  0.00    +0.000 N 
ATOM      9  C   UNL     1       7.158   4.578  13.107  0.00  0.00    +0.000 A 
ATOM     10  N   UNL     1       7.545   5.351  14.095  0.00  0.00    +0.000 NA
ATOM     11  H   UNL     1       5.863   2.901  12.946  0.00  0.00    +0.000 HD
ENDBRANCH   4   6
ENDBRANCH   1   4
BRANCH   1  12
ATOM     12  C   UNL     1       5.370   4.399  18.522  0.00  0.00    +0.000 C 
BRANCH  12  13
ATOM     13  C   UNL     1       3.918   3.978  18.545  0.00  0.00    +0.000 A 
ATOM     14  C   UNL     1       2.994   4.671  17.735  0.00  0.00    +0.000 A 
ATOM     15  C   UNL     1       1.652   4.284  17.679  0.00  0.00    +0.000 A 
ATOM     16  C   UNL     1       1.207   3.208  18.441  0.00  0.00    +0.000 A 
ATOM     17  C   UNL     1       2.100   2.531  19.271  0.00  0.00    +0.000 A 
ATOM     18  C   UNL     1       3.445   2.917  19.331  0.00  0.00    +0.000 A 
ATOM     19 CL   UNL     1       4.477   2.028  20.393  0.00  0.00    +0.000 Cl
ENDBRANCH  12  13
ENDBRANCH   1  12
TORSDOF 4
ENDMDL
MODEL 4
REMARK VINA RESULT:      -7.1      2.379      3.059
REMARK  Name = 
REMARK  4 active torsions:
REMARK  status: ('A' for Active; 'I' for Inactive)
REMARK    1  A    between atoms: S_2  and  N_4
REMARK    2  A    between atoms: S_2  and  C_13
REMARK    3  A    between atoms: N_4  and  C_5
REMARK    4  A    between atoms: C_5  and  C_6
REMARK                            x       y       z     vdW  Elec       q    Type
REMARK                         _______ _______ _______ _____ _____    ______ ____
ROOT
ATOM      1  N   UNL     1       5.407   3.857  18.115  0.00  0.00    +0.000 NA
ATOM      2  H   UNL     1       5.431   4.350  19.006  0.00  0.00    +0.000 HD
ENDROOT
BRANCH   1   4
ATOM      3  O   UNL     1       6.881   4.097  16.038  0.00  0.00    +0.000 OA
ATOM      4  S   UNL     1       6.000   4.863  16.894  0.00  0.00    +0.000 S 
ATOM      5  O   UNL     1       4.845   5.555  16.358  0.00  0.00    +0.000 OA
BRANCH   4   6
ATOM      6  C   UNL     1       6.990   6.122  17.585  0.00  0.00    +0.000 A 
ATOM      7  C   UNL     1       7.750   6.020  18.736  0.00  0.00    +0.000 A 
ATOM      8  N   UNL     1       8.342   7.242  18.887  0.00  0.00    +0.000 N 
ATOM      9  C   UNL     1       7.933   8.030  17.847  0.00  0.00    +0.000 A 
ATOM     10  N   UNL     1       7.124   7.388  17.036  0.00  0.00    +0.000 NA
ATOM     11  H   UNL     1       8.967   7.520  19.631  0.00  0.00    +0.000 HD
ENDBRANCH   4   6
ENDBRANCH   1   4
BRANCH   1  12
ATOM     12  C   UNL     1       4.133   3.195  17.812  0.00  0.00    +0.000 C 
BRANCH  12  13
ATOM     13  C   UNL     1       3.194   3.197  18.997  0.00  0.00    +0.000 A 
ATOM     14  C   UNL     1       3.609   2.583  20.196  0.00  0.00    +0.000 A 
ATOM     15  C   UNL     1       2.800   2.606  21.336  0.00  0.00    +0.000 A 
ATOM     16  C   UNL     1       1.559   3.233  21.294  0.00  0.00    +0.000 A 
ATOM     17  C   UNL     1       1.119   3.820  20.107  0.00  0.00    +0.000 A 
ATOM     18  C   UNL     1       1.926   3.796  18.963  0.00  0.00    +0.000 A 
ATOM     19 CL   UNL     1       1.298   4.538  17.535  0.00  0.00    +0.000 Cl
ENDBRANCH  12  13
ENDBRANCH   1  12
TORSDOF 4
ENDMDL
MODEL 5
REMARK VINA RESULT:      -7.0      2.418      3.005
REMARK  Name = 
REMARK  4 active torsions:
REMARK  status: ('A' for Active; 'I' for Inactive)
REMARK    1  A    between atoms: S_2  and  N_4
REMARK    2  A    between atoms: S_2  and  C_13
REMARK    3  A    between atoms: N_4  and  C_5
REMARK    4  A    between atoms: C_5  and  C_6
REMARK                            x       y       z     vdW  Elec       q    Type
REMARK                         _______ _______ _______ _____ _____    ______ ____
ROOT
ATOM      1  N   UNL     1       6.102   4.121  18.410  0.00  0.00    +0.000 NA
ATOM      2  H   UNL     1       6.875   3.841  19.011  0.00  0.00    +0.000 HD
ENDROOT
BRANCH   1   4
ATOM      3  O   UNL     1       7.767   4.269  16.473  0.00  0.00    +0.000 OA
ATOM      4  S   UNL     1       6.696   5.011  17.102  0.00  0.00    +0.000 S 
ATOM      5  O   UNL     1       5.530   5.433  16.352  0.00  0.00    +0.000 OA
BRANCH   4   6
ATOM      6  C   UNL     1       7.419   6.495  17.668  0.00  0.00    +0.000 A 
ATOM      7  C   UNL     1       8.169   6.646  18.821  0.00  0.00    +0.000 A 
ATOM      8  N   UNL     1       8.515   7.967  18.855  0.00  0.00    +0.000 N 
ATOM      9  C   UNL     1       7.979   8.563  17.747  0.00  0.00    +0.000 A 
ATOM     10  N   UNL     1       7.317   7.707  17.003  0.00  0.00    +0.000 NA
ATOM     11  H   UNL     1       9.066   8.427  19.567  0.00  0.00    +0.000 HD
ENDBRANCH   4   6
ENDBRANCH   1   4
BRANCH   1  12
ATOM     12  C   UNL     1       4.965   4.728  19.110  0.00  0.00    +0.000 C 
BRANCH  12  13
ATOM     13  C   UNL     1       3.683   3.958  18.888  0.00  0.00    +0.000 A 
ATOM     14  C   UNL     1       3.726   2.764  18.139  0.00  0.00    +0.000 A 
ATOM     15  C   UNL     1       2.578   1.988  17.953  0.00  0.00    +0.000 A 
ATOM     16  C   UNL     1       1.366   2.398  18.499  0.00  0.00    +0.000 A 
ATOM     17  C   UNL     1       1.299   3.592  19.217  0.00  0.00    +0.000 A 
ATOM     18  C   UNL     1       2.446   4.373  19.404  0.00  0.00    +0.000 A 
ATOM     19 CL   UNL     1       2.268   5.841  20.297  0.00  0.00    +0.000 Cl
ENDBRANCH  12  13
ENDBRANCH   1  12
TORSDOF 4
ENDMDL
MODEL 6
REMARK VINA RESULT:      -7.0      1.626      1.827
REMARK  Name = 
REMARK  4 active torsions:
REMARK  status: ('A' for Active; 'I' for Inactive)
REMARK    1  A    between atoms: S_2  and  N_4
REMARK    2  A    between atoms: S_2  and  C_13
REMARK    3  A    between atoms: N_4  and  C_5
REMARK    4  A    between atoms: C_5  and  C_6
REMARK                            x       y       z     vdW  Elec       q    Type
REMARK                         _______ _______ _______ _____ _____    ______ ____
ROOT
ATOM      1  N   UNL     1       4.976   5.001  17.982  0.00  0.00    +0.000 NA
ATOM      2  H   UNL     1       4.385   4.689  17.214  0.00  0.00    +0.000 HD
ENDROOT
BRANCH   1   4
ATOM      3  O   UNL     1       6.782   6.719  17.409  0.00  0.00    +0.000 OA
ATOM      4  S   UNL     1       6.540   5.293  17.411  0.00  0.00    +0.000 S 
ATOM      5  O   UNL     1       7.401   4.384  18.141  0.00  0.00    +0.000 OA
BRANCH   4   6
ATOM      6  C   UNL     1       6.672   4.788  15.746  0.00  0.00    +0.000 A 
ATOM      7  C   UNL     1       6.020   3.714  15.168  0.00  0.00    +0.000 A 
ATOM      8  N   UNL     1       6.430   3.703  13.865  0.00  0.00    +0.000 N 
ATOM      9  C   UNL     1       7.297   4.747  13.696  0.00  0.00    +0.000 A 
ATOM     10  N   UNL     1       7.463   5.430  14.805  0.00  0.00    +0.000 NA
ATOM     11  H   UNL     1       6.149   3.044  13.151  0.00  0.00    +0.000 HD
ENDBRANCH   4   6
ENDBRANCH   1   4
BRANCH   1  12
ATOM     12  C   UNL     1       4.900   4.176  19.193  0.00  0.00    +0.000 C 
BRANCH  12  13
ATOM     13  C   UNL     1       3.473   3.841  19.565  0.00  0.00    +0.000 A 
ATOM     14  C   UNL     1       2.734   4.765  20.332  0.00  0.00    +0.000 A 
ATOM     15  C   UNL     1       1.395   4.526  20.655  0.00  0.00    +0.000 A 
ATOM     16  C   UNL     1       0.775   3.356  20.227  0.00  0.00    +0.000 A 
ATOM     17  C   UNL     1       1.500   2.417  19.494  0.00  0.00    +0.000 A 
ATOM     18  C   UNL     1       2.843   2.652  19.170  0.00  0.00    +0.000 A 
ATOM     19 CL   UNL     1       3.665   1.431  18.267  0.00  0.00    +0.000 Cl
ENDBRANCH  12  13
ENDBRANCH   1  12
TORSDOF 4
ENDMDL
MODEL 7
REMARK VINA RESULT:      -6.9      2.368      3.180
REMARK  Name = 
REMARK  4 active torsions:
REMARK  status: ('A' for Active; 'I' for Inactive)
REMARK    1  A    between atoms: S_2  and  N_4
REMARK    2  A    between atoms: S_2  and  C_13
REMARK    3  A    between atoms: N_4  and  C_5
REMARK    4  A    between atoms: C_5  and  C_6
REMARK                            x       y       z     vdW  Elec       q    Type
REMARK                         _______ _______ _______ _____ _____    ______ ____
ROOT
ATOM      1  N   UNL     1       4.485   4.416  16.716  0.00  0.00    +0.000 NA
ATOM      2  H   UNL     1       4.723   3.537  17.171  0.00  0.00    +0.000 HD
ENDROOT
BRANCH   1   4
ATOM      3  O   UNL     1       6.689   4.181  15.438  0.00  0.00    +0.000 OA
ATOM      4  S   UNL     1       5.892   5.159  16.147  0.00  0.00    +0.000 S 
ATOM      5  O   UNL     1       5.459   6.385  15.507  0.00  0.00    +0.000 OA
BRANCH   4   6
ATOM      6  C   UNL     1       6.875   5.685  17.490  0.00  0.00    +0.000 A 
ATOM      7  C   UNL     1       7.501   6.913  17.608  0.00  0.00    +0.000 A 
ATOM      8  N   UNL     1       8.152   6.872  18.808  0.00  0.00    +0.000 N 
ATOM      9  C   UNL     1       7.907   5.649  19.369  0.00  0.00    +0.000 A 
ATOM     10  N   UNL     1       7.134   4.908  18.609  0.00  0.00    +0.000 NA
ATOM     11  H   UNL     1       8.717   7.607  19.212  0.00  0.00    +0.000 HD
ENDBRANCH   4   6
ENDBRANCH   1   4
BRANCH   1  12
ATOM     12  C   UNL     1       3.590   5.287  17.486  0.00  0.00    +0.000 C 
BRANCH  12  13
ATOM     13  C   UNL     1       2.586   4.497  18.295  0.00  0.00    +0.000 A 
ATOM     14  C   UNL     1       2.220   3.208  17.857  0.00  0.00    +0.000 A 
ATOM     15  C   UNL     1       1.338   2.417  18.599  0.00  0.00    +0.000 A 
ATOM     16  C   UNL     1       0.796   2.906  19.784  0.00  0.00    +0.000 A 
ATOM     17  C   UNL     1       1.123   4.191  20.217  0.00  0.00    +0.000 A 
ATOM     18  C   UNL     1       2.005   4.987  19.475  0.00  0.00    +0.000 A 
ATOM     19 CL   UNL     1       2.345   6.568  20.080  0.00  0.00    +0.000 Cl
ENDBRANCH  12  13
ENDBRANCH   1  12
TORSDOF 4
ENDMDL
MODEL 8
REMARK VINA RESULT:      -6.9      1.149      1.240
REMARK  Name = 
REMARK  4 active torsions:
REMARK  status: ('A' for Active; 'I' for Inactive)
REMARK    1  A    between atoms: S_2  and  N_4
REMARK    2  A    between atoms: S_2  and  C_13
REMARK    3  A    between atoms: N_4  and  C_5
REMARK    4  A    between atoms: C_5  and  C_6
REMARK                            x       y       z     vdW  Elec       q    Type
REMARK                         _______ _______ _______ _____ _____    ______ ____
ROOT
ATOM      1  N   UNL     1       5.639   3.762  18.547  0.00  0.00    +0.000 NA
ATOM      2  H   UNL     1       5.682   3.876  19.558  0.00  0.00    +0.000 HD
ENDROOT
BRANCH   1   4
ATOM      3  O   UNL     1       6.271   6.182  18.012  0.00  0.00    +0.000 OA
ATOM      4  S   UNL     1       6.727   4.824  17.810  0.00  0.00    +0.000 S 
ATOM      5  O   UNL     1       8.044   4.400  18.241  0.00  0.00    +0.000 OA
BRANCH   4   6
ATOM      6  C   UNL     1       6.726   4.578  16.082  0.00  0.00    +0.000 A 
ATOM      7  C   UNL     1       6.075   3.561  15.407  0.00  0.00    +0.000 A 
ATOM      8  N   UNL     1       6.359   3.766  14.086  0.00  0.00    +0.000 N 
ATOM      9  C   UNL     1       7.154   4.876  14.003  0.00  0.00    +0.000 A 
ATOM     10  N   UNL     1       7.391   5.398  15.184  0.00  0.00    +0.000 NA
ATOM     11  H   UNL     1       6.044   3.203  13.308  0.00  0.00    +0.000 HD
ENDBRANCH   4   6
ENDBRANCH   1   4
BRANCH   1  12
ATOM     12  C   UNL     1       4.284   3.769  17.983  0.00  0.00    +0.000 C 
BRANCH  12  13
ATOM     13  C   UNL     1       3.220   3.738  19.057  0.00  0.00    +0.000 A 
ATOM     14  C   UNL     1       2.820   2.493  19.584  0.00  0.00    +0.000 A 
ATOM     15  C   UNL     1       1.881   2.415  20.617  0.00  0.00    +0.000 A 
ATOM     16  C   UNL     1       1.316   3.578  21.131  0.00  0.00    +0.000 A 
ATOM     17  C   UNL     1       1.677   4.816  20.601  0.00  0.00    +0.000 A 
ATOM     18  C   UNL     1       2.616   4.898  19.565  0.00  0.00    +0.000 A 
ATOM     19 CL   UNL     1       2.996   6.471  18.962  0.00  0.00    +0.000 Cl
ENDBRANCH  12  13
ENDBRANCH   1  12
TORSDOF 4
ENDMDL
MODEL 9
REMARK VINA RESULT:      -6.8      1.741      2.101
REMARK  Name = 
REMARK  4 active torsions:
REMARK  status: ('A' for Active; 'I' for Inactive)
REMARK    1  A    between atoms: S_2  and  N_4
REMARK    2  A    between atoms: S_2  and  C_13
REMARK    3  A    between atoms: N_4  and  C_5
REMARK    4  A    between atoms: C_5  and  C_6
REMARK                            x       y       z     vdW  Elec       q    Type
REMARK                         _______ _______ _______ _____ _____    ______ ____
ROOT
ATOM      1  N   UNL     1       5.579   3.964  17.323  0.00  0.00    +0.000 NA
ATOM      2  H   UNL     1       5.726   3.757  18.309  0.00  0.00    +0.000 HD
ENDROOT
BRANCH   1   4
ATOM      3  O   UNL     1       6.631   6.271  16.989  0.00  0.00    +0.000 OA
ATOM      4  S   UNL     1       6.879   4.869  16.734  0.00  0.00    +0.000 S 
ATOM      5  O   UNL     1       8.072   4.212  17.230  0.00  0.00    +0.000 OA
BRANCH   4   6
ATOM      6  C   UNL     1       6.977   4.714  14.999  0.00  0.00    +0.000 A 
ATOM      7  C   UNL     1       6.255   3.828  14.220  0.00  0.00    +0.000 A 
ATOM      8  N   UNL     1       6.662   4.062  12.937  0.00  0.00    +0.000 N 
ATOM      9  C   UNL     1       7.596   5.061  12.976  0.00  0.00    +0.000 A 
ATOM     10  N   UNL     1       7.807   5.485  14.200  0.00  0.00    +0.000 NA
ATOM     11  H   UNL     1       6.338   3.587  12.106  0.00  0.00    +0.000 HD
ENDBRANCH   4   6
ENDBRANCH   1   4
BRANCH   1  12
ATOM     12  C   UNL     1       4.251   4.498  16.997  0.00  0.00    +0.000 C 
BRANCH  12  13
ATOM     13  C   UNL     1       3.352   4.569  18.211  0.00  0.00    +0.000 A 
ATOM     14  C   UNL     1       3.247   5.789  18.910  0.00  0.00    +0.000 A 
ATOM     15  C   UNL     1       2.388   5.920  20.005  0.00  0.00    +0.000 A 
ATOM     16  C   UNL     1       1.629   4.833  20.427  0.00  0.00    +0.000 A 
ATOM     17  C   UNL     1       1.743   3.611  19.765  0.00  0.00    +0.000 A 
ATOM     18  C   UNL     1       2.605   3.474  18.670  0.00  0.00    +0.000 A 
ATOM     19 CL   UNL     1       2.690   1.922  17.918  0.00  0.00    +0.000 Cl
ENDBRANCH  12  13
ENDBRANCH   1  12
TORSDOF 4
ENDMDL
