MODEL 1
REMARK VINA RESULT:      -8.6      0.000      0.000
REMARK  Name = 
REMARK  5 active torsions:
REMARK  status: ('A' for Active; 'I' for Inactive)
REMARK    1  A    between atoms: C_1  and  C_2
REMARK    2  A    between atoms: C_5  and  O_6
REMARK    3  A    between atoms: O_6  and  C_7
REMARK    4  A    between atoms: C_9  and  C_10
REMARK    5  A    between atoms: C_22  and  C_23
REMARK                            x       y       z     vdW  Elec       q    Type
REMARK                         _______ _______ _______ _____ _____    ______ ____
ROOT
ATOM      1  C   UNL     1       3.255   5.657  19.117  0.00  0.00    +0.000 A 
ATOM      2  N   UNL     1       4.309   5.895  18.311  0.00  0.00    +0.000 NA
ATOM      3  C   UNL     1       4.581   4.997  17.350  0.00  0.00    +0.000 A 
ATOM      4  N   UNL     1       3.877   3.849  17.210  0.00  0.00    +0.000 NA
ATOM      5  C   UNL     1       2.864   3.606  18.053  0.00  0.00    +0.000 A 
ATOM      6  C   UNL     1       2.155   2.418  17.919  0.00  0.00    +0.000 A 
ATOM      7  C   UNL     1       1.080   2.102  18.756  0.00  0.00    +0.000 A 
ATOM      8  C   UNL     1       0.693   2.994  19.748  0.00  0.00    +0.000 A 
ATOM      9  C   UNL     1       1.385   4.192  19.900  0.00  0.00    +0.000 A 
ATOM     10  C   UNL     1       2.482   4.500  19.056  0.00  0.00    +0.000 A 
ENDROOT
BRANCH   3  11
ATOM     11  C   UNL     1       5.697   5.300  16.336  0.00  0.00    +0.000 C 
ATOM     12 CL   UNL     1       7.237   5.820  17.116  0.00  0.00    +0.000 Cl
ATOM     13 CL   UNL     1       6.051   3.845  15.346  0.00  0.00    +0.000 Cl
ATOM     14 CL   UNL     1       5.180   6.638  15.244  0.00  0.00    +0.000 Cl
ENDBRANCH   3  11
BRANCH   1  15
ATOM     15  O   UNL     1       2.929   6.616  20.079  0.00  0.00    +0.000 OA
BRANCH  15  20
ATOM     16  C   UNL     1      -0.220  11.123  18.594  0.00  0.00    +0.000 C 
ATOM     17  C   UNL     1       0.575   9.910  18.995  0.00  0.00    +0.000 A 
ATOM     18  C   UNL     1       1.336   9.246  18.022  0.00  0.00    +0.000 A 
ATOM     19  C   UNL     1       2.100   8.129  18.356  0.00  0.00    +0.000 A 
ATOM     20  C   UNL     1       2.163   7.694  19.679  0.00  0.00    +0.000 A 
ATOM     21  C   UNL     1       1.373   8.314  20.648  0.00  0.00    +0.000 A 
ATOM     22  C   UNL     1       0.567   9.420  20.316  0.00  0.00    +0.000 A 
ATOM     23  C   UNL     1      -0.292  10.057  21.374  0.00  0.00    +0.000 C 
ENDBRANCH  15  20
ENDBRANCH   1  15
TORSDOF 3
ENDMDL
MODEL 2
REMARK VINA RESULT:      -8.6      0.086      1.075
REMARK  Name = 
REMARK  5 active torsions:
REMARK  status: ('A' for Active; 'I' for Inactive)
REMARK    1  A    between atoms: C_1  and  C_2
REMARK    2  A    between atoms: C_5  and  O_6
REMARK    3  A    between atoms: O_6  and  C_7
REMARK    4  A    between atoms: C_9  and  C_10
REMARK    5  A    between atoms: C_22  and  C_23
REMARK                            x       y       z     vdW  Elec       q    Type
REMARK                         _______ _______ _______ _____ _____    ______ ____
ROOT
ATOM      1  C   UNL     1       3.287   5.631  19.068  0.00  0.00    +0.000 A 
ATOM      2  N   UNL     1       4.325   5.855  18.238  0.00  0.00    +0.000 NA
ATOM      3  C   UNL     1       4.569   4.950  17.277  0.00  0.00    +0.000 A 
ATOM      4  N   UNL     1       3.854   3.807  17.159  0.00  0.00    +0.000 NA
ATOM      5  C   UNL     1       2.857   3.576  18.025  0.00  0.00    +0.000 A 
ATOM      6  C   UNL     1       2.136   2.393  17.913  0.00  0.00    +0.000 A 
ATOM      7  C   UNL     1       1.078   2.090  18.776  0.00  0.00    +0.000 A 
ATOM      8  C   UNL     1       0.718   2.991  19.770  0.00  0.00    +0.000 A 
ATOM      9  C   UNL     1       1.423   4.185  19.900  0.00  0.00    +0.000 A 
ATOM     10  C   UNL     1       2.504   4.479  19.031  0.00  0.00    +0.000 A 
ENDROOT
BRANCH   3  11
ATOM     11  C   UNL     1       5.665   5.239  16.238  0.00  0.00    +0.000 C 
ATOM     12 CL   UNL     1       5.982   3.846  15.138  0.00  0.00    +0.000 Cl
ATOM     13 CL   UNL     1       5.202   6.644  15.219  0.00  0.00    +0.000 Cl
ATOM     14 CL   UNL     1       7.216   5.613  17.076  0.00  0.00    +0.000 Cl
ENDBRANCH   3  11
BRANCH   1  15
ATOM     15  O   UNL     1       2.989   6.597  20.031  0.00  0.00    +0.000 OA
BRANCH  15  20
ATOM     16  C   UNL     1      -0.222  11.081  18.606  0.00  0.00    +0.000 C 
ATOM     17  C   UNL     1       0.590   9.874  18.991  0.00  0.00    +0.000 A 
ATOM     18  C   UNL     1       1.360   9.233  18.009  0.00  0.00    +0.000 A 
ATOM     19  C   UNL     1       2.139   8.122  18.328  0.00  0.00    +0.000 A 
ATOM     20  C   UNL     1       2.208   7.670  19.646  0.00  0.00    +0.000 A 
ATOM     21  C   UNL     1       1.410   8.266  20.623  0.00  0.00    +0.000 A 
ATOM     22  C   UNL     1       0.589   9.365  20.306  0.00  0.00    +0.000 A 
ATOM     23  C   UNL     1      -0.279   9.976  21.372  0.00  0.00    +0.000 C 
ENDBRANCH  15  20
ENDBRANCH   1  15
TORSDOF 3
ENDMDL
MODEL 3
REMARK VINA RESULT:      -8.6      0.065      1.043
REMARK  Name = 
REMARK  5 active torsions:
REMARK  status: ('A' for Active; 'I' for Inactive)
REMARK    1  A    between atoms: C_1  and  C_2
REMARK    2  A    between atoms: C_5  and  O_6
REMARK    3  A    between atoms: O_6  and  C_7
REMARK    4  A    between atoms: C_9  and  C_10
REMARK    5  A    between atoms: C_22  and  C_23
REMARK                            x       y       z     vdW  Elec       q    Type
REMARK                         _______ _______ _______ _____ _____    ______ ____
ROOT
ATOM      1  C   UNL     1       3.264   5.614  19.101  0.00  0.00    +0.000 A 
ATOM      2  N   UNL     1       4.312   5.844  18.284  0.00  0.00    +0.000 NA
ATOM      3  C   UNL     1       4.572   4.942  17.324  0.00  0.00    +0.000 A 
ATOM      4  N   UNL     1       3.862   3.797  17.195  0.00  0.00    +0.000 NA
ATOM      5  C   UNL     1       2.856   3.560  18.047  0.00  0.00    +0.000 A 
ATOM      6  C   UNL     1       2.142   2.374  17.924  0.00  0.00    +0.000 A 
ATOM      7  C   UNL     1       1.074   2.065  18.773  0.00  0.00    +0.000 A 
ATOM      8  C   UNL     1       0.699   2.962  19.764  0.00  0.00    +0.000 A 
ATOM      9  C   UNL     1       1.397   4.158  19.906  0.00  0.00    +0.000 A 
ATOM     10  C   UNL     1       2.487   4.458  19.051  0.00  0.00    +0.000 A 
ENDROOT
BRANCH   3  11
ATOM     11  C   UNL     1       5.679   5.239  16.299  0.00  0.00    +0.000 C 
ATOM     12 CL   UNL     1       5.261   6.585  15.176  0.00  0.00    +0.000 Cl
ATOM     13 CL   UNL     1       7.203   5.683  17.140  0.00  0.00    +0.000 Cl
ATOM     14 CL   UNL     1       5.977   3.779  15.285  0.00  0.00    +0.000 Cl
ENDBRANCH   3  11
BRANCH   1  15
ATOM     15  O   UNL     1       2.951   6.577  20.062  0.00  0.00    +0.000 OA
BRANCH  15  20
ATOM     16  C   UNL     1      -0.177  11.102  18.585  0.00  0.00    +0.000 C 
ATOM     17  C   UNL     1       0.613   9.884  18.983  0.00  0.00    +0.000 A 
ATOM     18  C   UNL     1       1.376   9.222  18.011  0.00  0.00    +0.000 A 
ATOM     19  C   UNL     1       2.135   8.101  18.343  0.00  0.00    +0.000 A 
ATOM     20  C   UNL     1       2.190   7.659  19.664  0.00  0.00    +0.000 A 
ATOM     21  C   UNL     1       1.398   8.277  20.633  0.00  0.00    +0.000 A 
ATOM     22  C   UNL     1       0.597   9.387  20.303  0.00  0.00    +0.000 A 
ATOM     23  C   UNL     1      -0.266  10.021  21.360  0.00  0.00    +0.000 C 
ENDBRANCH  15  20
ENDBRANCH   1  15
TORSDOF 3
ENDMDL
MODEL 4
REMARK VINA RESULT:      -8.4      1.078      1.172
REMARK  Name = 
REMARK  5 active torsions:
REMARK  status: ('A' for Active; 'I' for Inactive)
REMARK    1  A    between atoms: C_1  and  C_2
REMARK    2  A    between atoms: C_5  and  O_6
REMARK    3  A    between atoms: O_6  and  C_7
REMARK    4  A    between atoms: C_9  and  C_10
REMARK    5  A    between atoms: C_22  and  C_23
REMARK                            x       y       z     vdW  Elec       q    Type
REMARK                         _______ _______ _______ _____ _____    ______ ____
ROOT
ATOM      1  C   UNL     1       3.325   5.398  19.666  0.00  0.00    +0.000 A 
ATOM      2  N   UNL     1       4.577   5.801  19.370  0.00  0.00    +0.000 NA
ATOM      3  C   UNL     1       5.291   5.058  18.510  0.00  0.00    +0.000 A 
ATOM      4  N   UNL     1       4.820   3.901  17.988  0.00  0.00    +0.000 NA
ATOM      5  C   UNL     1       3.592   3.489  18.333  0.00  0.00    +0.000 A 
ATOM      6  C   UNL     1       3.119   2.292  17.810  0.00  0.00    +0.000 A 
ATOM      7  C   UNL     1       1.844   1.805  18.118  0.00  0.00    +0.000 A 
ATOM      8  C   UNL     1       1.013   2.533  18.960  0.00  0.00    +0.000 A 
ATOM      9  C   UNL     1       1.463   3.737  19.494  0.00  0.00    +0.000 A 
ATOM     10  C   UNL     1       2.761   4.217  19.188  0.00  0.00    +0.000 A 
ENDROOT
BRANCH   3  11
ATOM     11  C   UNL     1       6.672   5.558  18.056  0.00  0.00    +0.000 C 
ATOM     12 CL   UNL     1       7.840   5.740  19.417  0.00  0.00    +0.000 Cl
ATOM     13 CL   UNL     1       7.390   4.415  16.871  0.00  0.00    +0.000 Cl
ATOM     14 CL   UNL     1       6.510   7.176  17.280  0.00  0.00    +0.000 Cl
ENDBRANCH   3  11
BRANCH   1  15
ATOM     15  O   UNL     1       2.555   6.199  20.512  0.00  0.00    +0.000 OA
BRANCH  15  20
ATOM     16  C   UNL     1       0.542  11.165  18.584  0.00  0.00    +0.000 C 
ATOM     17  C   UNL     1       1.033   9.839  19.096  0.00  0.00    +0.000 A 
ATOM     18  C   UNL     1       1.775   9.012  18.240  0.00  0.00    +0.000 A 
ATOM     19  C   UNL     1       2.262   7.783  18.682  0.00  0.00    +0.000 A 
ATOM     20  C   UNL     1       2.067   7.387  20.005  0.00  0.00    +0.000 A 
ATOM     21  C   UNL     1       1.289   8.176  20.854  0.00  0.00    +0.000 A 
ATOM     22  C   UNL     1       0.758   9.401  20.408  0.00  0.00    +0.000 A 
ATOM     23  C   UNL     1      -0.097  10.222  21.336  0.00  0.00    +0.000 C 
ENDBRANCH  15  20
ENDBRANCH   1  15
TORSDOF 3
ENDMDL
MODEL 5
REMARK VINA RESULT:      -8.3      1.449      2.076
REMARK  Name = 
REMARK  5 active torsions:
REMARK  status: ('A' for Active; 'I' for Inactive)
REMARK    1  A    between atoms: C_1  and  C_2
REMARK    2  A    between atoms: C_5  and  O_6
REMARK    3  A    between atoms: O_6  and  C_7
REMARK    4  A    between atoms: C_9  and  C_10
REMARK    5  A    between atoms: C_22  and  C_23
REMARK                            x       y       z     vdW  Elec       q    Type
REMARK                         _______ _______ _______ _____ _____    ______ ____
ROOT
ATOM      1  C   UNL     1       3.342   5.917  17.975  0.00  0.00    +0.000 A 
ATOM      2  N   UNL     1       4.644   6.261  18.040  0.00  0.00    +0.000 NA
ATOM      3  C   UNL     1       5.537   5.296  18.313  0.00  0.00    +0.000 A 
ATOM      4  N   UNL     1       5.167   4.022  18.583  0.00  0.00    +0.000 NA
ATOM      5  C   UNL     1       3.865   3.709  18.565  0.00  0.00    +0.000 A 
ATOM      6  C   UNL     1       3.487   2.405  18.861  0.00  0.00    +0.000 A 
ATOM      7  C   UNL     1       2.147   2.005  18.851  0.00  0.00    +0.000 A 
ATOM      8  C   UNL     1       1.155   2.922  18.529  0.00  0.00    +0.000 A 
ATOM      9  C   UNL     1       1.508   4.234  18.226  0.00  0.00    +0.000 A 
ATOM     10  C   UNL     1       2.867   4.636  18.250  0.00  0.00    +0.000 A 
ENDROOT
BRANCH   3  11
ATOM     11  C   UNL     1       7.037   5.630  18.269  0.00  0.00    +0.000 C 
ATOM     12 CL   UNL     1       7.800   5.677  19.902  0.00  0.00    +0.000 Cl
ATOM     13 CL   UNL     1       7.919   4.409  17.290  0.00  0.00    +0.000 Cl
ATOM     14 CL   UNL     1       7.277   7.255  17.527  0.00  0.00    +0.000 Cl
ENDBRANCH   3  11
BRANCH   1  15
ATOM     15  O   UNL     1       2.414   6.902  17.632  0.00  0.00    +0.000 OA
BRANCH  15  20
ATOM     16  C   UNL     1       0.424  10.408  21.655  0.00  0.00    +0.000 C 
ATOM     17  C   UNL     1       0.983   9.509  20.586  0.00  0.00    +0.000 A 
ATOM     18  C   UNL     1       1.457   8.239  20.946  0.00  0.00    +0.000 A 
ATOM     19  C   UNL     1       1.967   7.370  19.983  0.00  0.00    +0.000 A 
ATOM     20  C   UNL     1       1.956   7.732  18.636  0.00  0.00    +0.000 A 
ATOM     21  C   UNL     1       1.533   9.011  18.269  0.00  0.00    +0.000 A 
ATOM     22  C   UNL     1       1.052   9.913  19.236  0.00  0.00    +0.000 A 
ATOM     23  C   UNL     1       0.623  11.293  18.818  0.00  0.00    +0.000 C 
ENDBRANCH  15  20
ENDBRANCH   1  15
TORSDOF 3
ENDMDL
MODEL 6
REMARK VINA RESULT:      -8.3      1.463      2.281
REMARK  Name = 
REMARK  5 active torsions:
REMARK  status: ('A' for Active; 'I' for Inactive)
REMARK    1  A    between atoms: C_1  and  C_2
REMARK    2  A    between atoms: C_5  and  O_6
REMARK    3  A    between atoms: O_6  and  C_7
REMARK    4  A    between atoms: C_9  and  C_10
REMARK    5  A    between atoms: C_22  and  C_23
REMARK                            x       y       z     vdW  Elec       q    Type
REMARK                         _______ _______ _______ _____ _____    ______ ____
ROOT
ATOM      1  C   UNL     1       3.374   5.972  17.965  0.00  0.00    +0.000 A 
ATOM      2  N   UNL     1       4.679   6.304  18.035  0.00  0.00    +0.000 NA
ATOM      3  C   UNL     1       5.563   5.331  18.308  0.00  0.00    +0.000 A 
ATOM      4  N   UNL     1       5.182   4.059  18.572  0.00  0.00    +0.000 NA
ATOM      5  C   UNL     1       3.877   3.757  18.548  0.00  0.00    +0.000 A 
ATOM      6  C   UNL     1       3.487   2.455  18.837  0.00  0.00    +0.000 A 
ATOM      7  C   UNL     1       2.144   2.066  18.822  0.00  0.00    +0.000 A 
ATOM      8  C   UNL     1       1.161   2.993  18.500  0.00  0.00    +0.000 A 
ATOM      9  C   UNL     1       1.526   4.303  18.203  0.00  0.00    +0.000 A 
ATOM     10  C   UNL     1       2.888   4.693  18.234  0.00  0.00    +0.000 A 
ENDROOT
BRANCH   3  11
ATOM     11  C   UNL     1       7.066   5.653  18.269  0.00  0.00    +0.000 C 
ATOM     12 CL   UNL     1       7.426   7.260  17.535  0.00  0.00    +0.000 Cl
ATOM     13 CL   UNL     1       7.746   5.649  19.932  0.00  0.00    +0.000 Cl
ATOM     14 CL   UNL     1       7.929   4.416  17.283  0.00  0.00    +0.000 Cl
ENDBRANCH   3  11
BRANCH   1  15
ATOM     15  O   UNL     1       2.456   6.966  17.623  0.00  0.00    +0.000 OA
BRANCH  15  20
ATOM     16  C   UNL     1       0.364  10.372  21.680  0.00  0.00    +0.000 C 
ATOM     17  C   UNL     1       0.949   9.501  20.602  0.00  0.00    +0.000 A 
ATOM     18  C   UNL     1       1.476   8.249  20.951  0.00  0.00    +0.000 A 
ATOM     19  C   UNL     1       2.011   7.405  19.980  0.00  0.00    +0.000 A 
ATOM     20  C   UNL     1       1.974   7.773  18.635  0.00  0.00    +0.000 A 
ATOM     21  C   UNL     1       1.499   9.036  18.278  0.00  0.00    +0.000 A 
ATOM     22  C   UNL     1       0.991   9.914  19.254  0.00  0.00    +0.000 A 
ATOM     23  C   UNL     1       0.505  11.278  18.846  0.00  0.00    +0.000 C 
ENDBRANCH  15  20
ENDBRANCH   1  15
TORSDOF 3
ENDMDL
MODEL 7
REMARK VINA RESULT:      -8.2      1.449      2.306
REMARK  Name = 
REMARK  5 active torsions:
REMARK  status: ('A' for Active; 'I' for Inactive)
REMARK    1  A    between atoms: C_1  and  C_2
REMARK    2  A    between atoms: C_5  and  O_6
REMARK    3  A    between atoms: O_6  and  C_7
REMARK    4  A    between atoms: C_9  and  C_10
REMARK    5  A    between atoms: C_22  and  C_23
REMARK                            x       y       z     vdW  Elec       q    Type
REMARK                         _______ _______ _______ _____ _____    ______ ____
ROOT
ATOM      1  C   UNL     1       3.358   5.947  17.956  0.00  0.00    +0.000 A 
ATOM      2  N   UNL     1       4.664   6.274  18.020  0.00  0.00    +0.000 NA
ATOM      3  C   UNL     1       5.544   5.297  18.296  0.00  0.00    +0.000 A 
ATOM      4  N   UNL     1       5.157   4.029  18.569  0.00  0.00    +0.000 NA
ATOM      5  C   UNL     1       3.850   3.734  18.551  0.00  0.00    +0.000 A 
ATOM      6  C   UNL     1       3.455   2.436  18.849  0.00  0.00    +0.000 A 
ATOM      7  C   UNL     1       2.109   2.054  18.841  0.00  0.00    +0.000 A 
ATOM      8  C   UNL     1       1.130   2.984  18.517  0.00  0.00    +0.000 A 
ATOM      9  C   UNL     1       1.501   4.291  18.211  0.00  0.00    +0.000 A 
ATOM     10  C   UNL     1       2.866   4.674  18.234  0.00  0.00    +0.000 A 
ENDROOT
BRANCH   3  11
ATOM     11  C   UNL     1       7.049   5.611  18.250  0.00  0.00    +0.000 C 
ATOM     12 CL   UNL     1       8.003   4.371  17.355  0.00  0.00    +0.000 Cl
ATOM     13 CL   UNL     1       7.330   7.196  17.454  0.00  0.00    +0.000 Cl
ATOM     14 CL   UNL     1       7.708   5.676  19.926  0.00  0.00    +0.000 Cl
ENDBRANCH   3  11
BRANCH   1  15
ATOM     15  O   UNL     1       2.443   6.944  17.610  0.00  0.00    +0.000 OA
BRANCH  15  20
ATOM     16  C   UNL     1       0.376  10.381  21.655  0.00  0.00    +0.000 C 
ATOM     17  C   UNL     1       0.954   9.501  20.580  0.00  0.00    +0.000 A 
ATOM     18  C   UNL     1       1.465   8.244  20.933  0.00  0.00    +0.000 A 
ATOM     19  C   UNL     1       1.994   7.392  19.965  0.00  0.00    +0.000 A 
ATOM     20  C   UNL     1       1.967   7.759  18.620  0.00  0.00    +0.000 A 
ATOM     21  C   UNL     1       1.508   9.026  18.259  0.00  0.00    +0.000 A 
ATOM     22  C   UNL     1       1.007   9.912  19.232  0.00  0.00    +0.000 A 
ATOM     23  C   UNL     1       0.539  11.281  18.820  0.00  0.00    +0.000 C 
ENDBRANCH  15  20
ENDBRANCH   1  15
TORSDOF 3
ENDMDL
MODEL 8
REMARK VINA RESULT:      -8.1      2.558      4.270
REMARK  Name = 
REMARK  5 active torsions:
REMARK  status: ('A' for Active; 'I' for Inactive)
REMARK    1  A    between atoms: C_1  and  C_2
REMARK    2  A    between atoms: C_5  and  O_6
REMARK    3  A    between atoms: O_6  and  C_7
REMARK    4  A    between atoms: C_9  and  C_10
REMARK    5  A    between atoms: C_22  and  C_23
REMARK                            x       y       z     vdW  Elec       q    Type
REMARK                         _______ _______ _______ _____ _____    ______ ____
ROOT
ATOM      1  C   UNL     1       3.544   6.070  17.880  0.00  0.00    +0.000 A 
ATOM      2  N   UNL     1       2.846   4.970  18.228  0.00  0.00    +0.000 NA
ATOM      3  C   UNL     1       3.534   3.889  18.628  0.00  0.00    +0.000 A 
ATOM      4  N   UNL     1       4.887   3.851  18.633  0.00  0.00    +0.000 NA
ATOM      5  C   UNL     1       5.565   4.936  18.235  0.00  0.00    +0.000 A 
ATOM      6  C   UNL     1       6.954   4.888  18.224  0.00  0.00    +0.000 A 
ATOM      7  C   UNL     1       7.726   5.986  17.830  0.00  0.00    +0.000 A 
ATOM      8  C   UNL     1       7.103   7.166  17.447  0.00  0.00    +0.000 A 
ATOM      9  C   UNL     1       5.713   7.241  17.453  0.00  0.00    +0.000 A 
ATOM     10  C   UNL     1       4.937   6.120  17.841  0.00  0.00    +0.000 A 
ENDROOT
BRANCH   3  11
ATOM     11  C   UNL     1       2.765   2.664  19.151  0.00  0.00    +0.000 C 
ATOM     12 CL   UNL     1       1.049   2.620  18.601  0.00  0.00    +0.000 Cl
ATOM     13 CL   UNL     1       3.554   1.149  18.596  0.00  0.00    +0.000 Cl
ATOM     14 CL   UNL     1       2.741   2.683  20.953  0.00  0.00    +0.000 Cl
ENDBRANCH   3  11
BRANCH   1  15
ATOM     15  O   UNL     1       2.835   7.217  17.520  0.00  0.00    +0.000 OA
BRANCH  15  20
ATOM     16  C   UNL     1      -0.030  10.096  21.513  0.00  0.00    +0.000 C 
ATOM     17  C   UNL     1       0.755   9.368  20.456  0.00  0.00    +0.000 A 
ATOM     18  C   UNL     1       1.411   8.176  20.797  0.00  0.00    +0.000 A 
ATOM     19  C   UNL     1       2.134   7.463  19.843  0.00  0.00    +0.000 A 
ATOM     20  C   UNL     1       2.165   7.898  18.518  0.00  0.00    +0.000 A 
ATOM     21  C   UNL     1       1.560   9.108  18.175  0.00  0.00    +0.000 A 
ATOM     22  C   UNL     1       0.858   9.858  19.138  0.00  0.00    +0.000 A 
ATOM     23  C   UNL     1       0.234  11.170  18.748  0.00  0.00    +0.000 C 
ENDBRANCH  15  20
ENDBRANCH   1  15
TORSDOF 3
ENDMDL
MODEL 9
REMARK VINA RESULT:      -8.1      2.557      4.253
REMARK  Name = 
REMARK  5 active torsions:
REMARK  status: ('A' for Active; 'I' for Inactive)
REMARK    1  A    between atoms: C_1  and  C_2
REMARK    2  A    between atoms: C_5  and  O_6
REMARK    3  A    between atoms: O_6  and  C_7
REMARK    4  A    between atoms: C_9  and  C_10
REMARK    5  A    between atoms: C_22  and  C_23
REMARK                            x       y       z     vdW  Elec       q    Type
REMARK                         _______ _______ _______ _____ _____    ______ ____
ROOT
ATOM      1  C   UNL     1       3.544   6.088  17.891  0.00  0.00    +0.000 A 
ATOM      2  N   UNL     1       2.828   4.999  18.239  0.00  0.00    +0.000 NA
ATOM      3  C   UNL     1       3.499   3.905  18.633  0.00  0.00    +0.000 A 
ATOM      4  N   UNL     1       4.852   3.843  18.630  0.00  0.00    +0.000 NA
ATOM      5  C   UNL     1       5.546   4.918  18.232  0.00  0.00    +0.000 A 
ATOM      6  C   UNL     1       6.934   4.845  18.212  0.00  0.00    +0.000 A 
ATOM      7  C   UNL     1       7.724   5.930  17.817  0.00  0.00    +0.000 A 
ATOM      8  C   UNL     1       7.119   7.123  17.442  0.00  0.00    +0.000 A 
ATOM      9  C   UNL     1       5.731   7.222  17.456  0.00  0.00    +0.000 A 
ATOM     10  C   UNL     1       4.937   6.114  17.845  0.00  0.00    +0.000 A 
ENDROOT
BRANCH   3  11
ATOM     11  C   UNL     1       2.711   2.693  19.156  0.00  0.00    +0.000 C 
ATOM     12 CL   UNL     1       2.626   2.628  20.956  0.00  0.00    +0.000 Cl
ATOM     13 CL   UNL     1       1.027   2.728  18.531  0.00  0.00    +0.000 Cl
ATOM     14 CL   UNL     1       3.504   1.169  18.610  0.00  0.00    +0.000 Cl
ENDBRANCH   3  11
BRANCH   1  15
ATOM     15  O   UNL     1       2.853   7.249  17.539  0.00  0.00    +0.000 OA
BRANCH  15  20
ATOM     16  C   UNL     1      -0.097  10.056  21.520  0.00  0.00    +0.000 C 
ATOM     17  C   UNL     1       0.710   9.348  20.466  0.00  0.00    +0.000 A 
ATOM     18  C   UNL     1       1.389   8.170  20.809  0.00  0.00    +0.000 A 
ATOM     19  C   UNL     1       2.133   7.474  19.858  0.00  0.00    +0.000 A 
ATOM     20  C   UNL     1       2.163   7.913  18.534  0.00  0.00    +0.000 A 
ATOM     21  C   UNL     1       1.534   9.110  18.190  0.00  0.00    +0.000 A 
ATOM     22  C   UNL     1       0.811   9.843  19.150  0.00  0.00    +0.000 A 
ATOM     23  C   UNL     1       0.161  11.143  18.759  0.00  0.00    +0.000 C 
ENDBRANCH  15  20
ENDBRANCH   1  15
TORSDOF 3
ENDMDL
