MODEL 1
REMARK VINA RESULT:      -8.2      0.000      0.000
REMARK  Name = 
REMARK  7 active torsions:
REMARK  status: ('A' for Active; 'I' for Inactive)
REMARK    1  A    between atoms: S_2  and  C_4
REMARK    2  A    between atoms: S_2  and  N_12
REMARK    3  A    between atoms: C_5  and  C_6
REMARK    4  A    between atoms: C_15  and  C_16
REMARK    5  A    between atoms: C_18  and  O_19
REMARK    6  A    between atoms: N_23  and  C_24
REMARK    7  A    between atoms: C_24  and  C_25
REMARK                            x       y       z     vdW  Elec       q    Type
REMARK                         _______ _______ _______ _____ _____    ______ ____
ROOT
ATOM      1  C   UNL     1      -3.381  12.401  19.919  0.00  0.00    +0.000 A 
ATOM      2  N   UNL     1      -3.724  11.959  18.681  0.00  0.00    +0.000 NA
ATOM      3  C   UNL     1      -5.015  11.703  18.433  0.00  0.00    +0.000 A 
ATOM      4  C   UNL     1      -5.985  11.892  19.401  0.00  0.00    +0.000 A 
ATOM      5  N   UNL     1      -7.345  11.770  19.394  0.00  0.00    +0.000 NA
ATOM      6  N   UNL     1      -7.781  12.087  20.602  0.00  0.00    +0.000 NA
ATOM      7  N   UNL     1      -6.698  12.299  21.390  0.00  0.00    +0.000 N 
ATOM      8  C   UNL     1      -5.530  12.290  20.654  0.00  0.00    +0.000 A 
ATOM      9  N   UNL     1      -4.232  12.566  20.980  0.00  0.00    +0.000 NA
ENDROOT
BRANCH   1  13
ATOM     10  N   UNL     1      -0.281  10.707  21.363  0.00  0.00    +0.000 NA
ATOM     11  C   UNL     1      -0.752  10.470  19.974  0.00  0.00    +0.000 C 
ATOM     12  C   UNL     1      -0.966  11.790  19.260  0.00  0.00    +0.000 C 
ATOM     13  C   UNL     1      -1.894  12.723  20.038  0.00  0.00    +0.000 C 
ATOM     14  C   UNL     1      -1.396  12.899  21.475  0.00  0.00    +0.000 C 
ATOM     15  C   UNL     1      -1.175  11.568  22.174  0.00  0.00    +0.000 C 
BRANCH  10  17
ATOM     16  O   UNL     1      -0.897   8.378  22.234  0.00  0.00    +0.000 OA
ATOM     17  S   UNL     1       0.240   9.275  22.154  0.00  0.00    +0.000 S 
ATOM     18  O   UNL     1       0.934   9.678  23.358  0.00  0.00    +0.000 OA
BRANCH  17  19
ATOM     19  C   UNL     1       1.371   8.598  21.039  0.00  0.00    +0.000 C 
ATOM     20  C   UNL     1       1.419   7.290  20.741  0.00  0.00    +0.000 C 
BRANCH  20  21
ATOM     21  C   UNL     1       2.367   6.747  19.749  0.00  0.00    +0.000 A 
ATOM     22  C   UNL     1       2.696   7.466  18.594  0.00  0.00    +0.000 A 
ATOM     23  C   UNL     1       3.445   6.893  17.577  0.00  0.00    +0.000 A 
ATOM     24  C   UNL     1       3.963   5.613  17.735  0.00  0.00    +0.000 A 
ATOM     25  C   UNL     1       3.728   4.913  18.914  0.00  0.00    +0.000 A 
ATOM     26  C   UNL     1       2.910   5.465  19.906  0.00  0.00    +0.000 A 
ENDBRANCH  20  21
ENDBRANCH  17  19
ENDBRANCH  10  17
ENDBRANCH   1  13
BRANCH   3  27
ATOM     27  O   UNL     1      -5.285  11.253  17.174  0.00  0.00    +0.000 OA
ATOM     28  H   UNL     1      -5.966  11.885  16.888  0.00  0.00    +0.000 HD
ENDBRANCH   3  27
BRANCH   7  29
ATOM     29  C   UNL     1      -6.919  12.502  22.814  0.00  0.00    +0.000 C 
BRANCH  29  30
ATOM     30  C   UNL     1      -5.840  13.312  23.534  0.00  0.00    +0.000 A 
ATOM     31  C   UNL     1      -4.824  12.718  24.291  0.00  0.00    +0.000 A 
ATOM     32  C   UNL     1      -3.692  13.446  24.678  0.00  0.00    +0.000 A 
ATOM     33  C   UNL     1      -3.528  14.754  24.247  0.00  0.00    +0.000 A 
ATOM     34  F   UNL     1      -2.379  15.399  24.483  0.00  0.00    +0.000 F 
ATOM     35  C   UNL     1      -4.553  15.398  23.583  0.00  0.00    +0.000 A 
ATOM     36  C   UNL     1      -5.735  14.693  23.320  0.00  0.00    +0.000 A 
ENDBRANCH  29  30
ENDBRANCH   7  29
TORSDOF 7
ENDMDL
MODEL 2
REMARK VINA RESULT:      -8.1      1.102      1.656
REMARK  Name = 
REMARK  7 active torsions:
REMARK  status: ('A' for Active; 'I' for Inactive)
REMARK    1  A    between atoms: S_2  and  C_4
REMARK    2  A    between atoms: S_2  and  N_12
REMARK    3  A    between atoms: C_5  and  C_6
REMARK    4  A    between atoms: C_15  and  C_16
REMARK    5  A    between atoms: C_18  and  O_19
REMARK    6  A    between atoms: N_23  and  C_24
REMARK    7  A    between atoms: C_24  and  C_25
REMARK                            x       y       z     vdW  Elec       q    Type
REMARK                         _______ _______ _______ _____ _____    ______ ____
ROOT
ATOM      1  C   UNL     1      -2.745  12.133  18.923  0.00  0.00    +0.000 A 
ATOM      2  N   UNL     1      -3.028  11.639  17.690  0.00  0.00    +0.000 NA
ATOM      3  C   UNL     1      -4.310  11.417  17.373  0.00  0.00    +0.000 A 
ATOM      4  C   UNL     1      -5.330  11.693  18.267  0.00  0.00    +0.000 A 
ATOM      5  N   UNL     1      -6.691  11.620  18.180  0.00  0.00    +0.000 NA
ATOM      6  N   UNL     1      -7.188  12.016  19.339  0.00  0.00    +0.000 NA
ATOM      7  N   UNL     1      -6.148  12.230  20.184  0.00  0.00    +0.000 N 
ATOM      8  C   UNL     1      -4.938  12.140  19.524  0.00  0.00    +0.000 A 
ATOM      9  N   UNL     1      -3.652  12.385  19.918  0.00  0.00    +0.000 NA
ENDROOT
BRANCH   1  13
ATOM     10  N   UNL     1       0.101  10.648  20.985  0.00  0.00    +0.000 NA
ATOM     11  C   UNL     1      -0.260  10.143  19.635  0.00  0.00    +0.000 C 
ATOM     12  C   UNL     1      -0.326  11.290  18.646  0.00  0.00    +0.000 C 
ATOM     13  C   UNL     1      -1.257  12.407  19.120  0.00  0.00    +0.000 C 
ATOM     14  C   UNL     1      -0.876  12.861  20.532  0.00  0.00    +0.000 C 
ATOM     15  C   UNL     1      -0.803  11.699  21.508  0.00  0.00    +0.000 C 
BRANCH  10  17
ATOM     16  O   UNL     1      -0.711   9.203  22.939  0.00  0.00    +0.000 OA
ATOM     17  S   UNL     1       0.459   9.392  22.102  0.00  0.00    +0.000 S 
ATOM     18  O   UNL     1       1.739   9.704  22.701  0.00  0.00    +0.000 OA
BRANCH  17  19
ATOM     19  C   UNL     1       0.619   8.001  21.093  0.00  0.00    +0.000 C 
ATOM     20  C   UNL     1       1.797   7.416  20.828  0.00  0.00    +0.000 C 
BRANCH  20  21
ATOM     21  C   UNL     1       1.899   6.199  19.998  0.00  0.00    +0.000 A 
ATOM     22  C   UNL     1       1.451   4.961  20.473  0.00  0.00    +0.000 A 
ATOM     23  C   UNL     1       1.701   3.788  19.776  0.00  0.00    +0.000 A 
ATOM     24  C   UNL     1       2.325   3.840  18.535  0.00  0.00    +0.000 A 
ATOM     25  C   UNL     1       2.696   5.068  17.998  0.00  0.00    +0.000 A 
ATOM     26  C   UNL     1       2.510   6.242  18.738  0.00  0.00    +0.000 A 
ENDBRANCH  20  21
ENDBRANCH  17  19
ENDBRANCH  10  17
ENDBRANCH   1  13
BRANCH   3  27
ATOM     27  O   UNL     1      -4.521  10.912  16.124  0.00  0.00    +0.000 OA
ATOM     28  H   UNL     1      -3.609  10.804  15.806  0.00  0.00    +0.000 HD
ENDBRANCH   3  27
BRANCH   7  29
ATOM     29  C   UNL     1      -6.448  12.517  21.578  0.00  0.00    +0.000 C 
BRANCH  29  30
ATOM     30  C   UNL     1      -5.391  13.336  22.320  0.00  0.00    +0.000 A 
ATOM     31  C   UNL     1      -5.325  14.732  22.248  0.00  0.00    +0.000 A 
ATOM     32  C   UNL     1      -4.559  15.467  23.160  0.00  0.00    +0.000 A 
ATOM     33  C   UNL     1      -3.913  14.820  24.203  0.00  0.00    +0.000 A 
ATOM     34  F   UNL     1      -3.310  15.531  25.164  0.00  0.00    +0.000 F 
ATOM     35  C   UNL     1      -3.878  13.440  24.245  0.00  0.00    +0.000 A 
ATOM     36  C   UNL     1      -4.541  12.717  23.245  0.00  0.00    +0.000 A 
ENDBRANCH  29  30
ENDBRANCH   7  29
TORSDOF 7
ENDMDL
MODEL 3
REMARK VINA RESULT:      -8.1      1.274      1.437
REMARK  Name = 
REMARK  7 active torsions:
REMARK  status: ('A' for Active; 'I' for Inactive)
REMARK    1  A    between atoms: S_2  and  C_4
REMARK    2  A    between atoms: S_2  and  N_12
REMARK    3  A    between atoms: C_5  and  C_6
REMARK    4  A    between atoms: C_15  and  C_16
REMARK    5  A    between atoms: C_18  and  O_19
REMARK    6  A    between atoms: N_23  and  C_24
REMARK    7  A    between atoms: C_24  and  C_25
REMARK                            x       y       z     vdW  Elec       q    Type
REMARK                         _______ _______ _______ _____ _____    ______ ____
ROOT
ATOM      1  C   UNL     1      -2.750  12.077  18.838  0.00  0.00    +0.000 A 
ATOM      2  N   UNL     1      -2.993  11.583  17.596  0.00  0.00    +0.000 NA
ATOM      3  C   UNL     1      -4.260  11.314  17.255  0.00  0.00    +0.000 A 
ATOM      4  C   UNL     1      -5.305  11.543  18.133  0.00  0.00    +0.000 A 
ATOM      5  N   UNL     1      -6.660  11.419  18.021  0.00  0.00    +0.000 NA
ATOM      6  N   UNL     1      -7.192  11.786  19.175  0.00  0.00    +0.000 NA
ATOM      7  N   UNL     1      -6.176  12.033  20.039  0.00  0.00    +0.000 N 
ATOM      8  C   UNL     1      -4.952  11.995  19.401  0.00  0.00    +0.000 A 
ATOM      9  N   UNL     1      -3.684  12.286  19.818  0.00  0.00    +0.000 NA
ENDROOT
BRANCH   1  13
ATOM     10  N   UNL     1       0.152  10.597  20.825  0.00  0.00    +0.000 NA
ATOM     11  C   UNL     1      -0.179  10.162  19.444  0.00  0.00    +0.000 C 
ATOM     12  C   UNL     1      -0.293  11.366  18.528  0.00  0.00    +0.000 C 
ATOM     13  C   UNL     1      -1.277  12.406  19.063  0.00  0.00    +0.000 C 
ATOM     14  C   UNL     1      -0.925  12.787  20.504  0.00  0.00    +0.000 C 
ATOM     15  C   UNL     1      -0.803  11.571  21.407  0.00  0.00    +0.000 C 
BRANCH  10  17
ATOM     16  O   UNL     1      -0.652   8.867  22.536  0.00  0.00    +0.000 OA
ATOM     17  S   UNL     1       0.562   9.292  21.864  0.00  0.00    +0.000 S 
ATOM     18  O   UNL     1       1.713   9.705  22.637  0.00  0.00    +0.000 OA
BRANCH  17  19
ATOM     19  C   UNL     1       1.024   8.044  20.765  0.00  0.00    +0.000 C 
ATOM     20  C   UNL     1       1.365   6.807  21.158  0.00  0.00    +0.000 C 
BRANCH  20  21
ATOM     21  C   UNL     1       1.713   5.746  20.192  0.00  0.00    +0.000 A 
ATOM     22  C   UNL     1       2.458   6.032  19.041  0.00  0.00    +0.000 A 
ATOM     23  C   UNL     1       2.639   5.084  18.046  0.00  0.00    +0.000 A 
ATOM     24  C   UNL     1       2.156   3.793  18.223  0.00  0.00    +0.000 A 
ATOM     25  C   UNL     1       1.494   3.457  19.400  0.00  0.00    +0.000 A 
ATOM     26  C   UNL     1       1.248   4.436  20.369  0.00  0.00    +0.000 A 
ENDBRANCH  20  21
ENDBRANCH  17  19
ENDBRANCH  10  17
ENDBRANCH   1  13
BRANCH   3  27
ATOM     27  O   UNL     1      -4.428  10.811  15.999  0.00  0.00    +0.000 OA
ATOM     28  H   UNL     1      -3.886  11.423  15.475  0.00  0.00    +0.000 HD
ENDBRANCH   3  27
BRANCH   7  29
ATOM     29  C   UNL     1      -6.511  12.297  21.430  0.00  0.00    +0.000 C 
BRANCH  29  30
ATOM     30  C   UNL     1      -5.633  13.335  22.129  0.00  0.00    +0.000 A 
ATOM     31  C   UNL     1      -4.686  12.996  23.103  0.00  0.00    +0.000 A 
ATOM     32  C   UNL     1      -3.699  13.906  23.498  0.00  0.00    +0.000 A 
ATOM     33  C   UNL     1      -3.599  15.139  22.868  0.00  0.00    +0.000 A 
ATOM     34  F   UNL     1      -2.565  15.946  23.133  0.00  0.00    +0.000 F 
ATOM     35  C   UNL     1      -4.573  15.540  21.976  0.00  0.00    +0.000 A 
ATOM     36  C   UNL     1      -5.631  14.666  21.692  0.00  0.00    +0.000 A 
ENDBRANCH  29  30
ENDBRANCH   7  29
TORSDOF 7
ENDMDL
MODEL 4
REMARK VINA RESULT:      -8.1      0.988      1.358
REMARK  Name = 
REMARK  7 active torsions:
REMARK  status: ('A' for Active; 'I' for Inactive)
REMARK    1  A    between atoms: S_2  and  C_4
REMARK    2  A    between atoms: S_2  and  N_12
REMARK    3  A    between atoms: C_5  and  C_6
REMARK    4  A    between atoms: C_15  and  C_16
REMARK    5  A    between atoms: C_18  and  O_19
REMARK    6  A    between atoms: N_23  and  C_24
REMARK    7  A    between atoms: C_24  and  C_25
REMARK                            x       y       z     vdW  Elec       q    Type
REMARK                         _______ _______ _______ _____ _____    ______ ____
ROOT
ATOM      1  C   UNL     1      -3.031  12.340  19.754  0.00  0.00    +0.000 A 
ATOM      2  N   UNL     1      -3.633  11.886  18.624  0.00  0.00    +0.000 NA
ATOM      3  C   UNL     1      -4.968  11.777  18.615  0.00  0.00    +0.000 A 
ATOM      4  C   UNL     1      -5.725  12.128  19.719  0.00  0.00    +0.000 A 
ATOM      5  N   UNL     1      -7.070  12.172  19.950  0.00  0.00    +0.000 NA
ATOM      6  N   UNL     1      -7.249  12.594  21.190  0.00  0.00    +0.000 NA
ATOM      7  N   UNL     1      -6.028  12.710  21.768  0.00  0.00    +0.000 N 
ATOM      8  C   UNL     1      -5.016  12.525  20.847  0.00  0.00    +0.000 A 
ATOM      9  N   UNL     1      -3.658  12.656  20.930  0.00  0.00    +0.000 NA
ENDROOT
BRANCH   1  13
ATOM     10  N   UNL     1       0.071  10.424  20.881  0.00  0.00    +0.000 NA
ATOM     11  C   UNL     1      -0.652  10.111  19.621  0.00  0.00    +0.000 C 
ATOM     12  C   UNL     1      -0.843  11.370  18.799  0.00  0.00    +0.000 C 
ATOM     13  C   UNL     1      -1.520  12.484  19.598  0.00  0.00    +0.000 C 
ATOM     14  C   UNL     1      -0.768  12.738  20.908  0.00  0.00    +0.000 C 
ATOM     15  C   UNL     1      -0.574  11.465  21.715  0.00  0.00    +0.000 C 
BRANCH  10  17
ATOM     16  O   UNL     1      -0.631   8.275  22.086  0.00  0.00    +0.000 OA
ATOM     17  S   UNL     1       0.564   9.022  21.742  0.00  0.00    +0.000 S 
ATOM     18  O   UNL     1       1.474   9.456  22.781  0.00  0.00    +0.000 OA
BRANCH  17  19
ATOM     19  C   UNL     1       1.433   8.116  20.558  0.00  0.00    +0.000 C 
ATOM     20  C   UNL     1       1.597   6.786  20.623  0.00  0.00    +0.000 C 
BRANCH  20  21
ATOM     21  C   UNL     1       2.306   6.031  19.571  0.00  0.00    +0.000 A 
ATOM     22  C   UNL     1       3.272   6.647  18.767  0.00  0.00    +0.000 A 
ATOM     23  C   UNL     1       3.815   5.998  17.667  0.00  0.00    +0.000 A 
ATOM     24  C   UNL     1       3.471   4.678  17.403  0.00  0.00    +0.000 A 
ATOM     25  C   UNL     1       2.584   4.013  18.244  0.00  0.00    +0.000 A 
ATOM     26  C   UNL     1       1.982   4.694  19.307  0.00  0.00    +0.000 A 
ENDBRANCH  20  21
ENDBRANCH  17  19
ENDBRANCH  10  17
ENDBRANCH   1  13
BRANCH   3  27
ATOM     27  O   UNL     1      -5.503  11.306  17.453  0.00  0.00    +0.000 OA
ATOM     28  H   UNL     1      -6.339  10.926  17.770  0.00  0.00    +0.000 HD
ENDBRANCH   3  27
BRANCH   7  29
ATOM     29  C   UNL     1      -5.971  13.004  23.192  0.00  0.00    +0.000 C 
BRANCH  29  30
ATOM     30  C   UNL     1      -5.370  14.362  23.556  0.00  0.00    +0.000 A 
ATOM     31  C   UNL     1      -6.099  15.555  23.500  0.00  0.00    +0.000 A 
ATOM     32  C   UNL     1      -5.629  16.719  24.120  0.00  0.00    +0.000 A 
ATOM     33  C   UNL     1      -4.462  16.683  24.870  0.00  0.00    +0.000 A 
ATOM     34  F   UNL     1      -4.094  17.749  25.590  0.00  0.00    +0.000 F 
ATOM     35  C   UNL     1      -3.671  15.551  24.865  0.00  0.00    +0.000 A 
ATOM     36  C   UNL     1      -4.093  14.436  24.127  0.00  0.00    +0.000 A 
ENDBRANCH  29  30
ENDBRANCH   7  29
TORSDOF 7
ENDMDL
MODEL 5
REMARK VINA RESULT:      -8.0      1.763      2.244
REMARK  Name = 
REMARK  7 active torsions:
REMARK  status: ('A' for Active; 'I' for Inactive)
REMARK    1  A    between atoms: S_2  and  C_4
REMARK    2  A    between atoms: S_2  and  N_12
REMARK    3  A    between atoms: C_5  and  C_6
REMARK    4  A    between atoms: C_15  and  C_16
REMARK    5  A    between atoms: C_18  and  O_19
REMARK    6  A    between atoms: N_23  and  C_24
REMARK    7  A    between atoms: C_24  and  C_25
REMARK                            x       y       z     vdW  Elec       q    Type
REMARK                         _______ _______ _______ _____ _____    ______ ____
ROOT
ATOM      1  C   UNL     1      -1.774  11.932  18.628  0.00  0.00    +0.000 A 
ATOM      2  N   UNL     1      -2.001  11.056  17.615  0.00  0.00    +0.000 NA
ATOM      3  C   UNL     1      -3.265  10.860  17.216  0.00  0.00    +0.000 A 
ATOM      4  C   UNL     1      -4.318  11.537  17.806  0.00  0.00    +0.000 A 
ATOM      5  N   UNL     1      -5.660  11.570  17.557  0.00  0.00    +0.000 NA
ATOM      6  N   UNL     1      -6.207  12.403  18.425  0.00  0.00    +0.000 NA
ATOM      7  N   UNL     1      -5.236  12.806  19.282  0.00  0.00    +0.000 N 
ATOM      8  C   UNL     1      -3.991  12.367  18.873  0.00  0.00    +0.000 A 
ATOM      9  N   UNL     1      -2.729  12.612  19.335  0.00  0.00    +0.000 NA
ENDROOT
BRANCH   1  13
ATOM     10  N   UNL     1       0.799  10.358  20.966  0.00  0.00    +0.000 NA
ATOM     11  C   UNL     1       0.503   9.814  19.615  0.00  0.00    +0.000 C 
ATOM     12  C   UNL     1       0.593  10.913  18.575  0.00  0.00    +0.000 C 
ATOM     13  C   UNL     1      -0.288  12.113  18.926  0.00  0.00    +0.000 C 
ATOM     14  C   UNL     1       0.019  12.608  20.342  0.00  0.00    +0.000 C 
ATOM     15  C   UNL     1      -0.063  11.493  21.371  0.00  0.00    +0.000 C 
BRANCH  10  17
ATOM     16  O   UNL     1      -0.180   9.192  23.026  0.00  0.00    +0.000 OA
ATOM     17  S   UNL     1       0.983   9.138  22.160  0.00  0.00    +0.000 S 
ATOM     18  O   UNL     1       2.311   9.280  22.717  0.00  0.00    +0.000 OA
BRANCH  17  19
ATOM     19  C   UNL     1       0.895   7.676  21.247  0.00  0.00    +0.000 C 
ATOM     20  C   UNL     1       1.978   6.989  20.852  0.00  0.00    +0.000 C 
BRANCH  20  21
ATOM     21  C   UNL     1       1.872   5.717  20.110  0.00  0.00    +0.000 A 
ATOM     22  C   UNL     1       2.219   5.639  18.756  0.00  0.00    +0.000 A 
ATOM     23  C   UNL     1       1.958   4.499  18.010  0.00  0.00    +0.000 A 
ATOM     24  C   UNL     1       1.428   3.372  18.628  0.00  0.00    +0.000 A 
ATOM     25  C   UNL     1       1.162   3.393  19.994  0.00  0.00    +0.000 A 
ATOM     26  C   UNL     1       1.356   4.569  20.728  0.00  0.00    +0.000 A 
ENDBRANCH  20  21
ENDBRANCH  17  19
ENDBRANCH  10  17
ENDBRANCH   1  13
BRANCH   3  27
ATOM     27  O   UNL     1      -3.421   9.961  16.203  0.00  0.00    +0.000 OA
ATOM     28  H   UNL     1      -3.200   9.128  16.651  0.00  0.00    +0.000 HD
ENDBRANCH   3  27
BRANCH   7  29
ATOM     29  C   UNL     1      -5.627  13.604  20.433  0.00  0.00    +0.000 C 
BRANCH  29  30
ATOM     30  C   UNL     1      -5.289  12.996  21.795  0.00  0.00    +0.000 A 
ATOM     31  C   UNL     1      -3.984  12.930  22.294  0.00  0.00    +0.000 A 
ATOM     32  C   UNL     1      -3.739  12.657  23.645  0.00  0.00    +0.000 A 
ATOM     33  C   UNL     1      -4.800  12.524  24.529  0.00  0.00    +0.000 A 
ATOM     34  F   UNL     1      -4.570  12.419  25.843  0.00  0.00    +0.000 F 
ATOM     35  C   UNL     1      -6.096  12.487  24.054  0.00  0.00    +0.000 A 
ATOM     36  C   UNL     1      -6.314  12.629  22.677  0.00  0.00    +0.000 A 
ENDBRANCH  29  30
ENDBRANCH   7  29
TORSDOF 7
ENDMDL
MODEL 6
REMARK VINA RESULT:      -8.0      1.394      1.901
REMARK  Name = 
REMARK  7 active torsions:
REMARK  status: ('A' for Active; 'I' for Inactive)
REMARK    1  A    between atoms: S_2  and  C_4
REMARK    2  A    between atoms: S_2  and  N_12
REMARK    3  A    between atoms: C_5  and  C_6
REMARK    4  A    between atoms: C_15  and  C_16
REMARK    5  A    between atoms: C_18  and  O_19
REMARK    6  A    between atoms: N_23  and  C_24
REMARK    7  A    between atoms: C_24  and  C_25
REMARK                            x       y       z     vdW  Elec       q    Type
REMARK                         _______ _______ _______ _____ _____    ______ ____
ROOT
ATOM      1  C   UNL     1      -2.127  12.164  18.803  0.00  0.00    +0.000 A 
ATOM      2  N   UNL     1      -2.130  11.806  17.493  0.00  0.00    +0.000 NA
ATOM      3  C   UNL     1      -3.307  11.549  16.907  0.00  0.00    +0.000 A 
ATOM      4  C   UNL     1      -4.497  11.656  17.606  0.00  0.00    +0.000 A 
ATOM      5  N   UNL     1      -5.806  11.515  17.244  0.00  0.00    +0.000 NA
ATOM      6  N   UNL     1      -6.544  11.740  18.318  0.00  0.00    +0.000 NA
ATOM      7  N   UNL     1      -5.704  11.912  19.369  0.00  0.00    +0.000 N 
ATOM      8  C   UNL     1      -4.387  11.971  18.956  0.00  0.00    +0.000 A 
ATOM      9  N   UNL     1      -3.224  12.242  19.620  0.00  0.00    +0.000 NA
ENDROOT
BRANCH   1  13
ATOM     10  N   UNL     1       0.486  10.491  21.025  0.00  0.00    +0.000 NA
ATOM     11  C   UNL     1       0.408  10.255  19.560  0.00  0.00    +0.000 C 
ATOM     12  C   UNL     1       0.382  11.576  18.816  0.00  0.00    +0.000 C 
ATOM     13  C   UNL     1      -0.730  12.498  19.318  0.00  0.00    +0.000 C 
ATOM     14  C   UNL     1      -0.638  12.673  20.836  0.00  0.00    +0.000 C 
ATOM     15  C   UNL     1      -0.601  11.341  21.567  0.00  0.00    +0.000 C 
BRANCH  10  17
ATOM     16  O   UNL     1      -0.489   8.423  22.181  0.00  0.00    +0.000 OA
ATOM     17  S   UNL     1       0.789   9.060  21.924  0.00  0.00    +0.000 S 
ATOM     18  O   UNL     1       1.655   9.421  23.026  0.00  0.00    +0.000 OA
BRANCH  17  19
ATOM     19  C   UNL     1       1.659   8.070  20.809  0.00  0.00    +0.000 C 
ATOM     20  C   UNL     1       1.522   6.737  20.746  0.00  0.00    +0.000 C 
BRANCH  20  21
ATOM     21  C   UNL     1       2.245   5.921  19.752  0.00  0.00    +0.000 A 
ATOM     22  C   UNL     1       2.921   6.518  18.680  0.00  0.00    +0.000 A 
ATOM     23  C   UNL     1       3.452   5.757  17.650  0.00  0.00    +0.000 A 
ATOM     24  C   UNL     1       3.402   4.370  17.716  0.00  0.00    +0.000 A 
ATOM     25  C   UNL     1       2.820   3.750  18.817  0.00  0.00    +0.000 A 
ATOM     26  C   UNL     1       2.218   4.521  19.818  0.00  0.00    +0.000 A 
ENDBRANCH  20  21
ENDBRANCH  17  19
ENDBRANCH  10  17
ENDBRANCH   1  13
BRANCH   3  27
ATOM     27  O   UNL     1      -3.235  11.185  15.595  0.00  0.00    +0.000 OA
ATOM     28  H   UNL     1      -4.084  11.519  15.258  0.00  0.00    +0.000 HD
ENDBRANCH   3  27
BRANCH   7  29
ATOM     29  C   UNL     1      -6.285  12.011  20.699  0.00  0.00    +0.000 C 
BRANCH  29  30
ATOM     30  C   UNL     1      -5.774  13.174  21.551  0.00  0.00    +0.000 A 
ATOM     31  C   UNL     1      -6.139  14.504  21.316  0.00  0.00    +0.000 A 
ATOM     32  C   UNL     1      -5.911  15.496  22.277  0.00  0.00    +0.000 A 
ATOM     33  C   UNL     1      -5.386  15.155  23.515  0.00  0.00    +0.000 A 
ATOM     34  F   UNL     1      -5.312  16.071  24.489  0.00  0.00    +0.000 F 
ATOM     35  C   UNL     1      -4.927  13.873  23.743  0.00  0.00    +0.000 A 
ATOM     36  C   UNL     1      -5.042  12.923  22.719  0.00  0.00    +0.000 A 
ENDBRANCH  29  30
ENDBRANCH   7  29
TORSDOF 7
ENDMDL
MODEL 7
REMARK VINA RESULT:      -7.9      0.940      1.309
REMARK  Name = 
REMARK  7 active torsions:
REMARK  status: ('A' for Active; 'I' for Inactive)
REMARK    1  A    between atoms: S_2  and  C_4
REMARK    2  A    between atoms: S_2  and  N_12
REMARK    3  A    between atoms: C_5  and  C_6
REMARK    4  A    between atoms: C_15  and  C_16
REMARK    5  A    between atoms: C_18  and  O_19
REMARK    6  A    between atoms: N_23  and  C_24
REMARK    7  A    between atoms: C_24  and  C_25
REMARK                            x       y       z     vdW  Elec       q    Type
REMARK                         _______ _______ _______ _____ _____    ______ ____
ROOT
ATOM      1  C   UNL     1      -2.957  12.126  18.979  0.00  0.00    +0.000 A 
ATOM      2  N   UNL     1      -3.183  11.657  17.724  0.00  0.00    +0.000 NA
ATOM      3  C   UNL     1      -4.447  11.410  17.356  0.00  0.00    +0.000 A 
ATOM      4  C   UNL     1      -5.505  11.635  18.220  0.00  0.00    +0.000 A 
ATOM      5  N   UNL     1      -6.859  11.530  18.081  0.00  0.00    +0.000 NA
ATOM      6  N   UNL     1      -7.407  11.883  19.232  0.00  0.00    +0.000 NA
ATOM      7  N   UNL     1      -6.404  12.102  20.118  0.00  0.00    +0.000 N 
ATOM      8  C   UNL     1      -5.169  12.060  19.501  0.00  0.00    +0.000 A 
ATOM      9  N   UNL     1      -3.906  12.329  19.946  0.00  0.00    +0.000 NA
ENDROOT
BRANCH   1  13
ATOM     10  N   UNL     1      -0.087  10.529  20.922  0.00  0.00    +0.000 NA
ATOM     11  C   UNL     1      -0.406  10.165  19.517  0.00  0.00    +0.000 C 
ATOM     12  C   UNL     1      -0.502  11.413  18.661  0.00  0.00    +0.000 C 
ATOM     13  C   UNL     1      -1.485  12.433  19.236  0.00  0.00    +0.000 C 
ATOM     14  C   UNL     1      -1.146  12.740  20.697  0.00  0.00    +0.000 C 
ATOM     15  C   UNL     1      -1.042  11.480  21.540  0.00  0.00    +0.000 C 
BRANCH  10  17
ATOM     16  O   UNL     1      -0.839   8.276  21.882  0.00  0.00    +0.000 OA
ATOM     17  S   UNL     1       0.303   9.172  21.899  0.00  0.00    +0.000 S 
ATOM     18  O   UNL     1       0.809   9.680  23.156  0.00  0.00    +0.000 OA
BRANCH  17  19
ATOM     19  C   UNL     1       1.585   8.413  21.028  0.00  0.00    +0.000 C 
ATOM     20  C   UNL     1       1.403   7.352  20.227  0.00  0.00    +0.000 C 
BRANCH  20  21
ATOM     21  C   UNL     1       2.511   6.752  19.458  0.00  0.00    +0.000 A 
ATOM     22  C   UNL     1       3.234   5.663  19.962  0.00  0.00    +0.000 A 
ATOM     23  C   UNL     1       4.382   5.206  19.332  0.00  0.00    +0.000 A 
ATOM     24  C   UNL     1       4.781   5.770  18.126  0.00  0.00    +0.000 A 
ATOM     25  C   UNL     1       4.026   6.791  17.556  0.00  0.00    +0.000 A 
ATOM     26  C   UNL     1       2.911   7.300  18.232  0.00  0.00    +0.000 A 
ENDBRANCH  20  21
ENDBRANCH  17  19
ENDBRANCH  10  17
ENDBRANCH   1  13
BRANCH   3  27
ATOM     27  O   UNL     1      -4.599  10.931  16.088  0.00  0.00    +0.000 OA
ATOM     28  H   UNL     1      -5.431  11.357  15.823  0.00  0.00    +0.000 HD
ENDBRANCH   3  27
BRANCH   7  29
ATOM     29  C   UNL     1      -6.761  12.344  21.508  0.00  0.00    +0.000 C 
BRANCH  29  30
ATOM     30  C   UNL     1      -5.914  13.395  22.227  0.00  0.00    +0.000 A 
ATOM     31  C   UNL     1      -4.968  13.068  23.205  0.00  0.00    +0.000 A 
ATOM     32  C   UNL     1      -4.006  13.997  23.619  0.00  0.00    +0.000 A 
ATOM     33  C   UNL     1      -3.931  15.238  23.005  0.00  0.00    +0.000 A 
ATOM     34  F   UNL     1      -2.919  16.067  23.288  0.00  0.00    +0.000 F 
ATOM     35  C   UNL     1      -4.906  15.626  22.108  0.00  0.00    +0.000 A 
ATOM     36  C   UNL     1      -5.939  14.730  21.804  0.00  0.00    +0.000 A 
ENDBRANCH  29  30
ENDBRANCH   7  29
TORSDOF 7
ENDMDL
MODEL 8
REMARK VINA RESULT:      -7.8      6.261      8.178
REMARK  Name = 
REMARK  7 active torsions:
REMARK  status: ('A' for Active; 'I' for Inactive)
REMARK    1  A    between atoms: S_2  and  C_4
REMARK    2  A    between atoms: S_2  and  N_12
REMARK    3  A    between atoms: C_5  and  C_6
REMARK    4  A    between atoms: C_15  and  C_16
REMARK    5  A    between atoms: C_18  and  O_19
REMARK    6  A    between atoms: N_23  and  C_24
REMARK    7  A    between atoms: C_24  and  C_25
REMARK                            x       y       z     vdW  Elec       q    Type
REMARK                         _______ _______ _______ _____ _____    ______ ____
ROOT
ATOM      1  C   UNL     1       1.852  14.665  19.093  0.00  0.00    +0.000 A 
ATOM      2  N   UNL     1       1.842  15.077  20.388  0.00  0.00    +0.000 NA
ATOM      3  C   UNL     1       1.428  14.215  21.325  0.00  0.00    +0.000 A 
ATOM      4  C   UNL     1       1.029  12.931  20.996  0.00  0.00    +0.000 A 
ATOM      5  N   UNL     1       0.631  11.859  21.743  0.00  0.00    +0.000 NA
ATOM      6  N   UNL     1       0.373  10.866  20.909  0.00  0.00    +0.000 NA
ATOM      7  N   UNL     1       0.502  11.341  19.645  0.00  0.00    +0.000 N 
ATOM      8  C   UNL     1       1.019  12.622  19.640  0.00  0.00    +0.000 A 
ATOM      9  N   UNL     1       1.424  13.449  18.631  0.00  0.00    +0.000 NA
ENDROOT
BRANCH   1  13
ATOM     10  N   UNL     1       5.124  16.592  18.716  0.00  0.00    +0.000 NA
ATOM     11  C   UNL     1       4.901  15.261  18.096  0.00  0.00    +0.000 C 
ATOM     12  C   UNL     1       3.608  15.261  17.304  0.00  0.00    +0.000 C 
ATOM     13  C   UNL     1       2.417  15.719  18.145  0.00  0.00    +0.000 C 
ATOM     14  C   UNL     1       2.711  17.071  18.801  0.00  0.00    +0.000 C 
ATOM     15  C   UNL     1       4.015  17.059  19.582  0.00  0.00    +0.000 C 
BRANCH  10  17
ATOM     16  O   UNL     1       6.521  17.265  20.756  0.00  0.00    +0.000 OA
ATOM     17  S   UNL     1       6.688  16.762  19.405  0.00  0.00    +0.000 S 
ATOM     18  O   UNL     1       7.499  17.492  18.454  0.00  0.00    +0.000 OA
BRANCH  17  19
ATOM     19  C   UNL     1       7.252  15.134  19.512  0.00  0.00    +0.000 C 
ATOM     20  C   UNL     1       8.391  14.711  18.944  0.00  0.00    +0.000 C 
BRANCH  20  21
ATOM     21  C   UNL     1       8.872  13.323  19.090  0.00  0.00    +0.000 A 
ATOM     22  C   UNL     1       9.007  12.485  17.976  0.00  0.00    +0.000 A 
ATOM     23  C   UNL     1       9.288  11.134  18.121  0.00  0.00    +0.000 A 
ATOM     24  C   UNL     1       9.533  10.609  19.384  0.00  0.00    +0.000 A 
ATOM     25  C   UNL     1       9.497  11.442  20.498  0.00  0.00    +0.000 A 
ATOM     26  C   UNL     1       9.140  12.788  20.356  0.00  0.00    +0.000 A 
ENDBRANCH  20  21
ENDBRANCH  17  19
ENDBRANCH  10  17
ENDBRANCH   1  13
BRANCH   3  27
ATOM     27  O   UNL     1       1.433  14.698  22.600  0.00  0.00    +0.000 OA
ATOM     28  H   UNL     1       1.060  15.585  22.470  0.00  0.00    +0.000 HD
ENDBRANCH   3  27
BRANCH   7  29
ATOM     29  C   UNL     1       0.107  10.474  18.546  0.00  0.00    +0.000 C 
BRANCH  29  30
ATOM     30  C   UNL     1      -1.304  10.707  18.003  0.00  0.00    +0.000 A 
ATOM     31  C   UNL     1      -1.902   9.866  17.058  0.00  0.00    +0.000 A 
ATOM     32  C   UNL     1      -3.279   9.920  16.812  0.00  0.00    +0.000 A 
ATOM     33  C   UNL     1      -4.085  10.762  17.564  0.00  0.00    +0.000 A 
ATOM     34  F   UNL     1      -5.417  10.703  17.441  0.00  0.00    +0.000 F 
ATOM     35  C   UNL     1      -3.516  11.671  18.433  0.00  0.00    +0.000 A 
ATOM     36  C   UNL     1      -2.122  11.694  18.569  0.00  0.00    +0.000 A 
ENDBRANCH  29  30
ENDBRANCH   7  29
TORSDOF 7
ENDMDL
MODEL 9
REMARK VINA RESULT:      -7.7      2.822      4.418
REMARK  Name = 
REMARK  7 active torsions:
REMARK  status: ('A' for Active; 'I' for Inactive)
REMARK    1  A    between atoms: S_2  and  C_4
REMARK    2  A    between atoms: S_2  and  N_12
REMARK    3  A    between atoms: C_5  and  C_6
REMARK    4  A    between atoms: C_15  and  C_16
REMARK    5  A    between atoms: C_18  and  O_19
REMARK    6  A    between atoms: N_23  and  C_24
REMARK    7  A    between atoms: C_24  and  C_25
REMARK                            x       y       z     vdW  Elec       q    Type
REMARK                         _______ _______ _______ _____ _____    ______ ____
ROOT
ATOM      1  C   UNL     1      -1.759  13.200  19.907  0.00  0.00    +0.000 A 
ATOM      2  N   UNL     1      -1.742  14.349  20.631  0.00  0.00    +0.000 NA
ATOM      3  C   UNL     1      -2.894  14.784  21.160  0.00  0.00    +0.000 A 
ATOM      4  C   UNL     1      -4.074  14.081  20.988  0.00  0.00    +0.000 A 
ATOM      5  N   UNL     1      -5.343  14.264  21.458  0.00  0.00    +0.000 NA
ATOM      6  N   UNL     1      -6.089  13.278  20.987  0.00  0.00    +0.000 NA
ATOM      7  N   UNL     1      -5.322  12.546  20.141  0.00  0.00    +0.000 N 
ATOM      8  C   UNL     1      -4.002  12.950  20.183  0.00  0.00    +0.000 A 
ATOM      9  N   UNL     1      -2.866  12.450  19.610  0.00  0.00    +0.000 NA
ENDROOT
BRANCH   1  13
ATOM     10  N   UNL     1       0.685  10.357  20.618  0.00  0.00    +0.000 NA
ATOM     11  C   UNL     1      -0.376  10.263  19.583  0.00  0.00    +0.000 C 
ATOM     12  C   UNL     1      -0.317  11.466  18.661  0.00  0.00    +0.000 C 
ATOM     13  C   UNL     1      -0.370  12.786  19.431  0.00  0.00    +0.000 C 
ATOM     14  C   UNL     1       0.709  12.817  20.516  0.00  0.00    +0.000 C 
ATOM     15  C   UNL     1       0.646  11.600  21.425  0.00  0.00    +0.000 C 
BRANCH  10  17
ATOM     16  O   UNL     1      -0.466   8.400  21.805  0.00  0.00    +0.000 OA
ATOM     17  S   UNL     1       0.863   8.916  21.535  0.00  0.00    +0.000 S 
ATOM     18  O   UNL     1       1.763   9.212  22.629  0.00  0.00    +0.000 OA
BRANCH  17  19
ATOM     19  C   UNL     1       1.636   7.838  20.430  0.00  0.00    +0.000 C 
ATOM     20  C   UNL     1       1.799   6.529  20.672  0.00  0.00    +0.000 C 
BRANCH  20  21
ATOM     21  C   UNL     1       2.424   5.622  19.689  0.00  0.00    +0.000 A 
ATOM     22  C   UNL     1       2.673   4.280  20.000  0.00  0.00    +0.000 A 
ATOM     23  C   UNL     1       3.414   3.469  19.153  0.00  0.00    +0.000 A 
ATOM     24  C   UNL     1       3.844   3.959  17.926  0.00  0.00    +0.000 A 
ATOM     25  C   UNL     1       3.527   5.261  17.552  0.00  0.00    +0.000 A 
ATOM     26  C   UNL     1       2.844   6.100  18.441  0.00  0.00    +0.000 A 
ENDBRANCH  20  21
ENDBRANCH  17  19
ENDBRANCH  10  17
ENDBRANCH   1  13
BRANCH   3  27
ATOM     27  O   UNL     1      -2.806  15.947  21.865  0.00  0.00    +0.000 OA
ATOM     28  H   UNL     1      -3.315  16.552  21.300  0.00  0.00    +0.000 HD
ENDBRANCH   3  27
BRANCH   7  29
ATOM     29  C   UNL     1      -5.968  11.497  19.368  0.00  0.00    +0.000 C 
BRANCH  29  30
ATOM     30  C   UNL     1      -5.180  10.999  18.155  0.00  0.00    +0.000 A 
ATOM     31  C   UNL     1      -5.091  11.719  16.959  0.00  0.00    +0.000 A 
ATOM     32  C   UNL     1      -4.132  11.398  15.992  0.00  0.00    +0.000 A 
ATOM     33  C   UNL     1      -3.200  10.402  16.243  0.00  0.00    +0.000 A 
ATOM     34  F   UNL     1      -2.188  10.199  15.391  0.00  0.00    +0.000 F 
ATOM     35  C   UNL     1      -3.320   9.610  17.368  0.00  0.00    +0.000 A 
ATOM     36  C   UNL     1      -4.370   9.861  18.261  0.00  0.00    +0.000 A 
ENDBRANCH  29  30
ENDBRANCH   7  29
TORSDOF 7
ENDMDL
