MODEL 1
REMARK VINA RESULT:      -7.6      0.000      0.000
REMARK  Name = 
REMARK  11 active torsions:
REMARK  status: ('A' for Active; 'I' for Inactive)
REMARK    1  A    between atoms: C_1  and  C_2
REMARK    2  A    between atoms: C_2  and  C_3
REMARK    3  A    between atoms: C_2  and  C_4
REMARK    4  A    between atoms: C_4  and  N_5
REMARK    5  A    between atoms: C_4  and  C_16
REMARK    6  A    between atoms: N_5  and  S_6
REMARK    7  A    between atoms: S_6  and  C_9
REMARK    8  A    between atoms: N_18  and  CA_19
REMARK    9  A    between atoms: CA_19  and  C_20
REMARK   10  A    between atoms: CA_19  and  CB_22
REMARK   11  A    between atoms: CB_22  and  CG_23
REMARK                            x       y       z     vdW  Elec       q    Type
REMARK                         _______ _______ _______ _____ _____    ______ ____
ROOT
ATOM      1  C   UNK A   0       2.005   5.763  19.768  0.00  0.00    +0.000 C 
ATOM      2  O   UNK A   0       2.393   5.463  20.892  0.00  0.00    +0.000 OA
ATOM      3  N   TRP A   1       1.911   4.840  18.743  0.00  0.00    +0.000 N 
ATOM      4  H   TRP A   1       1.753   5.196  17.805  0.00  0.00    +0.000 HD
ENDROOT
BRANCH   1   5
ATOM      5  C   UNK A   0       1.677   7.222  19.411  0.00  0.00    +0.000 C 
BRANCH   5   7
ATOM      6  C   UNK A   0       3.733   7.284  17.904  0.00  0.00    +0.000 C 
ATOM      7  C   UNK A   0       2.260   7.684  18.046  0.00  0.00    +0.000 C 
ATOM      8  C   UNK A   0       2.195   9.195  17.759  0.00  0.00    +0.000 C 
ENDBRANCH   5   7
BRANCH   5   9
ATOM      9  N   UNK A   0       2.063   8.125  20.542  0.00  0.00    +0.000 NA
ATOM     10  H   UNK A   0       2.847   7.783  21.097  0.00  0.00    +0.000 HD
BRANCH   9  11
ATOM     11  S   UNK A   0       0.880   8.891  21.482  0.00  0.00    +0.000 S 
ATOM     12  O   UNK A   0      -0.246   7.985  21.539  0.00  0.00    +0.000 OA
ATOM     13  O   UNK A   0       1.485   9.430  22.677  0.00  0.00    +0.000 OA
BRANCH  11  14
ATOM     14  C   UNK A   0       0.380  10.249  20.452  0.00  0.00    +0.000 A 
ATOM     15  C   UNK A   0      -0.727  10.082  19.609  0.00  0.00    +0.000 A 
ATOM     16  C   UNK A   0      -1.082  11.111  18.740  0.00  0.00    +0.000 A 
ATOM     17  C   UNK A   0      -0.346  12.294  18.739  0.00  0.00    +0.000 A 
ATOM     18  F   UNK A   0      -0.684  13.275  17.893  0.00  0.00    +0.000 F 
ATOM     19  C   UNK A   0       0.735  12.474  19.596  0.00  0.00    +0.000 A 
ATOM     20  C   UNK A   0       1.099  11.449  20.469  0.00  0.00    +0.000 A 
ENDBRANCH  11  14
ENDBRANCH   9  11
ENDBRANCH   5   9
ENDBRANCH   1   5
BRANCH   3  21
ATOM     21  CA  TRP A   1       2.136   3.393  18.902  0.00  0.00    +0.000 C 
BRANCH  21  22
ATOM     22  C   TRP A   1       0.830   2.661  18.606  0.00  0.00    +0.000 C 
ATOM     23  O   TRP A   1       0.069   2.227  19.471  0.00  0.00    +0.000 OA
ENDBRANCH  21  22
BRANCH  21  24
ATOM     24  CB  TRP A   1       3.289   2.822  18.068  0.00  0.00    +0.000 C 
BRANCH  24  25
ATOM     25  CG  TRP A   1       4.572   3.574  18.101  0.00  0.00    +0.000 A 
ATOM     26  CD1 TRP A   1       5.274   3.995  19.208  0.00  0.00    +0.000 A 
ATOM     27  NE1 TRP A   1       6.384   4.665  18.772  0.00  0.00    +0.000 N 
ATOM     28  CE2 TRP A   1       6.409   4.707  17.396  0.00  0.00    +0.000 A 
ATOM     29  CZ2 TRP A   1       7.335   5.287  16.524  0.00  0.00    +0.000 A 
ATOM     30  CH2 TRP A   1       7.080   5.196  15.151  0.00  0.00    +0.000 A 
ATOM     31  CZ3 TRP A   1       5.942   4.554  14.669  0.00  0.00    +0.000 A 
ATOM     32  CE3 TRP A   1       5.031   3.975  15.556  0.00  0.00    +0.000 A 
ATOM     33  CD2 TRP A   1       5.271   4.047  16.949  0.00  0.00    +0.000 A 
ATOM     34  HE1 TRP A   1       7.079   5.091  19.367  0.00  0.00    +0.000 HD
ENDBRANCH  24  25
ENDBRANCH  21  24
ENDBRANCH   3  21
TORSDOF 9
ENDMDL
MODEL 2
REMARK VINA RESULT:      -7.5      0.497      1.175
REMARK  Name = 
REMARK  11 active torsions:
REMARK  status: ('A' for Active; 'I' for Inactive)
REMARK    1  A    between atoms: C_1  and  C_2
REMARK    2  A    between atoms: C_2  and  C_3
REMARK    3  A    between atoms: C_2  and  C_4
REMARK    4  A    between atoms: C_4  and  N_5
REMARK    5  A    between atoms: C_4  and  C_16
REMARK    6  A    between atoms: N_5  and  S_6
REMARK    7  A    between atoms: S_6  and  C_9
REMARK    8  A    between atoms: N_18  and  CA_19
REMARK    9  A    between atoms: CA_19  and  C_20
REMARK   10  A    between atoms: CA_19  and  CB_22
REMARK   11  A    between atoms: CB_22  and  CG_23
REMARK                            x       y       z     vdW  Elec       q    Type
REMARK                         _______ _______ _______ _____ _____    ______ ____
ROOT
ATOM      1  C   UNK A   0       2.050   5.844  20.214  0.00  0.00    +0.000 C 
ATOM      2  O   UNK A   0       2.491   5.495  21.304  0.00  0.00    +0.000 OA
ATOM      3  N   TRP A   1       1.927   4.972  19.148  0.00  0.00    +0.000 N 
ATOM      4  H   TRP A   1       1.723   5.372  18.238  0.00  0.00    +0.000 HD
ENDROOT
BRANCH   1   5
ATOM      5  C   UNK A   0       1.684   7.313  19.946  0.00  0.00    +0.000 C 
BRANCH   5   7
ATOM      6  C   UNK A   0       1.528   8.453  17.671  0.00  0.00    +0.000 C 
ATOM      7  C   UNK A   0       2.472   7.956  18.771  0.00  0.00    +0.000 C 
ATOM      8  C   UNK A   0       3.507   7.053  18.076  0.00  0.00    +0.000 C 
ENDBRANCH   5   7
BRANCH   5   9
ATOM      9  N   UNK A   0       1.784   8.105  21.214  0.00  0.00    +0.000 NA
ATOM     10  H   UNK A   0       2.321   7.646  21.948  0.00  0.00    +0.000 HD
BRANCH   9  11
ATOM     11  S   UNK A   0       0.447   8.955  21.814  0.00  0.00    +0.000 S 
ATOM     12  O   UNK A   0      -0.677   8.048  21.745  0.00  0.00    +0.000 OA
ATOM     13  O   UNK A   0       0.811   9.627  23.038  0.00  0.00    +0.000 OA
BRANCH  11  14
ATOM     14  C   UNK A   0       0.174  10.187  20.564  0.00  0.00    +0.000 A 
ATOM     15  C   UNK A   0       1.022  11.302  20.520  0.00  0.00    +0.000 A 
ATOM     16  C   UNK A   0       0.770  12.313  19.595  0.00  0.00    +0.000 A 
ATOM     17  C   UNK A   0      -0.302  12.188  18.715  0.00  0.00    +0.000 A 
ATOM     18  F   UNK A   0      -0.547  13.168  17.836  0.00  0.00    +0.000 F 
ATOM     19  C   UNK A   0      -1.128  11.067  18.736  0.00  0.00    +0.000 A 
ATOM     20  C   UNK A   0      -0.885  10.051  19.659  0.00  0.00    +0.000 A 
ENDBRANCH  11  14
ENDBRANCH   9  11
ENDBRANCH   5   9
ENDBRANCH   1   5
BRANCH   3  21
ATOM     21  CA  TRP A   1       2.181   3.524  19.223  0.00  0.00    +0.000 C 
BRANCH  21  22
ATOM     22  C   TRP A   1       0.841   2.792  19.217  0.00  0.00    +0.000 C 
ATOM     23  O   TRP A   1       0.080   2.750  18.251  0.00  0.00    +0.000 OA
ENDBRANCH  21  22
BRANCH  21  24
ATOM     24  CB  TRP A   1       3.114   2.974  18.139  0.00  0.00    +0.000 C 
BRANCH  24  25
ATOM     25  CG  TRP A   1       4.484   3.551  18.083  0.00  0.00    +0.000 A 
ATOM     26  CD1 TRP A   1       5.305   3.877  19.139  0.00  0.00    +0.000 A 
ATOM     27  NE1 TRP A   1       6.463   4.396  18.627  0.00  0.00    +0.000 N 
ATOM     28  CE2 TRP A   1       6.405   4.432  17.251  0.00  0.00    +0.000 A 
ATOM     29  CZ2 TRP A   1       7.341   4.883  16.316  0.00  0.00    +0.000 A 
ATOM     30  CH2 TRP A   1       6.989   4.824  14.963  0.00  0.00    +0.000 A 
ATOM     31  CZ3 TRP A   1       5.748   4.336  14.561  0.00  0.00    +0.000 A 
ATOM     32  CE3 TRP A   1       4.828   3.883  15.510  0.00  0.00    +0.000 A 
ATOM     33  CD2 TRP A   1       5.165   3.925  16.883  0.00  0.00    +0.000 A 
ATOM     34  HE1 TRP A   1       7.245   4.727  19.172  0.00  0.00    +0.000 HD
ENDBRANCH  24  25
ENDBRANCH  21  24
ENDBRANCH   3  21
TORSDOF 9
ENDMDL
MODEL 3
REMARK VINA RESULT:      -7.4      1.208      1.402
REMARK  Name = 
REMARK  11 active torsions:
REMARK  status: ('A' for Active; 'I' for Inactive)
REMARK    1  A    between atoms: C_1  and  C_2
REMARK    2  A    between atoms: C_2  and  C_3
REMARK    3  A    between atoms: C_2  and  C_4
REMARK    4  A    between atoms: C_4  and  N_5
REMARK    5  A    between atoms: C_4  and  C_16
REMARK    6  A    between atoms: N_5  and  S_6
REMARK    7  A    between atoms: S_6  and  C_9
REMARK    8  A    between atoms: N_18  and  CA_19
REMARK    9  A    between atoms: CA_19  and  C_20
REMARK   10  A    between atoms: CA_19  and  CB_22
REMARK   11  A    between atoms: CB_22  and  CG_23
REMARK                            x       y       z     vdW  Elec       q    Type
REMARK                         _______ _______ _______ _____ _____    ______ ____
ROOT
ATOM      1  C   UNK A   0       2.046   6.019  19.552  0.00  0.00    +0.000 C 
ATOM      2  O   UNK A   0       1.467   5.253  18.788  0.00  0.00    +0.000 OA
ATOM      3  N   TRP A   1       2.946   5.577  20.505  0.00  0.00    +0.000 N 
ATOM      4  H   TRP A   1       3.247   6.243  21.209  0.00  0.00    +0.000 HD
ENDROOT
BRANCH   1   5
ATOM      5  C   UNK A   0       1.734   7.524  19.547  0.00  0.00    +0.000 C 
BRANCH   5   7
ATOM      6  C   UNK A   0       1.578   9.040  17.504  0.00  0.00    +0.000 C 
ATOM      7  C   UNK A   0       2.523   8.329  18.477  0.00  0.00    +0.000 C 
ATOM      8  C   UNK A   0       3.506   7.521  17.611  0.00  0.00    +0.000 C 
ENDBRANCH   5   7
BRANCH   5   9
ATOM      9  N   UNK A   0       1.893   8.084  20.928  0.00  0.00    +0.000 NA
ATOM     10  H   UNK A   0       2.425   7.486  21.559  0.00  0.00    +0.000 HD
BRANCH   9  11
ATOM     11  S   UNK A   0       0.605   8.869  21.699  0.00  0.00    +0.000 S 
ATOM     12  O   UNK A   0      -0.524   7.970  21.623  0.00  0.00    +0.000 OA
ATOM     13  O   UNK A   0       1.057   9.422  22.953  0.00  0.00    +0.000 OA
BRANCH  11  14
ATOM     14  C   UNK A   0       0.250  10.214  20.594  0.00  0.00    +0.000 A 
ATOM     15  C   UNK A   0      -0.911  10.154  19.812  0.00  0.00    +0.000 A 
ATOM     16  C   UNK A   0      -1.160  11.165  18.886  0.00  0.00    +0.000 A 
ATOM     17  C   UNK A   0      -0.267  12.227  18.770  0.00  0.00    +0.000 A 
ATOM     18  F   UNK A   0      -0.505  13.189  17.870  0.00  0.00    +0.000 F 
ATOM     19  C   UNK A   0       0.872  12.304  19.567  0.00  0.00    +0.000 A 
ATOM     20  C   UNK A   0       1.131  11.297  20.496  0.00  0.00    +0.000 A 
ENDBRANCH  11  14
ENDBRANCH   9  11
ENDBRANCH   5   9
ENDBRANCH   1   5
BRANCH   3  21
ATOM     21  CA  TRP A   1       3.408   4.185  20.632  0.00  0.00    +0.000 C 
BRANCH  21  22
ATOM     22  C   TRP A   1       2.242   3.325  21.114  0.00  0.00    +0.000 C 
ATOM     23  O   TRP A   1       2.078   2.974  22.282  0.00  0.00    +0.000 OA
ENDBRANCH  21  22
BRANCH  21  24
ATOM     24  CB  TRP A   1       4.041   3.595  19.367  0.00  0.00    +0.000 C 
BRANCH  24  25
ATOM     25  CG  TRP A   1       5.176   4.352  18.774  0.00  0.00    +0.000 A 
ATOM     26  CD1 TRP A   1       6.101   5.134  19.429  0.00  0.00    +0.000 A 
ATOM     27  NE1 TRP A   1       6.950   5.655  18.492  0.00  0.00    +0.000 N 
ATOM     28  CE2 TRP A   1       6.585   5.240  17.230  0.00  0.00    +0.000 A 
ATOM     29  CZ2 TRP A   1       7.149   5.526  15.984  0.00  0.00    +0.000 A 
ATOM     30  CH2 TRP A   1       6.535   4.979  14.851  0.00  0.00    +0.000 A 
ATOM     31  CZ3 TRP A   1       5.398   4.182  14.961  0.00  0.00    +0.000 A 
ATOM     32  CE3 TRP A   1       4.852   3.903  16.217  0.00  0.00    +0.000 A 
ATOM     33  CD2 TRP A   1       5.460   4.437  17.376  0.00  0.00    +0.000 A 
ATOM     34  HE1 TRP A   1       7.725   6.272  18.685  0.00  0.00    +0.000 HD
ENDBRANCH  24  25
ENDBRANCH  21  24
ENDBRANCH   3  21
TORSDOF 9
ENDMDL
MODEL 4
REMARK VINA RESULT:      -7.2      3.171      8.287
REMARK  Name = 
REMARK  11 active torsions:
REMARK  status: ('A' for Active; 'I' for Inactive)
REMARK    1  A    between atoms: C_1  and  C_2
REMARK    2  A    between atoms: C_2  and  C_3
REMARK    3  A    between atoms: C_2  and  C_4
REMARK    4  A    between atoms: C_4  and  N_5
REMARK    5  A    between atoms: C_4  and  C_16
REMARK    6  A    between atoms: N_5  and  S_6
REMARK    7  A    between atoms: S_6  and  C_9
REMARK    8  A    between atoms: N_18  and  CA_19
REMARK    9  A    between atoms: CA_19  and  C_20
REMARK   10  A    between atoms: CA_19  and  CB_22
REMARK   11  A    between atoms: CB_22  and  CG_23
REMARK                            x       y       z     vdW  Elec       q    Type
REMARK                         _______ _______ _______ _____ _____    ______ ____
ROOT
ATOM      1  C   UNK A   0       1.955   6.684  19.870  0.00  0.00    +0.000 C 
ATOM      2  O   UNK A   0       2.499   7.500  19.133  0.00  0.00    +0.000 OA
ATOM      3  N   TRP A   1       1.127   7.061  20.912  0.00  0.00    +0.000 N 
ATOM      4  H   TRP A   1       0.859   6.344  21.579  0.00  0.00    +0.000 HD
ENDROOT
BRANCH   1   5
ATOM      5  C   UNK A   0       2.235   5.180  19.725  0.00  0.00    +0.000 C 
BRANCH   5   7
ATOM      6  C   UNK A   0       1.985   3.612  21.720  0.00  0.00    +0.000 C 
ATOM      7  C   UNK A   0       1.268   4.276  20.539  0.00  0.00    +0.000 C 
ATOM      8  C   UNK A   0       0.583   3.140  19.758  0.00  0.00    +0.000 C 
ENDBRANCH   5   7
BRANCH   5   9
ATOM      9  N   UNK A   0       3.677   4.898  20.017  0.00  0.00    +0.000 NA
ATOM     10  H   UNK A   0       4.148   5.638  20.536  0.00  0.00    +0.000 HD
BRANCH   9  11
ATOM     11  S   UNK A   0       4.674   4.180  18.850  0.00  0.00    +0.000 S 
ATOM     12  O   UNK A   0       5.441   3.165  19.539  0.00  0.00    +0.000 OA
ATOM     13  O   UNK A   0       3.900   3.880  17.670  0.00  0.00    +0.000 OA
BRANCH  11  14
ATOM     14  C   UNK A   0       5.813   5.484  18.452  0.00  0.00    +0.000 A 
ATOM     15  C   UNK A   0       5.457   6.408  17.461  0.00  0.00    +0.000 A 
ATOM     16  C   UNK A   0       6.373   7.388  17.085  0.00  0.00    +0.000 A 
ATOM     17  C   UNK A   0       7.614   7.448  17.716  0.00  0.00    +0.000 A 
ATOM     18  F   UNK A   0       8.495   8.384  17.342  0.00  0.00    +0.000 F 
ATOM     19  C   UNK A   0       7.958   6.549  18.722  0.00  0.00    +0.000 A 
ATOM     20  C   UNK A   0       7.048   5.564  19.104  0.00  0.00    +0.000 A 
ENDBRANCH  11  14
ENDBRANCH   9  11
ENDBRANCH   5   9
ENDBRANCH   1   5
BRANCH   3  21
ATOM     21  CA  TRP A   1       0.703   8.445  21.180  0.00  0.00    +0.000 C 
BRANCH  21  22
ATOM     22  C   TRP A   1       1.233   8.863  22.549  0.00  0.00    +0.000 C 
ATOM     23  O   TRP A   1       0.950   9.923  23.106  0.00  0.00    +0.000 OA
ENDBRANCH  21  22
BRANCH  21  24
ATOM     24  CB  TRP A   1       1.096   9.462  20.102  0.00  0.00    +0.000 C 
BRANCH  24  25
ATOM     25  CG  TRP A   1      -0.012  10.052  19.305  0.00  0.00    +0.000 A 
ATOM     26  CD1 TRP A   1      -0.279   9.866  17.967  0.00  0.00    +0.000 A 
ATOM     27  NE1 TRP A   1      -1.379  10.614  17.650  0.00  0.00    +0.000 N 
ATOM     28  CE2 TRP A   1      -1.827  11.302  18.756  0.00  0.00    +0.000 A 
ATOM     29  CZ2 TRP A   1      -2.901  12.185  18.902  0.00  0.00    +0.000 A 
ATOM     30  CH2 TRP A   1      -3.099  12.766  20.159  0.00  0.00    +0.000 A 
ATOM     31  CZ3 TRP A   1      -2.253  12.479  21.228  0.00  0.00    +0.000 A 
ATOM     32  CE3 TRP A   1      -1.188  11.590  21.065  0.00  0.00    +0.000 A 
ATOM     33  CD2 TRP A   1      -0.973  10.983  19.805  0.00  0.00    +0.000 A 
ATOM     34  HE1 TRP A   1      -1.799  10.676  16.734  0.00  0.00    +0.000 HD
ENDBRANCH  24  25
ENDBRANCH  21  24
ENDBRANCH   3  21
TORSDOF 9
ENDMDL
MODEL 5
REMARK VINA RESULT:      -7.2      3.515      8.482
REMARK  Name = 
REMARK  11 active torsions:
REMARK  status: ('A' for Active; 'I' for Inactive)
REMARK    1  A    between atoms: C_1  and  C_2
REMARK    2  A    between atoms: C_2  and  C_3
REMARK    3  A    between atoms: C_2  and  C_4
REMARK    4  A    between atoms: C_4  and  N_5
REMARK    5  A    between atoms: C_4  and  C_16
REMARK    6  A    between atoms: N_5  and  S_6
REMARK    7  A    between atoms: S_6  and  C_9
REMARK    8  A    between atoms: N_18  and  CA_19
REMARK    9  A    between atoms: CA_19  and  C_20
REMARK   10  A    between atoms: CA_19  and  CB_22
REMARK   11  A    between atoms: CB_22  and  CG_23
REMARK                            x       y       z     vdW  Elec       q    Type
REMARK                         _______ _______ _______ _____ _____    ______ ____
ROOT
ATOM      1  C   UNK A   0       2.925   7.391  18.740  0.00  0.00    +0.000 C 
ATOM      2  O   UNK A   0       2.364   7.198  19.814  0.00  0.00    +0.000 OA
ATOM      3  N   TRP A   1       2.708   8.527  17.983  0.00  0.00    +0.000 N 
ATOM      4  H   TRP A   1       3.068   8.533  17.034  0.00  0.00    +0.000 HD
ENDROOT
BRANCH   1   5
ATOM      5  C   UNK A   0       3.849   6.325  18.130  0.00  0.00    +0.000 C 
BRANCH   5   7
ATOM      6  C   UNK A   0       4.965   6.588  15.853  0.00  0.00    +0.000 C 
ATOM      7  C   UNK A   0       5.058   6.910  17.348  0.00  0.00    +0.000 C 
ATOM      8  C   UNK A   0       6.451   6.439  17.804  0.00  0.00    +0.000 C 
ENDBRANCH   5   7
BRANCH   5   9
ATOM      9  N   UNK A   0       3.046   5.357  17.316  0.00  0.00    +0.000 NA
ATOM     10  H   UNK A   0       2.066   5.616  17.212  0.00  0.00    +0.000 HD
BRANCH   9  11
ATOM     11  S   UNK A   0       3.267   3.686  17.489  0.00  0.00    +0.000 S 
ATOM     12  O   UNK A   0       2.391   3.057  16.525  0.00  0.00    +0.000 OA
ATOM     13  O   UNK A   0       4.679   3.388  17.544  0.00  0.00    +0.000 OA
BRANCH  11  14
ATOM     14  C   UNK A   0       2.567   3.361  19.089  0.00  0.00    +0.000 A 
ATOM     15  C   UNK A   0       3.410   2.912  20.114  0.00  0.00    +0.000 A 
ATOM     16  C   UNK A   0       2.861   2.579  21.350  0.00  0.00    +0.000 A 
ATOM     17  C   UNK A   0       1.490   2.721  21.553  0.00  0.00    +0.000 A 
ATOM     18  F   UNK A   0       0.966   2.388  22.740  0.00  0.00    +0.000 F 
ATOM     19  C   UNK A   0       0.655   3.196  20.546  0.00  0.00    +0.000 A 
ATOM     20  C   UNK A   0       1.195   3.530  19.305  0.00  0.00    +0.000 A 
ENDBRANCH  11  14
ENDBRANCH   9  11
ENDBRANCH   5   9
ENDBRANCH   1   5
BRANCH   3  21
ATOM     21  CA  TRP A   1       1.898   9.677  18.419  0.00  0.00    +0.000 C 
BRANCH  21  22
ATOM     22  C   TRP A   1       2.405  10.930  17.710  0.00  0.00    +0.000 C 
ATOM     23  O   TRP A   1       2.555  12.022  18.258  0.00  0.00    +0.000 OA
ENDBRANCH  21  22
BRANCH  21  24
ATOM     24  CB  TRP A   1       0.386   9.511  18.231  0.00  0.00    +0.000 C 
BRANCH  24  25
ATOM     25  CG  TRP A   1      -0.484  10.513  18.903  0.00  0.00    +0.000 A 
ATOM     26  CD1 TRP A   1      -1.227  11.513  18.316  0.00  0.00    +0.000 A 
ATOM     27  NE1 TRP A   1      -1.856  12.209  19.311  0.00  0.00    +0.000 N 
ATOM     28  CE2 TRP A   1      -1.522  11.692  20.543  0.00  0.00    +0.000 A 
ATOM     29  CZ2 TRP A   1      -1.913  12.083  21.827  0.00  0.00    +0.000 A 
ATOM     30  CH2 TRP A   1      -1.380  11.378  22.912  0.00  0.00    +0.000 A 
ATOM     31  CZ3 TRP A   1      -0.487  10.327  22.721  0.00  0.00    +0.000 A 
ATOM     32  CE3 TRP A   1      -0.112   9.947  21.430  0.00  0.00    +0.000 A 
ATOM     33  CD2 TRP A   1      -0.645  10.638  20.317  0.00  0.00    +0.000 A 
ATOM     34  HE1 TRP A   1      -2.464  13.003  19.174  0.00  0.00    +0.000 HD
ENDBRANCH  24  25
ENDBRANCH  21  24
ENDBRANCH   3  21
TORSDOF 9
ENDMDL
MODEL 6
REMARK VINA RESULT:      -7.2      3.344      5.399
REMARK  Name = 
REMARK  11 active torsions:
REMARK  status: ('A' for Active; 'I' for Inactive)
REMARK    1  A    between atoms: C_1  and  C_2
REMARK    2  A    between atoms: C_2  and  C_3
REMARK    3  A    between atoms: C_2  and  C_4
REMARK    4  A    between atoms: C_4  and  N_5
REMARK    5  A    between atoms: C_4  and  C_16
REMARK    6  A    between atoms: N_5  and  S_6
REMARK    7  A    between atoms: S_6  and  C_9
REMARK    8  A    between atoms: N_18  and  CA_19
REMARK    9  A    between atoms: CA_19  and  C_20
REMARK   10  A    between atoms: CA_19  and  CB_22
REMARK   11  A    between atoms: CB_22  and  CG_23
REMARK                            x       y       z     vdW  Elec       q    Type
REMARK                         _______ _______ _______ _____ _____    ______ ____
ROOT
ATOM      1  C   UNK A   0       0.170  10.015  18.981  0.00  0.00    +0.000 C 
ATOM      2  O   UNK A   0       1.088   9.819  18.192  0.00  0.00    +0.000 OA
ATOM      3  N   TRP A   1       0.156   9.473  20.253  0.00  0.00    +0.000 N 
ATOM      4  H   TRP A   1      -0.711   9.534  20.778  0.00  0.00    +0.000 HD
ENDROOT
BRANCH   1   5
ATOM      5  C   UNK A   0      -1.074  10.815  18.561  0.00  0.00    +0.000 C 
BRANCH   5   7
ATOM      6  C   UNK A   0      -2.292  11.058  16.334  0.00  0.00    +0.000 C 
ATOM      7  C   UNK A   0      -1.946  10.108  17.485  0.00  0.00    +0.000 C 
ATOM      8  C   UNK A   0      -3.281   9.521  17.975  0.00  0.00    +0.000 C 
ENDBRANCH   5   7
BRANCH   5   9
ATOM      9  N   UNK A   0      -0.679  12.204  18.165  0.00  0.00    +0.000 NA
ATOM     10  H   UNK A   0      -0.090  12.248  17.334  0.00  0.00    +0.000 HD
BRANCH   9  11
ATOM     11  S   UNK A   0      -0.245  13.349  19.336  0.00  0.00    +0.000 S 
ATOM     12  O   UNK A   0       1.108  13.030  19.736  0.00  0.00    +0.000 OA
ATOM     13  O   UNK A   0      -0.614  14.669  18.884  0.00  0.00    +0.000 OA
BRANCH  11  14
ATOM     14  C   UNK A   0      -1.288  12.920  20.708  0.00  0.00    +0.000 A 
ATOM     15  C   UNK A   0      -2.675  13.066  20.572  0.00  0.00    +0.000 A 
ATOM     16  C   UNK A   0      -3.497  12.808  21.666  0.00  0.00    +0.000 A 
ATOM     17  C   UNK A   0      -2.932  12.386  22.867  0.00  0.00    +0.000 A 
ATOM     18  F   UNK A   0      -3.726  12.150  23.918  0.00  0.00    +0.000 F 
ATOM     19  C   UNK A   0      -1.557  12.210  22.996  0.00  0.00    +0.000 A 
ATOM     20  C   UNK A   0      -0.725  12.468  21.908  0.00  0.00    +0.000 A 
ENDBRANCH  11  14
ENDBRANCH   9  11
ENDBRANCH   5   9
ENDBRANCH   1   5
BRANCH   3  21
ATOM     21  CA  TRP A   1       1.272   8.722  20.851  0.00  0.00    +0.000 C 
BRANCH  21  22
ATOM     22  C   TRP A   1       1.514   9.247  22.264  0.00  0.00    +0.000 C 
ATOM     23  O   TRP A   1       0.621   9.467  23.082  0.00  0.00    +0.000 OA
ENDBRANCH  21  22
BRANCH  21  24
ATOM     24  CB  TRP A   1       1.100   7.199  20.851  0.00  0.00    +0.000 C 
BRANCH  24  25
ATOM     25  CG  TRP A   1       2.096   6.415  20.073  0.00  0.00    +0.000 A 
ATOM     26  CD1 TRP A   1       2.799   6.815  18.959  0.00  0.00    +0.000 A 
ATOM     27  NE1 TRP A   1       3.586   5.769  18.561  0.00  0.00    +0.000 N 
ATOM     28  CE2 TRP A   1       3.395   4.683  19.386  0.00  0.00    +0.000 A 
ATOM     29  CZ2 TRP A   1       3.970   3.410  19.356  0.00  0.00    +0.000 A 
ATOM     30  CH2 TRP A   1       3.554   2.485  20.321  0.00  0.00    +0.000 A 
ATOM     31  CZ3 TRP A   1       2.596   2.820  21.274  0.00  0.00    +0.000 A 
ATOM     32  CE3 TRP A   1       2.036   4.100  21.292  0.00  0.00    +0.000 A 
ATOM     33  CD2 TRP A   1       2.448   5.054  20.332  0.00  0.00    +0.000 A 
ATOM     34  HE1 TRP A   1       4.207   5.776  17.765  0.00  0.00    +0.000 HD
ENDBRANCH  24  25
ENDBRANCH  21  24
ENDBRANCH   3  21
TORSDOF 9
ENDMDL
MODEL 7
REMARK VINA RESULT:      -7.1      3.422      8.104
REMARK  Name = 
REMARK  11 active torsions:
REMARK  status: ('A' for Active; 'I' for Inactive)
REMARK    1  A    between atoms: C_1  and  C_2
REMARK    2  A    between atoms: C_2  and  C_3
REMARK    3  A    between atoms: C_2  and  C_4
REMARK    4  A    between atoms: C_4  and  N_5
REMARK    5  A    between atoms: C_4  and  C_16
REMARK    6  A    between atoms: N_5  and  S_6
REMARK    7  A    between atoms: S_6  and  C_9
REMARK    8  A    between atoms: N_18  and  CA_19
REMARK    9  A    between atoms: CA_19  and  C_20
REMARK   10  A    between atoms: CA_19  and  CB_22
REMARK   11  A    between atoms: CB_22  and  CG_23
REMARK                            x       y       z     vdW  Elec       q    Type
REMARK                         _______ _______ _______ _____ _____    ______ ____
ROOT
ATOM      1  C   UNK A   0       2.978   7.612  17.996  0.00  0.00    +0.000 C 
ATOM      2  O   UNK A   0       2.580   8.328  17.083  0.00  0.00    +0.000 OA
ATOM      3  N   TRP A   1       2.437   7.662  19.268  0.00  0.00    +0.000 N 
ATOM      4  H   TRP A   1       2.932   7.171  20.006  0.00  0.00    +0.000 HD
ENDROOT
BRANCH   1   5
ATOM      5  C   UNK A   0       4.174   6.668  17.794  0.00  0.00    +0.000 C 
BRANCH   5   7
ATOM      6  C   UNK A   0       5.271   6.416  15.507  0.00  0.00    +0.000 C 
ATOM      7  C   UNK A   0       5.251   7.213  16.815  0.00  0.00    +0.000 C 
ATOM      8  C   UNK A   0       6.699   7.220  17.337  0.00  0.00    +0.000 C 
ENDBRANCH   5   7
BRANCH   5   9
ATOM      9  N   UNK A   0       3.688   5.301  17.419  0.00  0.00    +0.000 NA
ATOM     10  H   UNK A   0       2.676   5.233  17.319  0.00  0.00    +0.000 HD
BRANCH   9  11
ATOM     11  S   UNK A   0       4.372   3.916  18.116  0.00  0.00    +0.000 S 
ATOM     12  O   UNK A   0       4.295   2.876  17.115  0.00  0.00    +0.000 OA
ATOM     13  O   UNK A   0       5.615   4.263  18.762  0.00  0.00    +0.000 OA
BRANCH  11  14
ATOM     14  C   UNK A   0       3.193   3.489  19.374  0.00  0.00    +0.000 A 
ATOM     15  C   UNK A   0       3.067   4.325  20.491  0.00  0.00    +0.000 A 
ATOM     16  C   UNK A   0       2.203   3.960  21.521  0.00  0.00    +0.000 A 
ATOM     17  C   UNK A   0       1.462   2.785  21.413  0.00  0.00    +0.000 A 
ATOM     18  F   UNK A   0       0.642   2.433  22.411  0.00  0.00    +0.000 F 
ATOM     19  C   UNK A   0       1.562   1.968  20.290  0.00  0.00    +0.000 A 
ATOM     20  C   UNK A   0       2.426   2.324  19.256  0.00  0.00    +0.000 A 
ENDBRANCH  11  14
ENDBRANCH   9  11
ENDBRANCH   5   9
ENDBRANCH   1   5
BRANCH   3  21
ATOM     21  CA  TRP A   1       1.261   8.465  19.642  0.00  0.00    +0.000 C 
BRANCH  21  22
ATOM     22  C   TRP A   1       1.018   8.307  21.141  0.00  0.00    +0.000 C 
ATOM     23  O   TRP A   1      -0.092   8.351  21.670  0.00  0.00    +0.000 OA
ENDBRANCH  21  22
BRANCH  21  24
ATOM     24  CB  TRP A   1       1.337   9.944  19.248  0.00  0.00    +0.000 C 
BRANCH  24  25
ATOM     25  CG  TRP A   1       0.080  10.731  19.366  0.00  0.00    +0.000 A 
ATOM     26  CD1 TRP A   1      -0.246  11.660  20.329  0.00  0.00    +0.000 A 
ATOM     27  NE1 TRP A   1      -1.506  12.119  20.061  0.00  0.00    +0.000 N 
ATOM     28  CE2 TRP A   1      -2.019  11.491  18.948  0.00  0.00    +0.000 A 
ATOM     29  CZ2 TRP A   1      -3.258  11.632  18.318  0.00  0.00    +0.000 A 
ATOM     30  CH2 TRP A   1      -3.517  10.826  17.203  0.00  0.00    +0.000 A 
ATOM     31  CZ3 TRP A   1      -2.575   9.911  16.741  0.00  0.00    +0.000 A 
ATOM     32  CE3 TRP A   1      -1.339   9.788  17.380  0.00  0.00    +0.000 A 
ATOM     33  CD2 TRP A   1      -1.051  10.598  18.503  0.00  0.00    +0.000 A 
ATOM     34  HE1 TRP A   1      -2.006  12.805  20.608  0.00  0.00    +0.000 HD
ENDBRANCH  24  25
ENDBRANCH  21  24
ENDBRANCH   3  21
TORSDOF 9
ENDMDL
MODEL 8
REMARK VINA RESULT:      -7.0      3.356      8.404
REMARK  Name = 
REMARK  11 active torsions:
REMARK  status: ('A' for Active; 'I' for Inactive)
REMARK    1  A    between atoms: C_1  and  C_2
REMARK    2  A    between atoms: C_2  and  C_3
REMARK    3  A    between atoms: C_2  and  C_4
REMARK    4  A    between atoms: C_4  and  N_5
REMARK    5  A    between atoms: C_4  and  C_16
REMARK    6  A    between atoms: N_5  and  S_6
REMARK    7  A    between atoms: S_6  and  C_9
REMARK    8  A    between atoms: N_18  and  CA_19
REMARK    9  A    between atoms: CA_19  and  C_20
REMARK   10  A    between atoms: CA_19  and  CB_22
REMARK   11  A    between atoms: CB_22  and  CG_23
REMARK                            x       y       z     vdW  Elec       q    Type
REMARK                         _______ _______ _______ _____ _____    ______ ____
ROOT
ATOM      1  C   UNK A   0       2.929   7.355  17.974  0.00  0.00    +0.000 C 
ATOM      2  O   UNK A   0       3.830   8.025  17.480  0.00  0.00    +0.000 OA
ATOM      3  N   TRP A   1       1.701   7.895  18.312  0.00  0.00    +0.000 N 
ATOM      4  H   TRP A   1       1.077   7.324  18.873  0.00  0.00    +0.000 HD
ENDROOT
BRANCH   1   5
ATOM      5  C   UNK A   0       3.149   5.875  18.327  0.00  0.00    +0.000 C 
BRANCH   5   7
ATOM      6  C   UNK A   0       1.815   4.852  20.244  0.00  0.00    +0.000 C 
ATOM      7  C   UNK A   0       1.851   5.124  18.737  0.00  0.00    +0.000 C 
ATOM      8  C   UNK A   0       1.607   3.769  18.048  0.00  0.00    +0.000 C 
ENDBRANCH   5   7
BRANCH   5   9
ATOM      9  N   UNK A   0       4.238   5.749  19.348  0.00  0.00    +0.000 NA
ATOM     10  H   UNK A   0       4.582   6.642  19.699  0.00  0.00    +0.000 HD
BRANCH   9  11
ATOM     11  S   UNK A   0       5.467   4.597  19.167  0.00  0.00    +0.000 S 
ATOM     12  O   UNK A   0       6.634   5.139  19.828  0.00  0.00    +0.000 OA
ATOM     13  O   UNK A   0       4.952   3.286  19.483  0.00  0.00    +0.000 OA
BRANCH  11  14
ATOM     14  C   UNK A   0       5.806   4.657  17.424  0.00  0.00    +0.000 A 
ATOM     15  C   UNK A   0       4.963   3.957  16.550  0.00  0.00    +0.000 A 
ATOM     16  C   UNK A   0       5.264   3.931  15.190  0.00  0.00    +0.000 A 
ATOM     17  C   UNK A   0       6.379   4.620  14.719  0.00  0.00    +0.000 A 
ATOM     18  F   UNK A   0       6.669   4.582  13.413  0.00  0.00    +0.000 F 
ATOM     19  C   UNK A   0       7.200   5.342  15.581  0.00  0.00    +0.000 A 
ATOM     20  C   UNK A   0       6.909   5.371  16.944  0.00  0.00    +0.000 A 
ENDBRANCH  11  14
ENDBRANCH   9  11
ENDBRANCH   5   9
ENDBRANCH   1   5
BRANCH   3  21
ATOM     21  CA  TRP A   1       1.287   9.275  18.010  0.00  0.00    +0.000 C 
BRANCH  21  22
ATOM     22  C   TRP A   1      -0.190   9.270  17.626  0.00  0.00    +0.000 C 
ATOM     23  O   TRP A   1      -0.923  10.256  17.684  0.00  0.00    +0.000 OA
ENDBRANCH  21  22
BRANCH  21  24
ATOM     24  CB  TRP A   1       1.563  10.292  19.124  0.00  0.00    +0.000 C 
BRANCH  24  25
ATOM     25  CG  TRP A   1       0.948  10.013  20.449  0.00  0.00    +0.000 A 
ATOM     26  CD1 TRP A   1       1.146   8.915  21.256  0.00  0.00    +0.000 A 
ATOM     27  NE1 TRP A   1       0.364   9.064  22.369  0.00  0.00    +0.000 N 
ATOM     28  CE2 TRP A   1      -0.358  10.235  22.294  0.00  0.00    +0.000 A 
ATOM     29  CZ2 TRP A   1      -1.281  10.789  23.186  0.00  0.00    +0.000 A 
ATOM     30  CH2 TRP A   1      -1.890  11.996  22.825  0.00  0.00    +0.000 A 
ATOM     31  CZ3 TRP A   1      -1.592  12.621  21.617  0.00  0.00    +0.000 A 
ATOM     32  CE3 TRP A   1      -0.662  12.056  20.741  0.00  0.00    +0.000 A 
ATOM     33  CD2 TRP A   1      -0.026  10.841  21.089  0.00  0.00    +0.000 A 
ATOM     34  HE1 TRP A   1       0.303   8.406  23.131  0.00  0.00    +0.000 HD
ENDBRANCH  24  25
ENDBRANCH  21  24
ENDBRANCH   3  21
TORSDOF 9
ENDMDL
MODEL 9
REMARK VINA RESULT:      -7.0      3.248      8.404
REMARK  Name = 
REMARK  11 active torsions:
REMARK  status: ('A' for Active; 'I' for Inactive)
REMARK    1  A    between atoms: C_1  and  C_2
REMARK    2  A    between atoms: C_2  and  C_3
REMARK    3  A    between atoms: C_2  and  C_4
REMARK    4  A    between atoms: C_4  and  N_5
REMARK    5  A    between atoms: C_4  and  C_16
REMARK    6  A    between atoms: N_5  and  S_6
REMARK    7  A    between atoms: S_6  and  C_9
REMARK    8  A    between atoms: N_18  and  CA_19
REMARK    9  A    between atoms: CA_19  and  C_20
REMARK   10  A    between atoms: CA_19  and  CB_22
REMARK   11  A    between atoms: CB_22  and  CG_23
REMARK                            x       y       z     vdW  Elec       q    Type
REMARK                         _______ _______ _______ _____ _____    ______ ____
ROOT
ATOM      1  C   UNK A   0       2.331   7.266  19.347  0.00  0.00    +0.000 C 
ATOM      2  O   UNK A   0       2.178   7.570  20.525  0.00  0.00    +0.000 OA
ATOM      3  N   TRP A   1       1.990   8.115  18.310  0.00  0.00    +0.000 N 
ATOM      4  H   TRP A   1       1.981   7.728  17.372  0.00  0.00    +0.000 HD
ENDROOT
BRANCH   1   5
ATOM      5  C   UNK A   0       2.840   5.870  18.952  0.00  0.00    +0.000 C 
BRANCH   5   7
ATOM      6  C   UNK A   0       1.503   3.957  19.977  0.00  0.00    +0.000 C 
ATOM      7  C   UNK A   0       1.711   4.826  18.732  0.00  0.00    +0.000 C 
ATOM      8  C   UNK A   0       1.909   3.852  17.556  0.00  0.00    +0.000 C 
ENDBRANCH   5   7
BRANCH   5   9
ATOM      9  N   UNK A   0       3.876   5.408  19.931  0.00  0.00    +0.000 NA
ATOM     10  H   UNK A   0       4.069   6.075  20.676  0.00  0.00    +0.000 HD
BRANCH   9  11
ATOM     11  S   UNK A   0       5.265   4.593  19.404  0.00  0.00    +0.000 S 
ATOM     12  O   UNK A   0       6.390   5.279  19.999  0.00  0.00    +0.000 OA
ATOM     13  O   UNK A   0       5.076   3.169  19.552  0.00  0.00    +0.000 OA
BRANCH  11  14
ATOM     14  C   UNK A   0       5.306   4.971  17.669  0.00  0.00    +0.000 A 
ATOM     15  C   UNK A   0       5.249   3.916  16.749  0.00  0.00    +0.000 A 
ATOM     16  C   UNK A   0       5.360   4.194  15.388  0.00  0.00    +0.000 A 
ATOM     17  C   UNK A   0       5.500   5.514  14.965  0.00  0.00    +0.000 A 
ATOM     18  F   UNK A   0       5.618   5.774  13.657  0.00  0.00    +0.000 F 
ATOM     19  C   UNK A   0       5.527   6.566  15.876  0.00  0.00    +0.000 A 
ATOM     20  C   UNK A   0       5.419   6.298  17.240  0.00  0.00    +0.000 A 
ENDBRANCH  11  14
ENDBRANCH   9  11
ENDBRANCH   5   9
ENDBRANCH   1   5
BRANCH   3  21
ATOM     21  CA  TRP A   1       1.534   9.504  18.487  0.00  0.00    +0.000 C 
BRANCH  21  22
ATOM     22  C   TRP A   1       2.501  10.433  17.759  0.00  0.00    +0.000 C 
ATOM     23  O   TRP A   1       2.548  11.652  17.927  0.00  0.00    +0.000 OA
ENDBRANCH  21  22
BRANCH  21  24
ATOM     24  CB  TRP A   1       0.086   9.769  18.056  0.00  0.00    +0.000 C 
BRANCH  24  25
ATOM     25  CG  TRP A   1      -0.663  10.795  18.830  0.00  0.00    +0.000 A 
ATOM     26  CD1 TRP A   1      -1.318  11.904  18.344  0.00  0.00    +0.000 A 
ATOM     27  NE1 TRP A   1      -1.850  12.578  19.409  0.00  0.00    +0.000 N 
ATOM     28  CE2 TRP A   1      -1.536  11.937  20.588  0.00  0.00    +0.000 A 
ATOM     29  CZ2 TRP A   1      -1.853  12.264  21.909  0.00  0.00    +0.000 A 
ATOM     30  CH2 TRP A   1      -1.364  11.429  22.920  0.00  0.00    +0.000 A 
ATOM     31  CZ3 TRP A   1      -0.584  10.315  22.622  0.00  0.00    +0.000 A 
ATOM     32  CE3 TRP A   1      -0.282  10.001  21.294  0.00  0.00    +0.000 A 
ATOM     33  CD2 TRP A   1      -0.773  10.825  20.254  0.00  0.00    +0.000 A 
ATOM     34  HE1 TRP A   1      -2.380  13.435  19.352  0.00  0.00    +0.000 HD
ENDBRANCH  24  25
ENDBRANCH  21  24
ENDBRANCH   3  21
TORSDOF 9
ENDMDL
