MODEL 1
REMARK VINA RESULT:      -9.0      0.000      0.000
REMARK  Name = 
REMARK  5 active torsions:
REMARK  status: ('A' for Active; 'I' for Inactive)
REMARK    1  A    between atoms: C_2  and  C_3
REMARK    2  A    between atoms: C_3  and  N_4
REMARK    3  A    between atoms: C_6  and  C_7
REMARK    4  A    between atoms: C_7  and  O_9
REMARK    5  A    between atoms: N_18  and  C_19
REMARK                            x       y       z     vdW  Elec       q    Type
REMARK                         _______ _______ _______ _____ _____    ______ ____
ROOT
ATOM      1  N   UNL     1       4.211   4.727  19.075  0.00  0.00    +0.000 N 
ATOM      2  N   UNL     1       5.415   5.234  19.509  0.00  0.00    +0.000 NA
ATOM      3  C   UNL     1       6.376   5.399  18.642  0.00  0.00    +0.000 A 
ATOM      4  C   UNL     1       6.281   5.026  17.223  0.00  0.00    +0.000 A 
ATOM      5  C   UNL     1       7.344   5.119  16.318  0.00  0.00    +0.000 A 
ATOM      6  C   UNL     1       7.174   4.707  14.992  0.00  0.00    +0.000 A 
ATOM      7  C   UNL     1       5.948   4.205  14.563  0.00  0.00    +0.000 A 
ATOM      8  C   UNL     1       4.888   4.110  15.462  0.00  0.00    +0.000 A 
ATOM      9  C   UNL     1       5.059   4.518  16.793  0.00  0.00    +0.000 A 
ATOM     10  C   UNL     1       3.951   4.364  17.752  0.00  0.00    +0.000 A 
ATOM     11  O   UNL     1       2.881   3.906  17.363  0.00  0.00    +0.000 OA
ENDROOT
BRANCH   3  12
ATOM     12  C   UNL     1       7.656   6.000  19.229  0.00  0.00    +0.000 C 
ATOM     13  O   UNL     1       8.232   6.961  18.763  0.00  0.00    +0.000 OA
BRANCH  12  14
ATOM     14  O   UNL     1       8.012   5.350  20.352  0.00  0.00    +0.000 OA
ATOM     15  H   UNL     1       7.214   5.022  20.824  0.00  0.00    +0.000 HD
ENDBRANCH  12  14
ENDBRANCH   3  12
BRANCH   1  16
ATOM     16  C   UNL     1       3.192   4.450  20.092  0.00  0.00    +0.000 C 
BRANCH  16  18
ATOM     17  O   UNL     1       0.963   5.127  20.633  0.00  0.00    +0.000 OA
ATOM     18  C   UNL     1       2.069   5.482  20.230  0.00  0.00    +0.000 C 
ATOM     19  N   UNL     1       2.462   6.795  20.029  0.00  0.00    +0.000 N 
ATOM     20  H   UNL     1       3.376   6.904  19.594  0.00  0.00    +0.000 HD
BRANCH  19  21
ATOM     21  C   UNL     1       1.713   7.958  20.307  0.00  0.00    +0.000 A 
ATOM     22  C   UNL     1       1.389   8.907  19.334  0.00  0.00    +0.000 A 
ATOM     23  C   UNL     1       0.634  10.033  19.664  0.00  0.00    +0.000 A 
ATOM     24 CL   UNL     1       0.241  11.181  18.442  0.00  0.00    +0.000 Cl
ATOM     25  C   UNL     1       0.192  10.235  20.964  0.00  0.00    +0.000 A 
ATOM     26  C   UNL     1       0.504   9.288  21.935  0.00  0.00    +0.000 A 
ATOM     27 CL   UNL     1      -0.034   9.529  23.553  0.00  0.00    +0.000 Cl
ATOM     28  C   UNL     1       1.249   8.148  21.614  0.00  0.00    +0.000 A 
ENDBRANCH  19  21
ENDBRANCH  16  18
ENDBRANCH   1  16
TORSDOF 5
ENDMDL
MODEL 2
REMARK VINA RESULT:      -9.0      0.180      1.772
REMARK  Name = 
REMARK  5 active torsions:
REMARK  status: ('A' for Active; 'I' for Inactive)
REMARK    1  A    between atoms: C_2  and  C_3
REMARK    2  A    between atoms: C_3  and  N_4
REMARK    3  A    between atoms: C_6  and  C_7
REMARK    4  A    between atoms: C_7  and  O_9
REMARK    5  A    between atoms: N_18  and  C_19
REMARK                            x       y       z     vdW  Elec       q    Type
REMARK                         _______ _______ _______ _____ _____    ______ ____
ROOT
ATOM      1  N   UNL     1       4.315   4.740  18.982  0.00  0.00    +0.000 N 
ATOM      2  N   UNL     1       5.525   5.268  19.369  0.00  0.00    +0.000 NA
ATOM      3  C   UNL     1       6.448   5.452  18.465  0.00  0.00    +0.000 A 
ATOM      4  C   UNL     1       6.304   5.079  17.050  0.00  0.00    +0.000 A 
ATOM      5  C   UNL     1       7.329   5.193  16.104  0.00  0.00    +0.000 A 
ATOM      6  C   UNL     1       7.114   4.781  14.784  0.00  0.00    +0.000 A 
ATOM      7  C   UNL     1       5.881   4.258  14.403  0.00  0.00    +0.000 A 
ATOM      8  C   UNL     1       4.860   4.141  15.343  0.00  0.00    +0.000 A 
ATOM      9  C   UNL     1       5.075   4.550  16.667  0.00  0.00    +0.000 A 
ATOM     10  C   UNL     1       4.009   4.374  17.669  0.00  0.00    +0.000 A 
ATOM     11  O   UNL     1       2.934   3.897  17.322  0.00  0.00    +0.000 OA
ENDROOT
BRANCH   3  12
ATOM     12  C   UNL     1       7.740   6.075  19.002  0.00  0.00    +0.000 C 
ATOM     13  O   UNL     1       8.196   7.131  18.618  0.00  0.00    +0.000 OA
BRANCH  12  14
ATOM     14  O   UNL     1       8.256   5.318  19.988  0.00  0.00    +0.000 OA
ATOM     15  H   UNL     1       8.124   4.364  19.791  0.00  0.00    +0.000 HD
ENDBRANCH  12  14
ENDBRANCH   3  12
BRANCH   1  16
ATOM     16  C   UNL     1       3.342   4.442  20.037  0.00  0.00    +0.000 C 
BRANCH  16  18
ATOM     17  O   UNL     1       1.080   5.017  20.557  0.00  0.00    +0.000 OA
ATOM     18  C   UNL     1       2.179   5.427  20.189  0.00  0.00    +0.000 C 
ATOM     19  N   UNL     1       2.527   6.759  20.044  0.00  0.00    +0.000 N 
ATOM     20  H   UNL     1       3.444   6.917  19.633  0.00  0.00    +0.000 HD
BRANCH  19  21
ATOM     21  C   UNL     1       1.730   7.883  20.348  0.00  0.00    +0.000 A 
ATOM     22  C   UNL     1       1.239   8.145  21.630  0.00  0.00    +0.000 A 
ATOM     23  C   UNL     1       0.463   9.280  21.874  0.00  0.00    +0.000 A 
ATOM     24 CL   UNL     1      -0.120   9.584  23.466  0.00  0.00    +0.000 Cl
ATOM     25  C   UNL     1       0.163  10.169  20.851  0.00  0.00    +0.000 A 
ATOM     26  C   UNL     1       0.658   9.917  19.576  0.00  0.00    +0.000 A 
ATOM     27 CL   UNL     1       0.289  11.009  18.296  0.00  0.00    +0.000 Cl
ATOM     28  C   UNL     1       1.447   8.790  19.320  0.00  0.00    +0.000 A 
ENDBRANCH  19  21
ENDBRANCH  16  18
ENDBRANCH   1  16
TORSDOF 5
ENDMDL
MODEL 3
REMARK VINA RESULT:      -8.1      4.676      7.865
REMARK  Name = 
REMARK  5 active torsions:
REMARK  status: ('A' for Active; 'I' for Inactive)
REMARK    1  A    between atoms: C_2  and  C_3
REMARK    2  A    between atoms: C_3  and  N_4
REMARK    3  A    between atoms: C_6  and  C_7
REMARK    4  A    between atoms: C_7  and  O_9
REMARK    5  A    between atoms: N_18  and  C_19
REMARK                            x       y       z     vdW  Elec       q    Type
REMARK                         _______ _______ _______ _____ _____    ______ ____
ROOT
ATOM      1  N   UNL     1       5.158   4.726  18.810  0.00  0.00    +0.000 N 
ATOM      2  N   UNL     1       5.528   3.507  19.331  0.00  0.00    +0.000 NA
ATOM      3  C   UNL     1       4.630   2.791  19.952  0.00  0.00    +0.000 A 
ATOM      4  C   UNL     1       3.245   3.224  20.184  0.00  0.00    +0.000 A 
ATOM      5  C   UNL     1       2.312   2.494  20.929  0.00  0.00    +0.000 A 
ATOM      6  C   UNL     1       1.024   2.999  21.129  0.00  0.00    +0.000 A 
ATOM      7  C   UNL     1       0.659   4.229  20.587  0.00  0.00    +0.000 A 
ATOM      8  C   UNL     1       1.585   4.960  19.846  0.00  0.00    +0.000 A 
ATOM      9  C   UNL     1       2.879   4.456  19.649  0.00  0.00    +0.000 A 
ATOM     10  C   UNL     1       3.870   5.258  18.911  0.00  0.00    +0.000 A 
ATOM     11  O   UNL     1       3.540   6.347  18.453  0.00  0.00    +0.000 OA
ENDROOT
BRANCH   3  12
ATOM     12  C   UNL     1       5.144   1.441  20.460  0.00  0.00    +0.000 C 
ATOM     13  O   UNL     1       5.585   1.259  21.576  0.00  0.00    +0.000 OA
BRANCH  12  14
ATOM     14  O   UNL     1       4.985   0.490  19.522  0.00  0.00    +0.000 OA
ATOM     15  H   UNL     1       5.249  -0.388  19.877  0.00  0.00    +0.000 HD
ENDBRANCH  12  14
ENDBRANCH   3  12
BRANCH   1  16
ATOM     16  C   UNL     1       6.214   5.554  18.219  0.00  0.00    +0.000 C 
BRANCH  16  18
ATOM     17  O   UNL     1       6.134   6.856  16.215  0.00  0.00    +0.000 OA
ATOM     18  C   UNL     1       6.173   5.726  16.698  0.00  0.00    +0.000 C 
ATOM     19  N   UNL     1       6.349   4.555  15.978  0.00  0.00    +0.000 N 
ATOM     20  H   UNL     1       6.254   3.702  16.524  0.00  0.00    +0.000 HD
BRANCH  19  21
ATOM     21  C   UNL     1       6.580   4.438  14.591  0.00  0.00    +0.000 A 
ATOM     22  C   UNL     1       5.975   3.461  13.797  0.00  0.00    +0.000 A 
ATOM     23  C   UNL     1       6.233   3.399  12.427  0.00  0.00    +0.000 A 
ATOM     24 CL   UNL     1       5.465   2.190  11.471  0.00  0.00    +0.000 Cl
ATOM     25  C   UNL     1       7.095   4.306  11.825  0.00  0.00    +0.000 A 
ATOM     26  C   UNL     1       7.693   5.287  12.610  0.00  0.00    +0.000 A 
ATOM     27 CL   UNL     1       8.769   6.415  11.877  0.00  0.00    +0.000 Cl
ATOM     28  C   UNL     1       7.433   5.367  13.983  0.00  0.00    +0.000 A 
ENDBRANCH  19  21
ENDBRANCH  16  18
ENDBRANCH   1  16
TORSDOF 5
ENDMDL
MODEL 4
REMARK VINA RESULT:      -8.1      4.676      7.805
REMARK  Name = 
REMARK  5 active torsions:
REMARK  status: ('A' for Active; 'I' for Inactive)
REMARK    1  A    between atoms: C_2  and  C_3
REMARK    2  A    between atoms: C_3  and  N_4
REMARK    3  A    between atoms: C_6  and  C_7
REMARK    4  A    between atoms: C_7  and  O_9
REMARK    5  A    between atoms: N_18  and  C_19
REMARK                            x       y       z     vdW  Elec       q    Type
REMARK                         _______ _______ _______ _____ _____    ______ ____
ROOT
ATOM      1  N   UNL     1       5.288   4.694  18.844  0.00  0.00    +0.000 N 
ATOM      2  N   UNL     1       5.607   3.460  19.364  0.00  0.00    +0.000 NA
ATOM      3  C   UNL     1       4.669   2.763  19.946  0.00  0.00    +0.000 A 
ATOM      4  C   UNL     1       3.289   3.232  20.136  0.00  0.00    +0.000 A 
ATOM      5  C   UNL     1       2.312   2.520  20.841  0.00  0.00    +0.000 A 
ATOM      6  C   UNL     1       1.031   3.059  21.003  0.00  0.00    +0.000 A 
ATOM      7  C   UNL     1       0.719   4.305  20.463  0.00  0.00    +0.000 A 
ATOM      8  C   UNL     1       1.690   5.016  19.762  0.00  0.00    +0.000 A 
ATOM      9  C   UNL     1       2.975   4.479  19.603  0.00  0.00    +0.000 A 
ATOM     10  C   UNL     1       4.013   5.260  18.907  0.00  0.00    +0.000 A 
ATOM     11  O   UNL     1       3.728   6.362  18.450  0.00  0.00    +0.000 OA
ENDROOT
BRANCH   3  12
ATOM     12  C   UNL     1       5.128   1.394  20.457  0.00  0.00    +0.000 C 
ATOM     13  O   UNL     1       5.522   1.188  21.586  0.00  0.00    +0.000 OA
BRANCH  12  14
ATOM     14  O   UNL     1       4.980   0.458  19.502  0.00  0.00    +0.000 OA
ATOM     15  H   UNL     1       4.602   0.859  18.687  0.00  0.00    +0.000 HD
ENDBRANCH  12  14
ENDBRANCH   3  12
BRANCH   1  16
ATOM     16  C   UNL     1       6.386   5.497  18.297  0.00  0.00    +0.000 C 
BRANCH  16  18
ATOM     17  O   UNL     1       6.398   6.909  16.367  0.00  0.00    +0.000 OA
ATOM     18  C   UNL     1       6.356   5.755  16.788  0.00  0.00    +0.000 C 
ATOM     19  N   UNL     1       6.446   4.615  16.005  0.00  0.00    +0.000 N 
ATOM     20  H   UNL     1       6.290   3.743  16.505  0.00  0.00    +0.000 HD
BRANCH  19  21
ATOM     21  C   UNL     1       6.667   4.557  14.613  0.00  0.00    +0.000 A 
ATOM     22  C   UNL     1       7.499   5.451  13.935  0.00  0.00    +0.000 A 
ATOM     23  C   UNL     1       7.689   5.338  12.557  0.00  0.00    +0.000 A 
ATOM     24 CL   UNL     1       8.729   6.447  11.749  0.00  0.00    +0.000 Cl
ATOM     25  C   UNL     1       7.055   4.338  11.832  0.00  0.00    +0.000 A 
ATOM     26  C   UNL     1       6.233   3.440  12.504  0.00  0.00    +0.000 A 
ATOM     27 CL   UNL     1       5.435   2.198  11.616  0.00  0.00    +0.000 Cl
ATOM     28  C   UNL     1       6.044   3.535  13.887  0.00  0.00    +0.000 A 
ENDBRANCH  19  21
ENDBRANCH  16  18
ENDBRANCH   1  16
TORSDOF 5
ENDMDL
MODEL 5
REMARK VINA RESULT:      -7.8      4.609      6.999
REMARK  Name = 
REMARK  5 active torsions:
REMARK  status: ('A' for Active; 'I' for Inactive)
REMARK    1  A    between atoms: C_2  and  C_3
REMARK    2  A    between atoms: C_3  and  N_4
REMARK    3  A    between atoms: C_6  and  C_7
REMARK    4  A    between atoms: C_7  and  O_9
REMARK    5  A    between atoms: N_18  and  C_19
REMARK                            x       y       z     vdW  Elec       q    Type
REMARK                         _______ _______ _______ _____ _____    ______ ____
ROOT
ATOM      1  N   UNL     1       5.861   6.523  17.287  0.00  0.00    +0.000 N 
ATOM      2  N   UNL     1       4.839   7.387  17.610  0.00  0.00    +0.000 NA
ATOM      3  C   UNL     1       3.660   6.893  17.871  0.00  0.00    +0.000 A 
ATOM      4  C   UNL     1       3.326   5.464  17.792  0.00  0.00    +0.000 A 
ATOM      5  C   UNL     1       2.039   4.950  17.983  0.00  0.00    +0.000 A 
ATOM      6  C   UNL     1       1.806   3.577  17.854  0.00  0.00    +0.000 A 
ATOM      7  C   UNL     1       2.851   2.713  17.537  0.00  0.00    +0.000 A 
ATOM      8  C   UNL     1       4.133   3.221  17.344  0.00  0.00    +0.000 A 
ATOM      9  C   UNL     1       4.367   4.598  17.469  0.00  0.00    +0.000 A 
ATOM     10  C   UNL     1       5.715   5.136  17.212  0.00  0.00    +0.000 A 
ATOM     11  O   UNL     1       6.622   4.365  16.918  0.00  0.00    +0.000 OA
ENDROOT
BRANCH   3  12
ATOM     12  C   UNL     1       2.609   7.941  18.250  0.00  0.00    +0.000 C 
ATOM     13  O   UNL     1       2.098   8.026  19.346  0.00  0.00    +0.000 OA
BRANCH  12  14
ATOM     14  O   UNL     1       2.383   8.777  17.219  0.00  0.00    +0.000 OA
ATOM     15  H   UNL     1       1.416   8.880  17.069  0.00  0.00    +0.000 HD
ENDBRANCH  12  14
ENDBRANCH   3  12
BRANCH   1  16
ATOM     16  C   UNL     1       7.143   7.115  16.891  0.00  0.00    +0.000 C 
BRANCH  16  18
ATOM     17  O   UNL     1       8.459   7.268  18.881  0.00  0.00    +0.000 OA
ATOM     18  C   UNL     1       7.903   7.885  17.975  0.00  0.00    +0.000 C 
ATOM     19  N   UNL     1       8.028   9.244  17.740  0.00  0.00    +0.000 N 
ATOM     20  H   UNL     1       7.418   9.608  17.012  0.00  0.00    +0.000 HD
BRANCH  19  21
ATOM     21  C   UNL     1       8.854  10.153  18.435  0.00  0.00    +0.000 A 
ATOM     22  C   UNL     1       8.707  10.429  19.796  0.00  0.00    +0.000 A 
ATOM     23  C   UNL     1       9.561  11.330  20.434  0.00  0.00    +0.000 A 
ATOM     24 CL   UNL     1       9.364  11.642  22.116  0.00  0.00    +0.000 Cl
ATOM     25  C   UNL     1      10.572  11.971  19.730  0.00  0.00    +0.000 A 
ATOM     26  C   UNL     1      10.728  11.692  18.376  0.00  0.00    +0.000 A 
ATOM     27 CL   UNL     1      11.974  12.484  17.489  0.00  0.00    +0.000 Cl
ATOM     28  C   UNL     1       9.886  10.782  17.727  0.00  0.00    +0.000 A 
ENDBRANCH  19  21
ENDBRANCH  16  18
ENDBRANCH   1  16
TORSDOF 5
ENDMDL
MODEL 6
REMARK VINA RESULT:      -7.8      4.613      6.787
REMARK  Name = 
REMARK  5 active torsions:
REMARK  status: ('A' for Active; 'I' for Inactive)
REMARK    1  A    between atoms: C_2  and  C_3
REMARK    2  A    between atoms: C_3  and  N_4
REMARK    3  A    between atoms: C_6  and  C_7
REMARK    4  A    between atoms: C_7  and  O_9
REMARK    5  A    between atoms: N_18  and  C_19
REMARK                            x       y       z     vdW  Elec       q    Type
REMARK                         _______ _______ _______ _____ _____    ______ ____
ROOT
ATOM      1  N   UNL     1       5.894   6.579  17.265  0.00  0.00    +0.000 N 
ATOM      2  N   UNL     1       4.870   7.458  17.532  0.00  0.00    +0.000 NA
ATOM      3  C   UNL     1       3.682   6.980  17.781  0.00  0.00    +0.000 A 
ATOM      4  C   UNL     1       3.341   5.551  17.743  0.00  0.00    +0.000 A 
ATOM      5  C   UNL     1       2.047   5.050  17.921  0.00  0.00    +0.000 A 
ATOM      6  C   UNL     1       1.808   3.675  17.834  0.00  0.00    +0.000 A 
ATOM      7  C   UNL     1       2.856   2.795  17.573  0.00  0.00    +0.000 A 
ATOM      8  C   UNL     1       4.146   3.290  17.394  0.00  0.00    +0.000 A 
ATOM      9  C   UNL     1       4.385   4.669  17.477  0.00  0.00    +0.000 A 
ATOM     10  C   UNL     1       5.741   5.191  17.234  0.00  0.00    +0.000 A 
ATOM     11  O   UNL     1       6.651   4.405  16.989  0.00  0.00    +0.000 OA
ENDROOT
BRANCH   3  12
ATOM     12  C   UNL     1       2.629   8.047  18.097  0.00  0.00    +0.000 C 
ATOM     13  O   UNL     1       2.209   8.847  17.288  0.00  0.00    +0.000 OA
BRANCH  12  14
ATOM     14  O   UNL     1       2.203   7.930  19.368  0.00  0.00    +0.000 OA
ATOM     15  H   UNL     1       2.866   7.442  19.907  0.00  0.00    +0.000 HD
ENDBRANCH  12  14
ENDBRANCH   3  12
BRANCH   1  16
ATOM     16  C   UNL     1       7.189   7.150  16.879  0.00  0.00    +0.000 C 
BRANCH  16  18
ATOM     17  O   UNL     1       8.469   7.290  18.894  0.00  0.00    +0.000 OA
ATOM     18  C   UNL     1       7.949   7.911  17.969  0.00  0.00    +0.000 C 
ATOM     19  N   UNL     1       8.119   9.263  17.719  0.00  0.00    +0.000 N 
ATOM     20  H   UNL     1       7.534   9.635  16.975  0.00  0.00    +0.000 HD
BRANCH  19  21
ATOM     21  C   UNL     1       8.957  10.157  18.419  0.00  0.00    +0.000 A 
ATOM     22  C   UNL     1      10.020  10.835  17.817  0.00  0.00    +0.000 A 
ATOM     23  C   UNL     1      10.810  11.717  18.557  0.00  0.00    +0.000 A 
ATOM     24 CL   UNL     1      12.106  12.548  17.787  0.00  0.00    +0.000 Cl
ATOM     25  C   UNL     1      10.556  11.937  19.904  0.00  0.00    +0.000 A 
ATOM     26  C   UNL     1       9.493  11.271  20.506  0.00  0.00    +0.000 A 
ATOM     27 CL   UNL     1       9.172  11.530  22.178  0.00  0.00    +0.000 Cl
ATOM     28  C   UNL     1       8.687  10.394  19.772  0.00  0.00    +0.000 A 
ENDBRANCH  19  21
ENDBRANCH  16  18
ENDBRANCH   1  16
TORSDOF 5
ENDMDL
MODEL 7
REMARK VINA RESULT:      -7.7      4.247      7.762
REMARK  Name = 
REMARK  5 active torsions:
REMARK  status: ('A' for Active; 'I' for Inactive)
REMARK    1  A    between atoms: C_2  and  C_3
REMARK    2  A    between atoms: C_3  and  N_4
REMARK    3  A    between atoms: C_6  and  C_7
REMARK    4  A    between atoms: C_7  and  O_9
REMARK    5  A    between atoms: N_18  and  C_19
REMARK                            x       y       z     vdW  Elec       q    Type
REMARK                         _______ _______ _______ _____ _____    ______ ____
ROOT
ATOM      1  N   UNL     1       5.205   5.060  19.035  0.00  0.00    +0.000 N 
ATOM      2  N   UNL     1       4.418   6.189  19.041  0.00  0.00    +0.000 NA
ATOM      3  C   UNL     1       3.161   6.076  19.375  0.00  0.00    +0.000 A 
ATOM      4  C   UNL     1       2.504   4.802  19.699  0.00  0.00    +0.000 A 
ATOM      5  C   UNL     1       1.136   4.674  19.967  0.00  0.00    +0.000 A 
ATOM      6  C   UNL     1       0.588   3.415  20.232  0.00  0.00    +0.000 A 
ATOM      7  C   UNL     1       1.399   2.282  20.234  0.00  0.00    +0.000 A 
ATOM      8  C   UNL     1       2.760   2.405  19.966  0.00  0.00    +0.000 A 
ATOM      9  C   UNL     1       3.309   3.667  19.695  0.00  0.00    +0.000 A 
ATOM     10  C   UNL     1       4.739   3.784  19.360  0.00  0.00    +0.000 A 
ATOM     11  O   UNL     1       5.437   2.775  19.349  0.00  0.00    +0.000 OA
ENDROOT
BRANCH   3  12
ATOM     12  C   UNL     1       2.390   7.399  19.378  0.00  0.00    +0.000 C 
ATOM     13  O   UNL     1       2.063   7.998  18.375  0.00  0.00    +0.000 OA
BRANCH  12  14
ATOM     14  O   UNL     1       2.084   7.766  20.637  0.00  0.00    +0.000 OA
ATOM     15  H   UNL     1       1.465   8.529  20.629  0.00  0.00    +0.000 HD
ENDBRANCH  12  14
ENDBRANCH   3  12
BRANCH   1  16
ATOM     16  C   UNL     1       6.581   5.202  18.548  0.00  0.00    +0.000 C 
BRANCH  16  18
ATOM     17  O   UNL     1       7.383   6.496  16.704  0.00  0.00    +0.000 OA
ATOM     18  C   UNL     1       6.747   5.504  17.056  0.00  0.00    +0.000 C 
ATOM     19  N   UNL     1       6.282   4.512  16.209  0.00  0.00    +0.000 N 
ATOM     20  H   UNL     1       5.686   3.818  16.654  0.00  0.00    +0.000 HD
BRANCH  19  21
ATOM     21  C   UNL     1       6.500   4.411  14.819  0.00  0.00    +0.000 A 
ATOM     22  C   UNL     1       5.838   3.486  14.008  0.00  0.00    +0.000 A 
ATOM     23  C   UNL     1       6.086   3.440  12.635  0.00  0.00    +0.000 A 
ATOM     24 CL   UNL     1       5.247   2.297  11.658  0.00  0.00    +0.000 Cl
ATOM     25  C   UNL     1       6.995   4.309  12.048  0.00  0.00    +0.000 A 
ATOM     26  C   UNL     1       7.650   5.238  12.850  0.00  0.00    +0.000 A 
ATOM     27 CL   UNL     1       8.786   6.319  12.135  0.00  0.00    +0.000 Cl
ATOM     28  C   UNL     1       7.402   5.303  14.225  0.00  0.00    +0.000 A 
ENDBRANCH  19  21
ENDBRANCH  16  18
ENDBRANCH   1  16
TORSDOF 5
ENDMDL
MODEL 8
REMARK VINA RESULT:      -7.7      4.290      7.821
REMARK  Name = 
REMARK  5 active torsions:
REMARK  status: ('A' for Active; 'I' for Inactive)
REMARK    1  A    between atoms: C_2  and  C_3
REMARK    2  A    between atoms: C_3  and  N_4
REMARK    3  A    between atoms: C_6  and  C_7
REMARK    4  A    between atoms: C_7  and  O_9
REMARK    5  A    between atoms: N_18  and  C_19
REMARK                            x       y       z     vdW  Elec       q    Type
REMARK                         _______ _______ _______ _____ _____    ______ ____
ROOT
ATOM      1  N   UNL     1       5.183   5.202  18.920  0.00  0.00    +0.000 N 
ATOM      2  N   UNL     1       4.366   6.308  18.864  0.00  0.00    +0.000 NA
ATOM      3  C   UNL     1       3.125   6.192  19.251  0.00  0.00    +0.000 A 
ATOM      4  C   UNL     1       2.513   4.933  19.699  0.00  0.00    +0.000 A 
ATOM      5  C   UNL     1       1.160   4.793  20.025  0.00  0.00    +0.000 A 
ATOM      6  C   UNL     1       0.656   3.546  20.409  0.00  0.00    +0.000 A 
ATOM      7  C   UNL     1       1.496   2.437  20.471  0.00  0.00    +0.000 A 
ATOM      8  C   UNL     1       2.843   2.572  20.145  0.00  0.00    +0.000 A 
ATOM      9  C   UNL     1       3.349   3.821  19.756  0.00  0.00    +0.000 A 
ATOM     10  C   UNL     1       4.763   3.945  19.361  0.00  0.00    +0.000 A 
ATOM     11  O   UNL     1       5.487   2.956  19.405  0.00  0.00    +0.000 OA
ENDROOT
BRANCH   3  12
ATOM     12  C   UNL     1       2.319   7.492  19.177  0.00  0.00    +0.000 C 
ATOM     13  O   UNL     1       1.877   8.075  20.146  0.00  0.00    +0.000 OA
BRANCH  12  14
ATOM     14  O   UNL     1       2.222   7.917  17.904  0.00  0.00    +0.000 OA
ATOM     15  H   UNL     1       1.462   8.533  17.806  0.00  0.00    +0.000 HD
ENDBRANCH  12  14
ENDBRANCH   3  12
BRANCH   1  16
ATOM     16  C   UNL     1       6.537   5.337  18.373  0.00  0.00    +0.000 C 
BRANCH  16  18
ATOM     17  O   UNL     1       7.057   6.766  16.528  0.00  0.00    +0.000 OA
ATOM     18  C   UNL     1       6.640   5.665  16.881  0.00  0.00    +0.000 C 
ATOM     19  N   UNL     1       6.392   4.596  16.036  0.00  0.00    +0.000 N 
ATOM     20  H   UNL     1       5.953   3.794  16.482  0.00  0.00    +0.000 HD
BRANCH  19  21
ATOM     21  C   UNL     1       6.630   4.540  14.646  0.00  0.00    +0.000 A 
ATOM     22  C   UNL     1       7.458   5.444  13.977  0.00  0.00    +0.000 A 
ATOM     23  C   UNL     1       7.665   5.334  12.601  0.00  0.00    +0.000 A 
ATOM     24 CL   UNL     1       8.699   6.456  11.804  0.00  0.00    +0.000 Cl
ATOM     25  C   UNL     1       7.053   4.324  11.870  0.00  0.00    +0.000 A 
ATOM     26  C   UNL     1       6.235   3.415  12.534  0.00  0.00    +0.000 A 
ATOM     27 CL   UNL     1       5.465   2.162  11.638  0.00  0.00    +0.000 Cl
ATOM     28  C   UNL     1       6.029   3.508  13.914  0.00  0.00    +0.000 A 
ENDBRANCH  19  21
ENDBRANCH  16  18
ENDBRANCH   1  16
TORSDOF 5
ENDMDL
MODEL 9
REMARK VINA RESULT:      -7.5      3.095      4.813
REMARK  Name = 
REMARK  5 active torsions:
REMARK  status: ('A' for Active; 'I' for Inactive)
REMARK    1  A    between atoms: C_2  and  C_3
REMARK    2  A    between atoms: C_3  and  N_4
REMARK    3  A    between atoms: C_6  and  C_7
REMARK    4  A    between atoms: C_7  and  O_9
REMARK    5  A    between atoms: N_18  and  C_19
REMARK                            x       y       z     vdW  Elec       q    Type
REMARK                         _______ _______ _______ _____ _____    ______ ____
ROOT
ATOM      1  N   UNL     1       2.174   6.904  20.381  0.00  0.00    +0.000 N 
ATOM      2  N   UNL     1       1.834   5.752  21.054  0.00  0.00    +0.000 NA
ATOM      3  C   UNL     1       2.132   4.600  20.518  0.00  0.00    +0.000 A 
ATOM      4  C   UNL     1       2.767   4.442  19.201  0.00  0.00    +0.000 A 
ATOM      5  C   UNL     1       3.000   3.205  18.590  0.00  0.00    +0.000 A 
ATOM      6  C   UNL     1       3.578   3.149  17.318  0.00  0.00    +0.000 A 
ATOM      7  C   UNL     1       3.927   4.322  16.652  0.00  0.00    +0.000 A 
ATOM      8  C   UNL     1       3.695   5.555  17.257  0.00  0.00    +0.000 A 
ATOM      9  C   UNL     1       3.111   5.612  18.530  0.00  0.00    +0.000 A 
ATOM     10  C   UNL     1       2.818   6.920  19.142  0.00  0.00    +0.000 A 
ATOM     11  O   UNL     1       3.116   7.945  18.537  0.00  0.00    +0.000 OA
ENDROOT
BRANCH   3  12
ATOM     12  C   UNL     1       1.737   3.390  21.368  0.00  0.00    +0.000 C 
ATOM     13  O   UNL     1       2.368   2.999  22.328  0.00  0.00    +0.000 OA
BRANCH  12  14
ATOM     14  O   UNL     1       0.576   2.866  20.935  0.00  0.00    +0.000 OA
ATOM     15  H   UNL     1       0.676   2.523  20.019  0.00  0.00    +0.000 HD
ENDBRANCH  12  14
ENDBRANCH   3  12
BRANCH   1  16
ATOM     16  C   UNL     1       1.727   8.176  20.956  0.00  0.00    +0.000 C 
BRANCH  16  18
ATOM     17  O   UNL     1      -0.638   8.375  21.244  0.00  0.00    +0.000 OA
ATOM     18  C   UNL     1       0.332   8.656  20.544  0.00  0.00    +0.000 C 
ATOM     19  N   UNL     1       0.315   9.526  19.467  0.00  0.00    +0.000 N 
ATOM     20  H   UNL     1       1.182   9.564  18.936  0.00  0.00    +0.000 HD
BRANCH  19  21
ATOM     21  C   UNL     1      -0.779  10.295  19.014  0.00  0.00    +0.000 A 
ATOM     22  C   UNL     1      -1.417  11.253  19.806  0.00  0.00    +0.000 A 
ATOM     23  C   UNL     1      -2.488  11.992  19.300  0.00  0.00    +0.000 A 
ATOM     24 CL   UNL     1      -3.250  13.173  20.295  0.00  0.00    +0.000 Cl
ATOM     25  C   UNL     1      -2.940  11.791  18.003  0.00  0.00    +0.000 A 
ATOM     26  C   UNL     1      -2.301  10.845  17.208  0.00  0.00    +0.000 A 
ATOM     27 CL   UNL     1      -2.857  10.581  15.599  0.00  0.00    +0.000 Cl
ATOM     28  C   UNL     1      -1.220  10.106  17.698  0.00  0.00    +0.000 A 
ENDBRANCH  19  21
ENDBRANCH  16  18
ENDBRANCH   1  16
TORSDOF 5
ENDMDL
