MODEL 1
REMARK VINA RESULT:      -9.0      0.000      0.000
REMARK  Name = 
REMARK  2 active torsions:
REMARK  status: ('A' for Active; 'I' for Inactive)
REMARK    1  A    between atoms: C_3  and  C_4
REMARK    2  A    between atoms: C_12  and  N_13
REMARK                            x       y       z     vdW  Elec       q    Type
REMARK                         _______ _______ _______ _____ _____    ______ ____
ROOT
ATOM      1  C   UNL     1       3.010   7.088  18.455  0.00  0.00    +0.000 A 
ATOM      2  C   UNL     1       3.993   7.341  17.509  0.00  0.00    +0.000 A 
ATOM      3  C   UNL     1       5.051   6.456  17.386  0.00  0.00    +0.000 A 
ATOM      4  C   UNL     1       6.131   6.740  16.550  0.00  0.00    +0.000 A 
ATOM      5  N   UNL     1       7.295   6.064  16.560  0.00  0.00    +0.000 NA
ATOM      6  C   UNL     1       7.378   5.043  17.435  0.00  0.00    +0.000 A 
ATOM      7  C   UNL     1       6.312   4.605  18.212  0.00  0.00    +0.000 A 
ATOM      8  C   UNL     1       5.074   5.296  18.170  0.00  0.00    +0.000 A 
ATOM      9  C   UNL     1       3.882   4.951  18.863  0.00  0.00    +0.000 A 
ATOM     10  N   UNL     1       2.912   5.880  19.071  0.00  0.00    +0.000 NA
ENDROOT
BRANCH   9  11
ATOM     11  N   UNL     1       3.676   3.645  19.312  0.00  0.00    +0.000 N 
ATOM     12  C   UNL     1       2.877   3.385  20.513  0.00  0.00    +0.000 C 
ATOM     13  C   UNL     1       1.362   3.470  20.365  0.00  0.00    +0.000 C 
ATOM     14  C   UNL     1       0.673   2.606  19.309  0.00  0.00    +0.000 C 
ATOM     15  N   UNL     1       1.458   1.536  18.697  0.00  0.00    +0.000 NA
ATOM     16  C   UNL     1       2.420   2.099  17.734  0.00  0.00    +0.000 C 
ATOM     17  C   UNL     1       3.765   2.542  18.337  0.00  0.00    +0.000 C 
ATOM     18  H   UNL     1       0.812   0.938  18.179  0.00  0.00    +0.000 HD
ENDBRANCH   9  11
BRANCH   1  21
ATOM     19  C   UNL     1       0.738  10.095  18.306  0.00  0.00    +0.000 A 
ATOM     20  C   UNL     1       1.565   9.063  17.878  0.00  0.00    +0.000 A 
ATOM     21  C   UNL     1       2.039   8.145  18.815  0.00  0.00    +0.000 A 
ATOM     22  C   UNL     1       1.575   8.286  20.139  0.00  0.00    +0.000 A 
ATOM     23  C   UNL     1       0.751   9.351  20.469  0.00  0.00    +0.000 A 
ATOM     24  N   UNL     1       0.334  10.270  19.580  0.00  0.00    +0.000 NA
ENDBRANCH   1  21
TORSDOF 2
ENDMDL
MODEL 2
REMARK VINA RESULT:      -8.9      0.594      1.273
REMARK  Name = 
REMARK  2 active torsions:
REMARK  status: ('A' for Active; 'I' for Inactive)
REMARK    1  A    between atoms: C_3  and  C_4
REMARK    2  A    between atoms: C_12  and  N_13
REMARK                            x       y       z     vdW  Elec       q    Type
REMARK                         _______ _______ _______ _____ _____    ______ ____
ROOT
ATOM      1  C   UNL     1       3.075   6.936  18.312  0.00  0.00    +0.000 A 
ATOM      2  C   UNL     1       4.085   7.237  17.409  0.00  0.00    +0.000 A 
ATOM      3  C   UNL     1       5.082   6.304  17.180  0.00  0.00    +0.000 A 
ATOM      4  C   UNL     1       6.189   6.616  16.390  0.00  0.00    +0.000 A 
ATOM      5  N   UNL     1       7.304   5.866  16.319  0.00  0.00    +0.000 NA
ATOM      6  C   UNL     1       7.307   4.740  17.060  0.00  0.00    +0.000 A 
ATOM      7  C   UNL     1       6.205   4.283  17.772  0.00  0.00    +0.000 A 
ATOM      8  C   UNL     1       5.017   5.056  17.812  0.00  0.00    +0.000 A 
ATOM      9  C   UNL     1       3.796   4.709  18.452  0.00  0.00    +0.000 A 
ATOM     10  N   UNL     1       2.888   5.670  18.771  0.00  0.00    +0.000 NA
ENDROOT
BRANCH   9  11
ATOM     11  N   UNL     1       3.497   3.374  18.733  0.00  0.00    +0.000 N 
ATOM     12  C   UNL     1       3.734   2.822  20.070  0.00  0.00    +0.000 C 
ATOM     13  C   UNL     1       2.720   3.176  21.152  0.00  0.00    +0.000 C 
ATOM     14  C   UNL     1       1.243   2.860  20.913  0.00  0.00    +0.000 C 
ATOM     15  N   UNL     1       0.915   1.978  19.795  0.00  0.00    +0.000 NA
ATOM     16  C   UNL     1       1.055   2.701  18.519  0.00  0.00    +0.000 C 
ATOM     17  C   UNL     1       2.473   2.695  17.918  0.00  0.00    +0.000 C 
ATOM     18  H   UNL     1      -0.065   1.709  19.893  0.00  0.00    +0.000 HD
ENDBRANCH   9  11
BRANCH   1  21
ATOM     19  C   UNL     1       0.833   9.041  20.495  0.00  0.00    +0.000 A 
ATOM     20  C   UNL     1       1.765   8.077  20.129  0.00  0.00    +0.000 A 
ATOM     21  C   UNL     1       2.174   8.003  18.798  0.00  0.00    +0.000 A 
ATOM     22  C   UNL     1       1.663   8.981  17.918  0.00  0.00    +0.000 A 
ATOM     23  C   UNL     1       0.736   9.903  18.378  0.00  0.00    +0.000 A 
ATOM     24  N   UNL     1       0.298   9.944  19.649  0.00  0.00    +0.000 NA
ENDBRANCH   1  21
TORSDOF 2
ENDMDL
MODEL 3
REMARK VINA RESULT:      -8.3      1.396      4.438
REMARK  Name = 
REMARK  2 active torsions:
REMARK  status: ('A' for Active; 'I' for Inactive)
REMARK    1  A    between atoms: C_3  and  C_4
REMARK    2  A    between atoms: C_12  and  N_13
REMARK                            x       y       z     vdW  Elec       q    Type
REMARK                         _______ _______ _______ _____ _____    ______ ____
ROOT
ATOM      1  C   UNL     1       2.513   6.775  19.406  0.00  0.00    +0.000 A 
ATOM      2  C   UNL     1       1.879   5.956  20.329  0.00  0.00    +0.000 A 
ATOM      3  C   UNL     1       2.178   4.604  20.346  0.00  0.00    +0.000 A 
ATOM      4  C   UNL     1       1.465   3.723  21.159  0.00  0.00    +0.000 A 
ATOM      5  N   UNL     1       1.524   2.382  21.055  0.00  0.00    +0.000 NA
ATOM      6  C   UNL     1       2.348   1.898  20.105  0.00  0.00    +0.000 A 
ATOM      7  C   UNL     1       3.192   2.693  19.340  0.00  0.00    +0.000 A 
ATOM      8  C   UNL     1       3.156   4.104  19.480  0.00  0.00    +0.000 A 
ATOM      9  C   UNL     1       3.982   5.048  18.809  0.00  0.00    +0.000 A 
ATOM     10  N   UNL     1       3.599   6.348  18.707  0.00  0.00    +0.000 NA
ENDROOT
BRANCH   9  11
ATOM     11  N   UNL     1       5.211   4.660  18.273  0.00  0.00    +0.000 N 
ATOM     12  C   UNL     1       5.277   3.937  17.000  0.00  0.00    +0.000 C 
ATOM     13  C   UNL     1       5.093   4.760  15.730  0.00  0.00    +0.000 C 
ATOM     14  C   UNL     1       6.011   5.958  15.485  0.00  0.00    +0.000 C 
ATOM     15  N   UNL     1       7.198   6.080  16.329  0.00  0.00    +0.000 NA
ATOM     16  C   UNL     1       6.819   6.537  17.677  0.00  0.00    +0.000 C 
ATOM     17  C   UNL     1       6.417   5.418  18.656  0.00  0.00    +0.000 C 
ATOM     18  H   UNL     1       7.797   6.796  15.915  0.00  0.00    +0.000 HD
ENDBRANCH   9  11
BRANCH   1  21
ATOM     19  C   UNL     1       1.884  10.162  17.869  0.00  0.00    +0.000 A 
ATOM     20  C   UNL     1       2.298   8.840  17.987  0.00  0.00    +0.000 A 
ATOM     21  C   UNL     1       2.010   8.145  19.162  0.00  0.00    +0.000 A 
ATOM     22  C   UNL     1       1.238   8.820  20.131  0.00  0.00    +0.000 A 
ATOM     23  C   UNL     1       0.873  10.140  19.921  0.00  0.00    +0.000 A 
ATOM     24  N   UNL     1       1.194  10.832  18.813  0.00  0.00    +0.000 NA
ENDBRANCH   1  21
TORSDOF 2
ENDMDL
MODEL 4
REMARK VINA RESULT:      -8.2      1.243      4.603
REMARK  Name = 
REMARK  2 active torsions:
REMARK  status: ('A' for Active; 'I' for Inactive)
REMARK    1  A    between atoms: C_3  and  C_4
REMARK    2  A    between atoms: C_12  and  N_13
REMARK                            x       y       z     vdW  Elec       q    Type
REMARK                         _______ _______ _______ _____ _____    ______ ____
ROOT
ATOM      1  C   UNL     1       2.320   6.831  19.527  0.00  0.00    +0.000 A 
ATOM      2  C   UNL     1       1.761   5.932  20.424  0.00  0.00    +0.000 A 
ATOM      3  C   UNL     1       2.009   4.579  20.263  0.00  0.00    +0.000 A 
ATOM      4  C   UNL     1       1.358   3.632  21.053  0.00  0.00    +0.000 A 
ATOM      5  N   UNL     1       1.354   2.310  20.801  0.00  0.00    +0.000 NA
ATOM      6  C   UNL     1       2.048   1.913  19.716  0.00  0.00    +0.000 A 
ATOM      7  C   UNL     1       2.831   2.765  18.948  0.00  0.00    +0.000 A 
ATOM      8  C   UNL     1       2.865   4.152  19.241  0.00  0.00    +0.000 A 
ATOM      9  C   UNL     1       3.646   5.143  18.585  0.00  0.00    +0.000 A 
ATOM     10  N   UNL     1       3.304   6.456  18.666  0.00  0.00    +0.000 NA
ENDROOT
BRANCH   9  11
ATOM     11  N   UNL     1       4.793   4.785  17.873  0.00  0.00    +0.000 N 
ATOM     12  C   UNL     1       4.987   5.238  16.493  0.00  0.00    +0.000 C 
ATOM     13  C   UNL     1       5.434   6.682  16.298  0.00  0.00    +0.000 C 
ATOM     14  C   UNL     1       6.709   7.163  16.993  0.00  0.00    +0.000 C 
ATOM     15  N   UNL     1       7.586   6.145  17.568  0.00  0.00    +0.000 NA
ATOM     16  C   UNL     1       7.003   5.617  18.814  0.00  0.00    +0.000 C 
ATOM     17  C   UNL     1       6.015   4.451  18.629  0.00  0.00    +0.000 C 
ATOM     18  H   UNL     1       8.469   6.600  17.806  0.00  0.00    +0.000 HD
ENDBRANCH   9  11
BRANCH   1  21
ATOM     19  C   UNL     1       0.693  10.109  20.439  0.00  0.00    +0.000 A 
ATOM     20  C   UNL     1       1.209   8.826  20.579  0.00  0.00    +0.000 A 
ATOM     21  C   UNL     1       1.845   8.232  19.490  0.00  0.00    +0.000 A 
ATOM     22  C   UNL     1       1.992   9.019  18.328  0.00  0.00    +0.000 A 
ATOM     23  C   UNL     1       1.443  10.291  18.285  0.00  0.00    +0.000 A 
ATOM     24  N   UNL     1       0.780  10.848  19.316  0.00  0.00    +0.000 NA
ENDBRANCH   1  21
TORSDOF 2
ENDMDL
MODEL 5
REMARK VINA RESULT:      -8.1      0.995      1.479
REMARK  Name = 
REMARK  2 active torsions:
REMARK  status: ('A' for Active; 'I' for Inactive)
REMARK    1  A    between atoms: C_3  and  C_4
REMARK    2  A    between atoms: C_12  and  N_13
REMARK                            x       y       z     vdW  Elec       q    Type
REMARK                         _______ _______ _______ _____ _____    ______ ____
ROOT
ATOM      1  C   UNL     1       2.755   7.183  18.164  0.00  0.00    +0.000 A 
ATOM      2  C   UNL     1       3.740   7.408  17.212  0.00  0.00    +0.000 A 
ATOM      3  C   UNL     1       4.602   6.376  16.879  0.00  0.00    +0.000 A 
ATOM      4  C   UNL     1       5.690   6.595  16.035  0.00  0.00    +0.000 A 
ATOM      5  N   UNL     1       6.700   5.723  15.860  0.00  0.00    +0.000 NA
ATOM      6  C   UNL     1       6.610   4.568  16.550  0.00  0.00    +0.000 A 
ATOM      7  C   UNL     1       5.504   4.209  17.311  0.00  0.00    +0.000 A 
ATOM      8  C   UNL     1       4.423   5.115  17.460  0.00  0.00    +0.000 A 
ATOM      9  C   UNL     1       3.208   4.883  18.161  0.00  0.00    +0.000 A 
ATOM     10  N   UNL     1       2.444   5.926  18.579  0.00  0.00    +0.000 NA
ENDROOT
BRANCH   9  11
ATOM     11  N   UNL     1       2.767   3.580  18.403  0.00  0.00    +0.000 N 
ATOM     12  C   UNL     1       3.649   2.599  19.041  0.00  0.00    +0.000 C 
ATOM     13  C   UNL     1       3.833   2.714  20.549  0.00  0.00    +0.000 C 
ATOM     14  C   UNL     1       2.596   2.689  21.448  0.00  0.00    +0.000 C 
ATOM     15  N   UNL     1       1.333   2.267  20.845  0.00  0.00    +0.000 NA
ATOM     16  C   UNL     1       0.796   3.339  19.990  0.00  0.00    +0.000 C 
ATOM     17  C   UNL     1       1.318   3.342  18.541  0.00  0.00    +0.000 C 
ATOM     18  H   UNL     1       0.668   2.111  21.604  0.00  0.00    +0.000 HD
ENDBRANCH   9  11
BRANCH   1  21
ATOM     19  C   UNL     1       1.169  10.565  18.680  0.00  0.00    +0.000 A 
ATOM     20  C   UNL     1       1.771   9.493  18.033  0.00  0.00    +0.000 A 
ATOM     21  C   UNL     1       2.020   8.324  18.752  0.00  0.00    +0.000 A 
ATOM     22  C   UNL     1       1.563   8.285  20.086  0.00  0.00    +0.000 A 
ATOM     23  C   UNL     1       0.973   9.408  20.644  0.00  0.00    +0.000 A 
ATOM     24  N   UNL     1       0.779  10.557  19.970  0.00  0.00    +0.000 NA
ENDBRANCH   1  21
TORSDOF 2
ENDMDL
MODEL 6
REMARK VINA RESULT:      -7.9      1.265      4.187
REMARK  Name = 
REMARK  2 active torsions:
REMARK  status: ('A' for Active; 'I' for Inactive)
REMARK    1  A    between atoms: C_3  and  C_4
REMARK    2  A    between atoms: C_12  and  N_13
REMARK                            x       y       z     vdW  Elec       q    Type
REMARK                         _______ _______ _______ _____ _____    ______ ____
ROOT
ATOM      1  C   UNL     1       2.443   7.469  18.890  0.00  0.00    +0.000 A 
ATOM      2  C   UNL     1       2.306   6.304  19.631  0.00  0.00    +0.000 A 
ATOM      3  C   UNL     1       2.970   5.162  19.216  0.00  0.00    +0.000 A 
ATOM      4  C   UNL     1       2.752   3.937  19.847  0.00  0.00    +0.000 A 
ATOM      5  N   UNL     1       3.160   2.751  19.359  0.00  0.00    +0.000 NA
ATOM      6  C   UNL     1       3.834   2.792  18.193  0.00  0.00    +0.000 A 
ATOM      7  C   UNL     1       4.209   3.971  17.561  0.00  0.00    +0.000 A 
ATOM      8  C   UNL     1       3.812   5.221  18.100  0.00  0.00    +0.000 A 
ATOM      9  C   UNL     1       4.151   6.509  17.603  0.00  0.00    +0.000 A 
ATOM     10  N   UNL     1       3.404   7.595  17.936  0.00  0.00    +0.000 NA
ENDROOT
BRANCH   9  11
ATOM     11  N   UNL     1       5.274   6.683  16.792  0.00  0.00    +0.000 N 
ATOM     12  C   UNL     1       6.585   6.968  17.382  0.00  0.00    +0.000 C 
ATOM     13  C   UNL     1       7.333   5.792  17.999  0.00  0.00    +0.000 C 
ATOM     14  C   UNL     1       7.612   4.559  17.139  0.00  0.00    +0.000 C 
ATOM     15  N   UNL     1       7.407   4.683  15.698  0.00  0.00    +0.000 NA
ATOM     16  C   UNL     1       5.966   4.681  15.387  0.00  0.00    +0.000 C 
ATOM     17  C   UNL     1       5.282   6.058  15.456  0.00  0.00    +0.000 C 
ATOM     18  H   UNL     1       7.821   3.861  15.256  0.00  0.00    +0.000 HD
ENDBRANCH   9  11
BRANCH   1  21
ATOM     19  C   UNL     1       0.135   9.952  20.543  0.00  0.00    +0.000 A 
ATOM     20  C   UNL     1       1.073   8.936  20.404  0.00  0.00    +0.000 A 
ATOM     21  C   UNL     1       1.531   8.610  19.128  0.00  0.00    +0.000 A 
ATOM     22  C   UNL     1       1.060   9.400  18.059  0.00  0.00    +0.000 A 
ATOM     23  C   UNL     1       0.123  10.392  18.298  0.00  0.00    +0.000 A 
ATOM     24  N   UNL     1      -0.363  10.676  19.520  0.00  0.00    +0.000 NA
ENDBRANCH   1  21
TORSDOF 2
ENDMDL
MODEL 7
REMARK VINA RESULT:      -7.9      1.271      4.493
REMARK  Name = 
REMARK  2 active torsions:
REMARK  status: ('A' for Active; 'I' for Inactive)
REMARK    1  A    between atoms: C_3  and  C_4
REMARK    2  A    between atoms: C_12  and  N_13
REMARK                            x       y       z     vdW  Elec       q    Type
REMARK                         _______ _______ _______ _____ _____    ______ ____
ROOT
ATOM      1  C   UNL     1       2.310   6.721  19.325  0.00  0.00    +0.000 A 
ATOM      2  C   UNL     1       1.926   5.578  20.012  0.00  0.00    +0.000 A 
ATOM      3  C   UNL     1       2.182   4.339  19.449  0.00  0.00    +0.000 A 
ATOM      4  C   UNL     1       1.692   3.171  20.034  0.00  0.00    +0.000 A 
ATOM      5  N   UNL     1       1.684   1.968  19.431  0.00  0.00    +0.000 NA
ATOM      6  C   UNL     1       2.206   1.925  18.190  0.00  0.00    +0.000 A 
ATOM      7  C   UNL     1       2.833   3.005  17.580  0.00  0.00    +0.000 A 
ATOM      8  C   UNL     1       2.876   4.262  18.236  0.00  0.00    +0.000 A 
ATOM      9  C   UNL     1       3.514   5.444  17.771  0.00  0.00    +0.000 A 
ATOM     10  N   UNL     1       3.154   6.660  18.260  0.00  0.00    +0.000 NA
ENDROOT
BRANCH   9  11
ATOM     11  N   UNL     1       4.542   5.371  16.828  0.00  0.00    +0.000 N 
ATOM     12  C   UNL     1       5.089   6.589  16.224  0.00  0.00    +0.000 C 
ATOM     13  C   UNL     1       6.056   7.406  17.072  0.00  0.00    +0.000 C 
ATOM     14  C   UNL     1       7.301   6.723  17.639  0.00  0.00    +0.000 C 
ATOM     15  N   UNL     1       7.651   5.409  17.103  0.00  0.00    +0.000 NA
ATOM     16  C   UNL     1       6.739   4.383  17.637  0.00  0.00    +0.000 C 
ATOM     17  C   UNL     1       5.432   4.195  16.846  0.00  0.00    +0.000 C 
ATOM     18  H   UNL     1       8.594   5.186  17.426  0.00  0.00    +0.000 HD
ENDBRANCH   9  11
BRANCH   1  21
ATOM     19  C   UNL     1       0.864   9.541  21.370  0.00  0.00    +0.000 A 
ATOM     20  C   UNL     1       1.438   8.313  21.065  0.00  0.00    +0.000 A 
ATOM     21  C   UNL     1       1.798   8.044  19.745  0.00  0.00    +0.000 A 
ATOM     22  C   UNL     1       1.621   9.086  18.810  0.00  0.00    +0.000 A 
ATOM     23  C   UNL     1       1.039  10.278  19.211  0.00  0.00    +0.000 A 
ATOM     24  N   UNL     1       0.642  10.522  20.473  0.00  0.00    +0.000 NA
ENDBRANCH   1  21
TORSDOF 2
ENDMDL
MODEL 8
REMARK VINA RESULT:      -7.8      1.226      4.069
REMARK  Name = 
REMARK  2 active torsions:
REMARK  status: ('A' for Active; 'I' for Inactive)
REMARK    1  A    between atoms: C_3  and  C_4
REMARK    2  A    between atoms: C_12  and  N_13
REMARK                            x       y       z     vdW  Elec       q    Type
REMARK                         _______ _______ _______ _____ _____    ______ ____
ROOT
ATOM      1  C   UNL     1       2.510   7.347  18.874  0.00  0.00    +0.000 A 
ATOM      2  C   UNL     1       2.301   6.160  19.563  0.00  0.00    +0.000 A 
ATOM      3  C   UNL     1       2.914   5.004  19.112  0.00  0.00    +0.000 A 
ATOM      4  C   UNL     1       2.623   3.767  19.687  0.00  0.00    +0.000 A 
ATOM      5  N   UNL     1       2.981   2.583  19.156  0.00  0.00    +0.000 NA
ATOM      6  C   UNL     1       3.678   2.637  18.004  0.00  0.00    +0.000 A 
ATOM      7  C   UNL     1       4.124   3.821  17.429  0.00  0.00    +0.000 A 
ATOM      8  C   UNL     1       3.779   5.066  18.013  0.00  0.00    +0.000 A 
ATOM      9  C   UNL     1       4.192   6.355  17.577  0.00  0.00    +0.000 A 
ATOM     10  N   UNL     1       3.494   7.463  17.943  0.00  0.00    +0.000 NA
ENDROOT
BRANCH   9  11
ATOM     11  N   UNL     1       5.338   6.505  16.793  0.00  0.00    +0.000 N 
ATOM     12  C   UNL     1       6.614   6.889  17.402  0.00  0.00    +0.000 C 
ATOM     13  C   UNL     1       7.381   5.798  18.142  0.00  0.00    +0.000 C 
ATOM     14  C   UNL     1       7.736   4.510  17.398  0.00  0.00    +0.000 C 
ATOM     15  N   UNL     1       7.581   4.507  15.945  0.00  0.00    +0.000 NA
ATOM     16  C   UNL     1       6.154   4.422  15.587  0.00  0.00    +0.000 C 
ATOM     17  C   UNL     1       5.418   5.773  15.516  0.00  0.00    +0.000 C 
ATOM     18  H   UNL     1       8.041   3.668  15.589  0.00  0.00    +0.000 HD
ENDBRANCH   9  11
BRANCH   1  21
ATOM     19  C   UNL     1       0.597  10.575  18.494  0.00  0.00    +0.000 A 
ATOM     20  C   UNL     1       1.318   9.438  18.148  0.00  0.00    +0.000 A 
ATOM     21  C   UNL     1       1.651   8.521  19.144  0.00  0.00    +0.000 A 
ATOM     22  C   UNL     1       1.157   8.778  20.440  0.00  0.00    +0.000 A 
ATOM     23  C   UNL     1       0.447   9.942  20.687  0.00  0.00    +0.000 A 
ATOM     24  N   UNL     1       0.168  10.857  19.740  0.00  0.00    +0.000 NA
ENDBRANCH   1  21
TORSDOF 2
ENDMDL
MODEL 9
REMARK VINA RESULT:      -7.4      2.591      5.667
REMARK  Name = 
REMARK  2 active torsions:
REMARK  status: ('A' for Active; 'I' for Inactive)
REMARK    1  A    between atoms: C_3  and  C_4
REMARK    2  A    between atoms: C_12  and  N_13
REMARK                            x       y       z     vdW  Elec       q    Type
REMARK                         _______ _______ _______ _____ _____    ______ ____
ROOT
ATOM      1  C   UNL     1       5.316   4.712  15.609  0.00  0.00    +0.000 A 
ATOM      2  C   UNL     1       5.156   5.992  16.122  0.00  0.00    +0.000 A 
ATOM      3  C   UNL     1       4.214   6.204  17.115  0.00  0.00    +0.000 A 
ATOM      4  C   UNL     1       3.921   7.493  17.560  0.00  0.00    +0.000 A 
ATOM      5  N   UNL     1       2.862   7.805  18.332  0.00  0.00    +0.000 NA
ATOM      6  C   UNL     1       2.068   6.777  18.690  0.00  0.00    +0.000 A 
ATOM      7  C   UNL     1       2.353   5.447  18.403  0.00  0.00    +0.000 A 
ATOM      8  C   UNL     1       3.492   5.119  17.624  0.00  0.00    +0.000 A 
ATOM      9  C   UNL     1       3.944   3.814  17.284  0.00  0.00    +0.000 A 
ATOM     10  N   UNL     1       4.776   3.627  16.226  0.00  0.00    +0.000 NA
ENDROOT
BRANCH   9  11
ATOM     11  N   UNL     1       3.566   2.711  18.051  0.00  0.00    +0.000 N 
ATOM     12  C   UNL     1       4.219   2.433  19.333  0.00  0.00    +0.000 C 
ATOM     13  C   UNL     1       3.793   3.284  20.524  0.00  0.00    +0.000 C 
ATOM     14  C   UNL     1       2.313   3.335  20.904  0.00  0.00    +0.000 C 
ATOM     15  N   UNL     1       1.427   2.345  20.295  0.00  0.00    +0.000 NA
ATOM     16  C   UNL     1       1.166   2.694  18.888  0.00  0.00    +0.000 C 
ATOM     17  C   UNL     1       2.205   2.168  17.881  0.00  0.00    +0.000 C 
ATOM     18  H   UNL     1       0.537   2.380  20.795  0.00  0.00    +0.000 HD
ENDBRANCH   9  11
BRANCH   1  21
ATOM     19  C   UNL     1       7.856   5.065  12.843  0.00  0.00    +0.000 A 
ATOM     20  C   UNL     1       7.242   5.233  14.079  0.00  0.00    +0.000 A 
ATOM     21  C   UNL     1       6.087   4.506  14.363  0.00  0.00    +0.000 A 
ATOM     22  C   UNL     1       5.662   3.577  13.390  0.00  0.00    +0.000 A 
ATOM     23  C   UNL     1       6.342   3.482  12.186  0.00  0.00    +0.000 A 
ATOM     24  N   UNL     1       7.426   4.220  11.886  0.00  0.00    +0.000 NA
ENDBRANCH   1  21
TORSDOF 2
ENDMDL
