MODEL 1
REMARK VINA RESULT:      -9.0      0.000      0.000
REMARK  Name = 
REMARK  8 active torsions:
REMARK  status: ('A' for Active; 'I' for Inactive)
REMARK    1  A    between atoms: C_1  and  C_2
REMARK    2  A    between atoms: C_2  and  C_3
REMARK    3  A    between atoms: C_2  and  N_11
REMARK    4  A    between atoms: C_3  and  C_4
REMARK    5  A    between atoms: C_4  and  C_5
REMARK    6  A    between atoms: C_12  and  C_14
REMARK    7  A    between atoms: C_14  and  C_15
REMARK    8  A    between atoms: C_16  and  C_17
REMARK                            x       y       z     vdW  Elec       q    Type
REMARK                         _______ _______ _______ _____ _____    ______ ____
ROOT
ATOM      1  C   UNL     1       4.853   4.439  17.201  0.00  0.00    +0.000 A 
ATOM      2  C   UNL     1       5.951   3.792  16.587  0.00  0.00    +0.000 A 
ATOM      3  N   UNL     1       6.885   3.973  17.607  0.00  0.00    +0.000 N 
ATOM      4  C   UNL     1       6.834   5.331  17.864  0.00  0.00    +0.000 A 
ATOM      5  C   UNL     1       7.852   6.193  18.274  0.00  0.00    +0.000 A 
ATOM      6  C   UNL     1       7.680   7.525  17.914  0.00  0.00    +0.000 A 
ATOM      7  C   UNL     1       6.495   7.949  17.306  0.00  0.00    +0.000 A 
ATOM      8  C   UNL     1       5.382   7.083  17.145  0.00  0.00    +0.000 A 
ATOM      9  C   UNL     1       5.546   5.707  17.435  0.00  0.00    +0.000 A 
ATOM     10  H   UNL     1       7.019   3.320  18.364  0.00  0.00    +0.000 HD
ENDROOT
BRANCH   2  11
ATOM     11  C   UNL     1       6.251   4.031  15.126  0.00  0.00    +0.000 A 
ATOM     12  C   UNL     1       7.326   4.881  14.756  0.00  0.00    +0.000 A 
ATOM     13  C   UNL     1       7.687   5.096  13.434  0.00  0.00    +0.000 A 
ATOM     14  C   UNL     1       6.977   4.469  12.438  0.00  0.00    +0.000 A 
ATOM     15  C   UNL     1       5.919   3.619  12.767  0.00  0.00    +0.000 A 
ATOM     16  C   UNL     1       5.555   3.394  14.105  0.00  0.00    +0.000 A 
ENDBRANCH   2  11
BRANCH   1  17
ATOM     17  C   UNL     1       3.510   3.863  16.823  0.00  0.00    +0.000 C 
BRANCH  17  19
ATOM     18  N   UNL     1       2.590   3.717  19.059  0.00  0.00    +0.000 N 
ATOM     19  C   UNL     1       2.303   3.855  17.717  0.00  0.00    +0.000 C 
ATOM     20  O   UNL     1       1.182   4.148  17.302  0.00  0.00    +0.000 OA
ATOM     21  H   UNL     1       3.513   3.394  19.323  0.00  0.00    +0.000 HD
BRANCH  18  23
ATOM     22  C   UNL     1       1.909   2.931  21.245  0.00  0.00    +0.000 C 
ATOM     23  C   UNL     1       1.577   3.884  20.099  0.00  0.00    +0.000 C 
BRANCH  23  24
ATOM     24  C   UNL     1       1.501   5.328  20.644  0.00  0.00    +0.000 C 
BRANCH  24  25
ATOM     25  C   UNL     1       2.611   6.269  20.155  0.00  0.00    +0.000 C 
BRANCH  25  26
ATOM     26  C   UNL     1       2.048   7.582  19.637  0.00  0.00    +0.000 A 
ATOM     27  C   UNL     1       2.236   7.964  18.302  0.00  0.00    +0.000 A 
ATOM     28  C   UNL     1       1.723   9.174  17.824  0.00  0.00    +0.000 A 
ATOM     29  C   UNL     1       1.018  10.030  18.668  0.00  0.00    +0.000 A 
ATOM     30  C   UNL     1       0.838   9.665  20.011  0.00  0.00    +0.000 A 
ATOM     31  C   UNL     1       1.338   8.455  20.484  0.00  0.00    +0.000 A 
ENDBRANCH  25  26
ENDBRANCH  24  25
ENDBRANCH  23  24
ENDBRANCH  18  23
ENDBRANCH  17  19
ENDBRANCH   1  17
TORSDOF 7
ENDMDL
MODEL 2
REMARK VINA RESULT:      -8.6      0.488      1.353
REMARK  Name = 
REMARK  8 active torsions:
REMARK  status: ('A' for Active; 'I' for Inactive)
REMARK    1  A    between atoms: C_1  and  C_2
REMARK    2  A    between atoms: C_2  and  C_3
REMARK    3  A    between atoms: C_2  and  N_11
REMARK    4  A    between atoms: C_3  and  C_4
REMARK    5  A    between atoms: C_4  and  C_5
REMARK    6  A    between atoms: C_12  and  C_14
REMARK    7  A    between atoms: C_14  and  C_15
REMARK    8  A    between atoms: C_16  and  C_17
REMARK                            x       y       z     vdW  Elec       q    Type
REMARK                         _______ _______ _______ _____ _____    ______ ____
ROOT
ATOM      1  C   UNL     1       5.040   4.590  17.114  0.00  0.00    +0.000 A 
ATOM      2  C   UNL     1       6.159   3.925  16.561  0.00  0.00    +0.000 A 
ATOM      3  N   UNL     1       7.048   4.118  17.618  0.00  0.00    +0.000 N 
ATOM      4  C   UNL     1       6.996   5.481  17.848  0.00  0.00    +0.000 A 
ATOM      5  C   UNL     1       8.001   6.344  18.288  0.00  0.00    +0.000 A 
ATOM      6  C   UNL     1       7.856   7.669  17.897  0.00  0.00    +0.000 A 
ATOM      7  C   UNL     1       6.702   8.090  17.228  0.00  0.00    +0.000 A 
ATOM      8  C   UNL     1       5.591   7.229  17.033  0.00  0.00    +0.000 A 
ATOM      9  C   UNL     1       5.731   5.858  17.355  0.00  0.00    +0.000 A 
ATOM     10  H   UNL     1       7.143   3.478  18.393  0.00  0.00    +0.000 HD
ENDROOT
BRANCH   2  11
ATOM     11  C   UNL     1       6.526   4.134  15.111  0.00  0.00    +0.000 A 
ATOM     12  C   UNL     1       5.817   3.439  14.097  0.00  0.00    +0.000 A 
ATOM     13  C   UNL     1       6.069   3.629  12.745  0.00  0.00    +0.000 A 
ATOM     14  C   UNL     1       7.044   4.520  12.367  0.00  0.00    +0.000 A 
ATOM     15  C   UNL     1       7.754   5.228  13.339  0.00  0.00    +0.000 A 
ATOM     16  C   UNL     1       7.498   5.043  14.708  0.00  0.00    +0.000 A 
ENDBRANCH   2  11
BRANCH   1  17
ATOM     17  C   UNL     1       3.711   4.017  16.686  0.00  0.00    +0.000 C 
BRANCH  17  19
ATOM     18  N   UNL     1       2.925   3.735  18.959  0.00  0.00    +0.000 N 
ATOM     19  C   UNL     1       2.669   3.485  17.627  0.00  0.00    +0.000 C 
ATOM     20  O   UNL     1       1.591   3.047  17.227  0.00  0.00    +0.000 OA
ATOM     21  H   UNL     1       3.860   4.017  19.225  0.00  0.00    +0.000 HD
BRANCH  18  23
ATOM     22  C   UNL     1       2.646   2.755  21.156  0.00  0.00    +0.000 C 
ATOM     23  C   UNL     1       1.941   3.477  20.009  0.00  0.00    +0.000 C 
BRANCH  23  24
ATOM     24  C   UNL     1       1.279   4.764  20.549  0.00  0.00    +0.000 C 
BRANCH  24  25
ATOM     25  C   UNL     1       2.249   5.907  20.881  0.00  0.00    +0.000 C 
BRANCH  25  26
ATOM     26  C   UNL     1       1.999   7.127  20.011  0.00  0.00    +0.000 A 
ATOM     27  C   UNL     1       1.363   8.261  20.534  0.00  0.00    +0.000 A 
ATOM     28  C   UNL     1       1.128   9.384  19.734  0.00  0.00    +0.000 A 
ATOM     29  C   UNL     1       1.517   9.397  18.396  0.00  0.00    +0.000 A 
ATOM     30  C   UNL     1       2.141   8.262  17.858  0.00  0.00    +0.000 A 
ATOM     31  C   UNL     1       2.385   7.148  18.657  0.00  0.00    +0.000 A 
ENDBRANCH  25  26
ENDBRANCH  24  25
ENDBRANCH  23  24
ENDBRANCH  18  23
ENDBRANCH  17  19
ENDBRANCH   1  17
TORSDOF 7
ENDMDL
MODEL 3
REMARK VINA RESULT:      -8.6      2.949      5.396
REMARK  Name = 
REMARK  8 active torsions:
REMARK  status: ('A' for Active; 'I' for Inactive)
REMARK    1  A    between atoms: C_1  and  C_2
REMARK    2  A    between atoms: C_2  and  C_3
REMARK    3  A    between atoms: C_2  and  N_11
REMARK    4  A    between atoms: C_3  and  C_4
REMARK    5  A    between atoms: C_4  and  C_5
REMARK    6  A    between atoms: C_12  and  C_14
REMARK    7  A    between atoms: C_14  and  C_15
REMARK    8  A    between atoms: C_16  and  C_17
REMARK                            x       y       z     vdW  Elec       q    Type
REMARK                         _______ _______ _______ _____ _____    ______ ____
ROOT
ATOM      1  C   UNL     1       3.909   6.567  18.017  0.00  0.00    +0.000 A 
ATOM      2  C   UNL     1       3.950   5.579  19.028  0.00  0.00    +0.000 A 
ATOM      3  N   UNL     1       5.309   5.661  19.332  0.00  0.00    +0.000 N 
ATOM      4  C   UNL     1       5.930   5.534  18.103  0.00  0.00    +0.000 A 
ATOM      5  C   UNL     1       7.158   4.951  17.787  0.00  0.00    +0.000 A 
ATOM      6  C   UNL     1       7.266   4.466  16.489  0.00  0.00    +0.000 A 
ATOM      7  C   UNL     1       6.246   4.689  15.560  0.00  0.00    +0.000 A 
ATOM      8  C   UNL     1       5.129   5.514  15.855  0.00  0.00    +0.000 A 
ATOM      9  C   UNL     1       4.952   5.964  17.185  0.00  0.00    +0.000 A 
ATOM     10  H   UNL     1       5.689   6.284  20.029  0.00  0.00    +0.000 HD
ENDROOT
BRANCH   2  11
ATOM     11  C   UNL     1       3.211   4.274  18.844  0.00  0.00    +0.000 A 
ATOM     12  C   UNL     1       1.794   4.248  18.930  0.00  0.00    +0.000 A 
ATOM     13  C   UNL     1       1.054   3.094  18.716  0.00  0.00    +0.000 A 
ATOM     14  C   UNL     1       1.712   1.926  18.413  0.00  0.00    +0.000 A 
ATOM     15  C   UNL     1       3.105   1.919  18.312  0.00  0.00    +0.000 A 
ATOM     16  C   UNL     1       3.857   3.087  18.522  0.00  0.00    +0.000 A 
ENDBRANCH   2  11
BRANCH   1  17
ATOM     17  C   UNL     1       2.598   7.311  17.937  0.00  0.00    +0.000 C 
BRANCH  17  19
ATOM     18  N   UNL     1       1.632   9.444  18.559  0.00  0.00    +0.000 N 
ATOM     19  C   UNL     1       2.063   8.214  19.012  0.00  0.00    +0.000 C 
ATOM     20  O   UNL     1       1.846   7.812  20.154  0.00  0.00    +0.000 OA
ATOM     21  H   UNL     1       1.918   9.743  17.635  0.00  0.00    +0.000 HD
BRANCH  18  23
ATOM     22  C   UNL     1       1.047  11.779  18.814  0.00  0.00    +0.000 C 
ATOM     23  C   UNL     1       0.901  10.380  19.409  0.00  0.00    +0.000 C 
BRANCH  23  24
ATOM     24  C   UNL     1      -0.600  10.037  19.539  0.00  0.00    +0.000 C 
BRANCH  24  25
ATOM     25  C   UNL     1      -1.562  11.199  19.253  0.00  0.00    +0.000 C 
BRANCH  25  26
ATOM     26  C   UNL     1      -2.374  10.961  17.991  0.00  0.00    +0.000 A 
ATOM     27  C   UNL     1      -3.605  11.602  17.801  0.00  0.00    +0.000 A 
ATOM     28  C   UNL     1      -4.357  11.381  16.642  0.00  0.00    +0.000 A 
ATOM     29  C   UNL     1      -3.900  10.511  15.655  0.00  0.00    +0.000 A 
ATOM     30  C   UNL     1      -2.676   9.851  15.842  0.00  0.00    +0.000 A 
ATOM     31  C   UNL     1      -1.922  10.080  16.990  0.00  0.00    +0.000 A 
ENDBRANCH  25  26
ENDBRANCH  24  25
ENDBRANCH  23  24
ENDBRANCH  18  23
ENDBRANCH  17  19
ENDBRANCH   1  17
TORSDOF 7
ENDMDL
MODEL 4
REMARK VINA RESULT:      -8.4      2.981      5.877
REMARK  Name = 
REMARK  8 active torsions:
REMARK  status: ('A' for Active; 'I' for Inactive)
REMARK    1  A    between atoms: C_1  and  C_2
REMARK    2  A    between atoms: C_2  and  C_3
REMARK    3  A    between atoms: C_2  and  N_11
REMARK    4  A    between atoms: C_3  and  C_4
REMARK    5  A    between atoms: C_4  and  C_5
REMARK    6  A    between atoms: C_12  and  C_14
REMARK    7  A    between atoms: C_14  and  C_15
REMARK    8  A    between atoms: C_16  and  C_17
REMARK                            x       y       z     vdW  Elec       q    Type
REMARK                         _______ _______ _______ _____ _____    ______ ____
ROOT
ATOM      1  C   UNL     1       2.059   6.068  18.499  0.00  0.00    +0.000 A 
ATOM      2  C   UNL     1       2.808   5.230  17.641  0.00  0.00    +0.000 A 
ATOM      3  N   UNL     1       1.913   4.163  17.573  0.00  0.00    +0.000 N 
ATOM      4  C   UNL     1       1.648   3.870  18.899  0.00  0.00    +0.000 A 
ATOM      5  C   UNL     1       1.366   2.641  19.496  0.00  0.00    +0.000 A 
ATOM      6  C   UNL     1       1.698   2.547  20.842  0.00  0.00    +0.000 A 
ATOM      7  C   UNL     1       2.152   3.669  21.542  0.00  0.00    +0.000 A 
ATOM      8  C   UNL     1       2.174   4.961  20.956  0.00  0.00    +0.000 A 
ATOM      9  C   UNL     1       1.911   5.081  19.570  0.00  0.00    +0.000 A 
ATOM     10  H   UNL     1       1.180   4.090  16.884  0.00  0.00    +0.000 HD
ENDROOT
BRANCH   2  11
ATOM     11  C   UNL     1       4.295   5.063  17.851  0.00  0.00    +0.000 A 
ATOM     12  C   UNL     1       5.101   4.543  16.804  0.00  0.00    +0.000 A 
ATOM     13  C   UNL     1       6.478   4.418  16.915  0.00  0.00    +0.000 A 
ATOM     14  C   UNL     1       7.092   4.806  18.081  0.00  0.00    +0.000 A 
ATOM     15  C   UNL     1       6.329   5.330  19.128  0.00  0.00    +0.000 A 
ATOM     16  C   UNL     1       4.936   5.465  19.016  0.00  0.00    +0.000 A 
ENDBRANCH   2  11
BRANCH   1  17
ATOM     17  C   UNL     1       2.268   7.543  18.254  0.00  0.00    +0.000 C 
BRANCH  17  19
ATOM     18  N   UNL     1       1.657   9.862  18.595  0.00  0.00    +0.000 N 
ATOM     19  C   UNL     1       1.839   8.633  19.194  0.00  0.00    +0.000 C 
ATOM     20  O   UNL     1       1.489   8.398  20.350  0.00  0.00    +0.000 OA
ATOM     21  H   UNL     1       2.044  10.008  17.671  0.00  0.00    +0.000 HD
BRANCH  18  23
ATOM     22  C   UNL     1       2.045  12.156  19.265  0.00  0.00    +0.000 C 
ATOM     23  C   UNL     1       1.054  10.994  19.295  0.00  0.00    +0.000 C 
BRANCH  23  24
ATOM     24  C   UNL     1      -0.283  11.451  18.670  0.00  0.00    +0.000 C 
BRANCH  24  25
ATOM     25  C   UNL     1      -1.441  10.451  18.806  0.00  0.00    +0.000 C 
BRANCH  25  26
ATOM     26  C   UNL     1      -2.370  10.499  17.604  0.00  0.00    +0.000 A 
ATOM     27  C   UNL     1      -3.577  11.207  17.661  0.00  0.00    +0.000 A 
ATOM     28  C   UNL     1      -4.436  11.249  16.558  0.00  0.00    +0.000 A 
ATOM     29  C   UNL     1      -4.112  10.581  15.379  0.00  0.00    +0.000 A 
ATOM     30  C   UNL     1      -2.913   9.855  15.316  0.00  0.00    +0.000 A 
ATOM     31  C   UNL     1      -2.052   9.823  16.410  0.00  0.00    +0.000 A 
ENDBRANCH  25  26
ENDBRANCH  24  25
ENDBRANCH  23  24
ENDBRANCH  18  23
ENDBRANCH  17  19
ENDBRANCH   1  17
TORSDOF 7
ENDMDL
MODEL 5
REMARK VINA RESULT:      -8.3      3.056      5.373
REMARK  Name = 
REMARK  8 active torsions:
REMARK  status: ('A' for Active; 'I' for Inactive)
REMARK    1  A    between atoms: C_1  and  C_2
REMARK    2  A    between atoms: C_2  and  C_3
REMARK    3  A    between atoms: C_2  and  N_11
REMARK    4  A    between atoms: C_3  and  C_4
REMARK    5  A    between atoms: C_4  and  C_5
REMARK    6  A    between atoms: C_12  and  C_14
REMARK    7  A    between atoms: C_14  and  C_15
REMARK    8  A    between atoms: C_16  and  C_17
REMARK                            x       y       z     vdW  Elec       q    Type
REMARK                         _______ _______ _______ _____ _____    ______ ____
ROOT
ATOM      1  C   UNL     1       3.928   6.617  18.089  0.00  0.00    +0.000 A 
ATOM      2  C   UNL     1       3.940   5.570  19.040  0.00  0.00    +0.000 A 
ATOM      3  N   UNL     1       5.297   5.606  19.360  0.00  0.00    +0.000 N 
ATOM      4  C   UNL     1       5.927   5.538  18.130  0.00  0.00    +0.000 A 
ATOM      5  C   UNL     1       7.146   4.949  17.790  0.00  0.00    +0.000 A 
ATOM      6  C   UNL     1       7.256   4.539  16.467  0.00  0.00    +0.000 A 
ATOM      7  C   UNL     1       6.249   4.838  15.544  0.00  0.00    +0.000 A 
ATOM      8  C   UNL     1       5.147   5.667  15.878  0.00  0.00    +0.000 A 
ATOM      9  C   UNL     1       4.966   6.043  17.231  0.00  0.00    +0.000 A 
ATOM     10  H   UNL     1       5.684   6.178  20.095  0.00  0.00    +0.000 HD
ENDROOT
BRANCH   2  11
ATOM     11  C   UNL     1       3.176   4.294  18.774  0.00  0.00    +0.000 A 
ATOM     12  C   UNL     1       3.882   3.078  18.580  0.00  0.00    +0.000 A 
ATOM     13  C   UNL     1       3.238   1.864  18.386  0.00  0.00    +0.000 A 
ATOM     14  C   UNL     1       1.864   1.831  18.375  0.00  0.00    +0.000 A 
ATOM     15  C   UNL     1       1.139   3.010  18.572  0.00  0.00    +0.000 A 
ATOM     16  C   UNL     1       1.788   4.239  18.775  0.00  0.00    +0.000 A 
ENDBRANCH   2  11
BRANCH   1  17
ATOM     17  C   UNL     1       2.634   7.391  18.043  0.00  0.00    +0.000 C 
BRANCH  17  19
ATOM     18  N   UNL     1       1.548   9.386  18.885  0.00  0.00    +0.000 N 
ATOM     19  C   UNL     1       2.046   8.140  19.204  0.00  0.00    +0.000 C 
ATOM     20  O   UNL     1       1.849   7.603  20.294  0.00  0.00    +0.000 OA
ATOM     21  H   UNL     1       1.818   9.800  18.002  0.00  0.00    +0.000 HD
BRANCH  18  23
ATOM     22  C   UNL     1       1.451  11.534  19.998  0.00  0.00    +0.000 C 
ATOM     23  C   UNL     1       0.762  10.181  19.826  0.00  0.00    +0.000 C 
BRANCH  23  24
ATOM     24  C   UNL     1      -0.694  10.407  19.361  0.00  0.00    +0.000 C 
BRANCH  24  25
ATOM     25  C   UNL     1      -1.009   9.915  17.941  0.00  0.00    +0.000 C 
BRANCH  25  26
ATOM     26  C   UNL     1      -2.330  10.468  17.434  0.00  0.00    +0.000 A 
ATOM     27  C   UNL     1      -3.183  11.181  18.287  0.00  0.00    +0.000 A 
ATOM     28  C   UNL     1      -4.401  11.687  17.823  0.00  0.00    +0.000 A 
ATOM     29  C   UNL     1      -4.797  11.488  16.502  0.00  0.00    +0.000 A 
ATOM     30  C   UNL     1      -3.959  10.762  15.643  0.00  0.00    +0.000 A 
ATOM     31  C   UNL     1      -2.740  10.267  16.101  0.00  0.00    +0.000 A 
ENDBRANCH  25  26
ENDBRANCH  24  25
ENDBRANCH  23  24
ENDBRANCH  18  23
ENDBRANCH  17  19
ENDBRANCH   1  17
TORSDOF 7
ENDMDL
MODEL 6
REMARK VINA RESULT:      -8.2      0.739      1.441
REMARK  Name = 
REMARK  8 active torsions:
REMARK  status: ('A' for Active; 'I' for Inactive)
REMARK    1  A    between atoms: C_1  and  C_2
REMARK    2  A    between atoms: C_2  and  C_3
REMARK    3  A    between atoms: C_2  and  N_11
REMARK    4  A    between atoms: C_3  and  C_4
REMARK    5  A    between atoms: C_4  and  C_5
REMARK    6  A    between atoms: C_12  and  C_14
REMARK    7  A    between atoms: C_14  and  C_15
REMARK    8  A    between atoms: C_16  and  C_17
REMARK                            x       y       z     vdW  Elec       q    Type
REMARK                         _______ _______ _______ _____ _____    ______ ____
ROOT
ATOM      1  C   UNL     1       4.948   4.501  17.277  0.00  0.00    +0.000 A 
ATOM      2  C   UNL     1       6.051   3.826  16.704  0.00  0.00    +0.000 A 
ATOM      3  N   UNL     1       6.956   3.996  17.751  0.00  0.00    +0.000 N 
ATOM      4  C   UNL     1       6.926   5.358  17.995  0.00  0.00    +0.000 A 
ATOM      5  C   UNL     1       7.948   6.202  18.430  0.00  0.00    +0.000 A 
ATOM      6  C   UNL     1       7.816   7.534  18.053  0.00  0.00    +0.000 A 
ATOM      7  C   UNL     1       6.659   7.977  17.404  0.00  0.00    +0.000 A 
ATOM      8  C   UNL     1       5.534   7.133  17.215  0.00  0.00    +0.000 A 
ATOM      9  C   UNL     1       5.660   5.757  17.522  0.00  0.00    +0.000 A 
ATOM     10  H   UNL     1       7.052   3.348  18.518  0.00  0.00    +0.000 HD
ENDROOT
BRANCH   2  11
ATOM     11  C   UNL     1       6.402   4.045  15.251  0.00  0.00    +0.000 A 
ATOM     12  C   UNL     1       5.655   3.386  14.238  0.00  0.00    +0.000 A 
ATOM     13  C   UNL     1       5.892   3.588  12.886  0.00  0.00    +0.000 A 
ATOM     14  C   UNL     1       6.889   4.454  12.505  0.00  0.00    +0.000 A 
ATOM     15  C   UNL     1       7.637   5.124  13.476  0.00  0.00    +0.000 A 
ATOM     16  C   UNL     1       7.395   4.928  14.845  0.00  0.00    +0.000 A 
ENDBRANCH   2  11
BRANCH   1  17
ATOM     17  C   UNL     1       3.606   3.950  16.861  0.00  0.00    +0.000 C 
BRANCH  17  19
ATOM     18  N   UNL     1       2.582   4.369  19.016  0.00  0.00    +0.000 N 
ATOM     19  C   UNL     1       2.364   4.003  17.704  0.00  0.00    +0.000 C 
ATOM     20  O   UNL     1       1.238   3.921  17.214  0.00  0.00    +0.000 OA
ATOM     21  H   UNL     1       3.528   4.336  19.374  0.00  0.00    +0.000 HD
BRANCH  18  23
ATOM     22  C   UNL     1       1.305   3.471  20.867  0.00  0.00    +0.000 C 
ATOM     23  C   UNL     1       1.489   4.670  19.939  0.00  0.00    +0.000 C 
BRANCH  23  24
ATOM     24  C   UNL     1       1.742   5.936  20.787  0.00  0.00    +0.000 C 
BRANCH  24  25
ATOM     25  C   UNL     1       2.099   7.196  19.986  0.00  0.00    +0.000 C 
BRANCH  25  26
ATOM     26  C   UNL     1       1.350   8.417  20.494  0.00  0.00    +0.000 A 
ATOM     27  C   UNL     1       0.972   9.441  19.615  0.00  0.00    +0.000 A 
ATOM     28  C   UNL     1       0.286  10.567  20.080  0.00  0.00    +0.000 A 
ATOM     29  C   UNL     1      -0.031  10.699  21.431  0.00  0.00    +0.000 A 
ATOM     30  C   UNL     1       0.357   9.687  22.322  0.00  0.00    +0.000 A 
ATOM     31  C   UNL     1       1.029   8.560  21.857  0.00  0.00    +0.000 A 
ENDBRANCH  25  26
ENDBRANCH  24  25
ENDBRANCH  23  24
ENDBRANCH  18  23
ENDBRANCH  17  19
ENDBRANCH   1  17
TORSDOF 7
ENDMDL
MODEL 7
REMARK VINA RESULT:      -8.1      3.033      5.941
REMARK  Name = 
REMARK  8 active torsions:
REMARK  status: ('A' for Active; 'I' for Inactive)
REMARK    1  A    between atoms: C_1  and  C_2
REMARK    2  A    between atoms: C_2  and  C_3
REMARK    3  A    between atoms: C_2  and  N_11
REMARK    4  A    between atoms: C_3  and  C_4
REMARK    5  A    between atoms: C_4  and  C_5
REMARK    6  A    between atoms: C_12  and  C_14
REMARK    7  A    between atoms: C_14  and  C_15
REMARK    8  A    between atoms: C_16  and  C_17
REMARK                            x       y       z     vdW  Elec       q    Type
REMARK                         _______ _______ _______ _____ _____    ______ ____
ROOT
ATOM      1  C   UNL     1       2.073   6.223  19.059  0.00  0.00    +0.000 A 
ATOM      2  C   UNL     1       2.605   5.584  17.914  0.00  0.00    +0.000 A 
ATOM      3  N   UNL     1       1.589   4.651  17.715  0.00  0.00    +0.000 N 
ATOM      4  C   UNL     1       1.457   4.039  18.949  0.00  0.00    +0.000 A 
ATOM      5  C   UNL     1       1.107   2.723  19.252  0.00  0.00    +0.000 A 
ATOM      6  C   UNL     1       1.589   2.246  20.465  0.00  0.00    +0.000 A 
ATOM      7  C   UNL     1       2.255   3.100  21.349  0.00  0.00    +0.000 A 
ATOM      8  C   UNL     1       2.358   4.496  21.111  0.00  0.00    +0.000 A 
ATOM      9  C   UNL     1       1.942   5.002  19.856  0.00  0.00    +0.000 A 
ATOM     10  H   UNL     1       0.773   4.825  17.148  0.00  0.00    +0.000 HD
ENDROOT
BRANCH   2  11
ATOM     11  C   UNL     1       4.077   5.246  17.849  0.00  0.00    +0.000 A 
ATOM     12  C   UNL     1       4.919   5.549  18.952  0.00  0.00    +0.000 A 
ATOM     13  C   UNL     1       6.265   5.213  18.976  0.00  0.00    +0.000 A 
ATOM     14  C   UNL     1       6.812   4.568  17.894  0.00  0.00    +0.000 A 
ATOM     15  C   UNL     1       6.009   4.247  16.797  0.00  0.00    +0.000 A 
ATOM     16  C   UNL     1       4.645   4.579  16.771  0.00  0.00    +0.000 A 
ENDBRANCH   2  11
BRANCH   1  17
ATOM     17  C   UNL     1       2.424   7.687  19.165  0.00  0.00    +0.000 C 
BRANCH  17  19
ATOM     18  N   UNL     1       0.845   9.523  19.173  0.00  0.00    +0.000 N 
ATOM     19  C   UNL     1       1.730   8.786  18.414  0.00  0.00    +0.000 C 
ATOM     20  O   UNL     1       2.073   9.120  17.280  0.00  0.00    +0.000 OA
ATOM     21  H   UNL     1       0.544   9.146  20.063  0.00  0.00    +0.000 HD
BRANCH  18  23
ATOM     22  C   UNL     1      -1.146  10.399  18.108  0.00  0.00    +0.000 C 
ATOM     23  C   UNL     1       0.224  10.752  18.682  0.00  0.00    +0.000 C 
BRANCH  23  24
ATOM     24  C   UNL     1       0.054  11.826  19.780  0.00  0.00    +0.000 C 
BRANCH  24  25
ATOM     25  C   UNL     1      -0.272  11.283  21.179  0.00  0.00    +0.000 C 
BRANCH  25  26
ATOM     26  C   UNL     1      -1.583  11.840  21.707  0.00  0.00    +0.000 A 
ATOM     27  C   UNL     1      -2.483  12.487  20.849  0.00  0.00    +0.000 A 
ATOM     28  C   UNL     1      -3.689  13.004  21.335  0.00  0.00    +0.000 A 
ATOM     29  C   UNL     1      -4.018  12.892  22.684  0.00  0.00    +0.000 A 
ATOM     30  C   UNL     1      -3.117  12.261  23.554  0.00  0.00    +0.000 A 
ATOM     31  C   UNL     1      -1.922  11.736  23.070  0.00  0.00    +0.000 A 
ENDBRANCH  25  26
ENDBRANCH  24  25
ENDBRANCH  23  24
ENDBRANCH  18  23
ENDBRANCH  17  19
ENDBRANCH   1  17
TORSDOF 7
ENDMDL
MODEL 8
REMARK VINA RESULT:      -8.1      2.627      4.753
REMARK  Name = 
REMARK  8 active torsions:
REMARK  status: ('A' for Active; 'I' for Inactive)
REMARK    1  A    between atoms: C_1  and  C_2
REMARK    2  A    between atoms: C_2  and  C_3
REMARK    3  A    between atoms: C_2  and  N_11
REMARK    4  A    between atoms: C_3  and  C_4
REMARK    5  A    between atoms: C_4  and  C_5
REMARK    6  A    between atoms: C_12  and  C_14
REMARK    7  A    between atoms: C_14  and  C_15
REMARK    8  A    between atoms: C_16  and  C_17
REMARK                            x       y       z     vdW  Elec       q    Type
REMARK                         _______ _______ _______ _____ _____    ______ ____
ROOT
ATOM      1  C   UNL     1       4.048   6.550  18.333  0.00  0.00    +0.000 A 
ATOM      2  C   UNL     1       4.201   5.403  19.147  0.00  0.00    +0.000 A 
ATOM      3  N   UNL     1       5.576   5.491  19.359  0.00  0.00    +0.000 N 
ATOM      4  C   UNL     1       6.100   5.608  18.084  0.00  0.00    +0.000 A 
ATOM      5  C   UNL     1       7.315   5.144  17.579  0.00  0.00    +0.000 A 
ATOM      6  C   UNL     1       7.333   4.898  16.211  0.00  0.00    +0.000 A 
ATOM      7  C   UNL     1       6.234   5.235  15.415  0.00  0.00    +0.000 A 
ATOM      8  C   UNL     1       5.120   5.945  15.933  0.00  0.00    +0.000 A 
ATOM      9  C   UNL     1       5.038   6.149  17.332  0.00  0.00    +0.000 A 
ATOM     10  H   UNL     1       5.993   5.999  20.124  0.00  0.00    +0.000 HD
ENDROOT
BRANCH   2  11
ATOM     11  C   UNL     1       3.489   4.119  18.789  0.00  0.00    +0.000 A 
ATOM     12  C   UNL     1       4.153   2.876  18.955  0.00  0.00    +0.000 A 
ATOM     13  C   UNL     1       3.536   1.660  18.698  0.00  0.00    +0.000 A 
ATOM     14  C   UNL     1       2.233   1.652  18.261  0.00  0.00    +0.000 A 
ATOM     15  C   UNL     1       1.548   2.858  18.095  0.00  0.00    +0.000 A 
ATOM     16  C   UNL     1       2.167   4.090  18.362  0.00  0.00    +0.000 A 
ENDBRANCH   2  11
BRANCH   1  17
ATOM     17  C   UNL     1       2.713   7.238  18.484  0.00  0.00    +0.000 C 
BRANCH  17  19
ATOM     18  N   UNL     1       1.405   8.668  19.938  0.00  0.00    +0.000 N 
ATOM     19  C   UNL     1       1.996   7.430  19.790  0.00  0.00    +0.000 C 
ATOM     20  O   UNL     1       1.788   6.497  20.564  0.00  0.00    +0.000 OA
ATOM     21  H   UNL     1       1.685   9.412  19.312  0.00  0.00    +0.000 HD
BRANCH  18  23
ATOM     22  C   UNL     1       1.340   9.415  22.240  0.00  0.00    +0.000 C 
ATOM     23  C   UNL     1       0.499   8.978  21.042  0.00  0.00    +0.000 C 
BRANCH  23  24
ATOM     24  C   UNL     1      -0.515  10.092  20.699  0.00  0.00    +0.000 C 
BRANCH  24  25
ATOM     25  C   UNL     1      -0.253  10.829  19.378  0.00  0.00    +0.000 C 
BRANCH  25  26
ATOM     26  C   UNL     1      -1.465  10.791  18.462  0.00  0.00    +0.000 A 
ATOM     27  C   UNL     1      -1.497   9.936  17.353  0.00  0.00    +0.000 A 
ATOM     28  C   UNL     1      -2.610   9.903  16.506  0.00  0.00    +0.000 A 
ATOM     29  C   UNL     1      -3.709  10.726  16.744  0.00  0.00    +0.000 A 
ATOM     30  C   UNL     1      -3.680  11.599  17.842  0.00  0.00    +0.000 A 
ATOM     31  C   UNL     1      -2.578  11.623  18.692  0.00  0.00    +0.000 A 
ENDBRANCH  25  26
ENDBRANCH  24  25
ENDBRANCH  23  24
ENDBRANCH  18  23
ENDBRANCH  17  19
ENDBRANCH   1  17
TORSDOF 7
ENDMDL
MODEL 9
REMARK VINA RESULT:      -8.0      2.822      8.078
REMARK  Name = 
REMARK  8 active torsions:
REMARK  status: ('A' for Active; 'I' for Inactive)
REMARK    1  A    between atoms: C_1  and  C_2
REMARK    2  A    between atoms: C_2  and  C_3
REMARK    3  A    between atoms: C_2  and  N_11
REMARK    4  A    between atoms: C_3  and  C_4
REMARK    5  A    between atoms: C_4  and  C_5
REMARK    6  A    between atoms: C_12  and  C_14
REMARK    7  A    between atoms: C_14  and  C_15
REMARK    8  A    between atoms: C_16  and  C_17
REMARK                            x       y       z     vdW  Elec       q    Type
REMARK                         _______ _______ _______ _____ _____    ______ ____
ROOT
ATOM      1  C   UNL     1       1.291   9.839  19.138  0.00  0.00    +0.000 A 
ATOM      2  C   UNL     1       0.452  10.954  18.903  0.00  0.00    +0.000 A 
ATOM      3  N   UNL     1       0.740  11.668  20.065  0.00  0.00    +0.000 N 
ATOM      4  C   UNL     1       0.536  10.748  21.078  0.00  0.00    +0.000 A 
ATOM      5  C   UNL     1       0.074  10.950  22.379  0.00  0.00    +0.000 A 
ATOM      6  C   UNL     1      -0.555   9.856  22.961  0.00  0.00    +0.000 A 
ATOM      7  C   UNL     1      -0.580   8.620  22.306  0.00  0.00    +0.000 A 
ATOM      8  C   UNL     1       0.130   8.396  21.098  0.00  0.00    +0.000 A 
ATOM      9  C   UNL     1       0.721   9.503  20.444  0.00  0.00    +0.000 A 
ATOM     10  H   UNL     1       1.489  12.340  20.138  0.00  0.00    +0.000 HD
ENDROOT
BRANCH   2  11
ATOM     11  C   UNL     1      -0.947  10.751  18.370  0.00  0.00    +0.000 A 
ATOM     12  C   UNL     1      -1.999  11.595  18.814  0.00  0.00    +0.000 A 
ATOM     13  C   UNL     1      -3.293  11.496  18.321  0.00  0.00    +0.000 A 
ATOM     14  C   UNL     1      -3.575  10.544  17.372  0.00  0.00    +0.000 A 
ATOM     15  C   UNL     1      -2.560   9.703  16.907  0.00  0.00    +0.000 A 
ATOM     16  C   UNL     1      -1.248   9.805  17.398  0.00  0.00    +0.000 A 
ENDBRANCH   2  11
BRANCH   1  17
ATOM     17  C   UNL     1       1.850   9.215  17.882  0.00  0.00    +0.000 C 
BRANCH  17  19
ATOM     18  N   UNL     1       3.661   7.660  17.471  0.00  0.00    +0.000 N 
ATOM     19  C   UNL     1       2.322   7.793  17.773  0.00  0.00    +0.000 C 
ATOM     20  O   UNL     1       1.620   6.844  18.120  0.00  0.00    +0.000 OA
ATOM     21  H   UNL     1       4.156   8.468  17.114  0.00  0.00    +0.000 HD
BRANCH  18  23
ATOM     22  C   UNL     1       5.588   6.463  16.625  0.00  0.00    +0.000 C 
ATOM     23  C   UNL     1       4.352   6.373  17.518  0.00  0.00    +0.000 C 
BRANCH  23  24
ATOM     24  C   UNL     1       4.782   5.967  18.945  0.00  0.00    +0.000 C 
BRANCH  24  25
ATOM     25  C   UNL     1       4.746   4.459  19.232  0.00  0.00    +0.000 C 
BRANCH  25  26
ATOM     26  C   UNL     1       3.323   3.952  19.397  0.00  0.00    +0.000 A 
ATOM     27  C   UNL     1       2.526   4.391  20.463  0.00  0.00    +0.000 A 
ATOM     28  C   UNL     1       1.218   3.922  20.619  0.00  0.00    +0.000 A 
ATOM     29  C   UNL     1       0.681   3.001  19.722  0.00  0.00    +0.000 A 
ATOM     30  C   UNL     1       1.476   2.542  18.661  0.00  0.00    +0.000 A 
ATOM     31  C   UNL     1       2.774   3.018  18.498  0.00  0.00    +0.000 A 
ENDBRANCH  25  26
ENDBRANCH  24  25
ENDBRANCH  23  24
ENDBRANCH  18  23
ENDBRANCH  17  19
ENDBRANCH   1  17
TORSDOF 7
ENDMDL
