MODEL 1
REMARK VINA RESULT:      -7.3      0.000      0.000
REMARK  Name = 
REMARK  6 active torsions:
REMARK  status: ('A' for Active; 'I' for Inactive)
REMARK    1  A    between atoms: C_1  and  O_2
REMARK    2  A    between atoms: O_2  and  C_3
REMARK    3  A    between atoms: C_6  and  C_7
REMARK    4  A    between atoms: C_7  and  N_8
REMARK    5  A    between atoms: N_8  and  C_9
REMARK    6  A    between atoms: C_9  and  C_10
REMARK                            x       y       z     vdW  Elec       q    Type
REMARK                         _______ _______ _______ _____ _____    ______ ____
ROOT
ATOM      1  N   UNL     1       4.827   3.093  18.493  0.00  0.00    +0.000 NA
ATOM      2  H   UNL     1       5.128   2.368  17.838  0.00  0.00    +0.000 HD
ENDROOT
BRANCH   1   3
ATOM      3  C   UNL     1       3.414   3.366  18.193  0.00  0.00    +0.000 C 
BRANCH   3   7
ATOM      4  C   UNL     1       2.005   7.124  19.802  0.00  0.00    +0.000 A 
ATOM      5  C   UNL     1       1.954   5.984  20.601  0.00  0.00    +0.000 A 
ATOM      6  C   UNL     1       2.386   4.756  20.093  0.00  0.00    +0.000 A 
ATOM      7  C   UNL     1       2.875   4.649  18.785  0.00  0.00    +0.000 A 
ATOM      8  C   UNL     1       2.901   5.800  17.984  0.00  0.00    +0.000 A 
ATOM      9  C   UNL     1       2.469   7.025  18.489  0.00  0.00    +0.000 A 
BRANCH   4  11
ATOM     10  C   UNL     1       1.193   8.570  21.524  0.00  0.00    +0.000 C 
ATOM     11  O   UNL     1       1.698   8.390  20.206  0.00  0.00    +0.000 OA
ENDBRANCH   4  11
ENDBRANCH   3   7
ENDBRANCH   1   3
BRANCH   1  12
ATOM     12  C   UNL     1       5.663   4.273  18.233  0.00  0.00    +0.000 C 
BRANCH  12  13
ATOM     13  C   UNL     1       6.326   4.459  16.855  0.00  0.00    +0.000 C 
ATOM     14  C   UNL     1       6.414   5.896  16.363  0.00  0.00    +0.000 C 
ATOM     15  O   UNL     1       7.491   5.892  15.389  0.00  0.00    +0.000 OA
ATOM     16  C   UNL     1       7.192   4.972  14.407  0.00  0.00    +0.000 A 
ATOM     17  C   UNL     1       7.866   5.067  13.199  0.00  0.00    +0.000 A 
ATOM     18  C   UNL     1       7.342   4.414  12.085  0.00  0.00    +0.000 A 
ATOM     19  C   UNL     1       6.151   3.687  12.197  0.00  0.00    +0.000 A 
ATOM     20  C   UNL     1       5.588   3.452  13.452  0.00  0.00    +0.000 A 
ATOM     21  C   UNL     1       6.169   4.032  14.572  0.00  0.00    +0.000 A 
ATOM     22  O   UNL     1       5.686   3.689  15.813  0.00  0.00    +0.000 OA
ENDBRANCH  12  13
ENDBRANCH   1  12
TORSDOF 5
ENDMDL
MODEL 2
REMARK VINA RESULT:      -7.2      0.484      1.157
REMARK  Name = 
REMARK  6 active torsions:
REMARK  status: ('A' for Active; 'I' for Inactive)
REMARK    1  A    between atoms: C_1  and  O_2
REMARK    2  A    between atoms: O_2  and  C_3
REMARK    3  A    between atoms: C_6  and  C_7
REMARK    4  A    between atoms: C_7  and  N_8
REMARK    5  A    between atoms: N_8  and  C_9
REMARK    6  A    between atoms: C_9  and  C_10
REMARK                            x       y       z     vdW  Elec       q    Type
REMARK                         _______ _______ _______ _____ _____    ______ ____
ROOT
ATOM      1  N   UNL     1       4.672   3.125  18.416  0.00  0.00    +0.000 NA
ATOM      2  H   UNL     1       4.897   2.446  17.687  0.00  0.00    +0.000 HD
ENDROOT
BRANCH   1   3
ATOM      3  C   UNL     1       3.262   3.492  18.224  0.00  0.00    +0.000 C 
BRANCH   3   7
ATOM      4  C   UNL     1       2.033   7.308  19.843  0.00  0.00    +0.000 A 
ATOM      5  C   UNL     1       2.514   7.250  18.538  0.00  0.00    +0.000 A 
ATOM      6  C   UNL     1       2.935   6.031  18.002  0.00  0.00    +0.000 A 
ATOM      7  C   UNL     1       2.880   4.854  18.759  0.00  0.00    +0.000 A 
ATOM      8  C   UNL     1       2.414   4.929  20.081  0.00  0.00    +0.000 A 
ATOM      9  C   UNL     1       1.996   6.145  20.616  0.00  0.00    +0.000 A 
BRANCH   4  11
ATOM     10  C   UNL     1       1.016   9.460  19.623  0.00  0.00    +0.000 C 
ATOM     11  O   UNL     1       1.513   8.413  20.449  0.00  0.00    +0.000 OA
ENDBRANCH   4  11
ENDBRANCH   3   7
ENDBRANCH   1   3
BRANCH   1  12
ATOM     12  C   UNL     1       5.555   4.280  18.207  0.00  0.00    +0.000 C 
BRANCH  12  13
ATOM     13  C   UNL     1       6.259   4.476  16.850  0.00  0.00    +0.000 C 
ATOM     14  C   UNL     1       6.377   5.918  16.380  0.00  0.00    +0.000 C 
ATOM     15  O   UNL     1       7.482   5.914  15.437  0.00  0.00    +0.000 OA
ATOM     16  C   UNL     1       7.202   5.009  14.435  0.00  0.00    +0.000 A 
ATOM     17  C   UNL     1       7.911   5.111  13.248  0.00  0.00    +0.000 A 
ATOM     18  C   UNL     1       7.412   4.477  12.112  0.00  0.00    +0.000 A 
ATOM     19  C   UNL     1       6.211   3.762  12.181  0.00  0.00    +0.000 A 
ATOM     20  C   UNL     1       5.610   3.519  13.416  0.00  0.00    +0.000 A 
ATOM     21  C   UNL     1       6.164   4.078  14.560  0.00  0.00    +0.000 A 
ATOM     22  O   UNL     1       5.642   3.726  15.781  0.00  0.00    +0.000 OA
ENDBRANCH  12  13
ENDBRANCH   1  12
TORSDOF 5
ENDMDL
MODEL 3
REMARK VINA RESULT:      -7.2      2.241      7.503
REMARK  Name = 
REMARK  6 active torsions:
REMARK  status: ('A' for Active; 'I' for Inactive)
REMARK    1  A    between atoms: C_1  and  O_2
REMARK    2  A    between atoms: O_2  and  C_3
REMARK    3  A    between atoms: C_6  and  C_7
REMARK    4  A    between atoms: C_7  and  N_8
REMARK    5  A    between atoms: N_8  and  C_9
REMARK    6  A    between atoms: C_9  and  C_10
REMARK                            x       y       z     vdW  Elec       q    Type
REMARK                         _______ _______ _______ _____ _____    ______ ____
ROOT
ATOM      1  N   UNL     1       7.415   4.926  17.229  0.00  0.00    +0.000 NA
ATOM      2  H   UNL     1       8.424   4.972  17.387  0.00  0.00    +0.000 HD
ENDROOT
BRANCH   1   3
ATOM      3  C   UNL     1       7.135   5.780  16.066  0.00  0.00    +0.000 C 
BRANCH   3   7
ATOM      4  C   UNL     1       5.901   3.523  12.591  0.00  0.00    +0.000 A 
ATOM      5  C   UNL     1       7.122   4.192  12.564  0.00  0.00    +0.000 A 
ATOM      6  C   UNL     1       7.531   4.944  13.669  0.00  0.00    +0.000 A 
ATOM      7  C   UNL     1       6.729   5.036  14.814  0.00  0.00    +0.000 A 
ATOM      8  C   UNL     1       5.491   4.375  14.819  0.00  0.00    +0.000 A 
ATOM      9  C   UNL     1       5.082   3.627  13.717  0.00  0.00    +0.000 A 
BRANCH   4  11
ATOM     10  C   UNL     1       6.182   1.520  11.317  0.00  0.00    +0.000 C 
ATOM     11  O   UNL     1       5.432   2.691  11.618  0.00  0.00    +0.000 OA
ENDBRANCH   4  11
ENDBRANCH   3   7
ENDBRANCH   1   3
BRANCH   1  12
ATOM     12  C   UNL     1       6.771   5.450  18.440  0.00  0.00    +0.000 C 
BRANCH  12  13
ATOM     13  C   UNL     1       5.602   4.681  19.085  0.00  0.00    +0.000 C 
ATOM     14  C   UNL     1       5.069   3.508  18.275  0.00  0.00    +0.000 C 
ATOM     15  O   UNL     1       4.408   2.654  19.245  0.00  0.00    +0.000 OA
ATOM     16  C   UNL     1       3.436   3.390  19.890  0.00  0.00    +0.000 A 
ATOM     17  C   UNL     1       2.440   2.702  20.566  0.00  0.00    +0.000 A 
ATOM     18  C   UNL     1       1.268   3.378  20.901  0.00  0.00    +0.000 A 
ATOM     19  C   UNL     1       1.110   4.722  20.547  0.00  0.00    +0.000 A 
ATOM     20  C   UNL     1       2.188   5.443  20.032  0.00  0.00    +0.000 A 
ATOM     21  C   UNL     1       3.385   4.785  19.785  0.00  0.00    +0.000 A 
ATOM     22  O   UNL     1       4.477   5.528  19.404  0.00  0.00    +0.000 OA
ENDBRANCH  12  13
ENDBRANCH   1  12
TORSDOF 5
ENDMDL
MODEL 4
REMARK VINA RESULT:      -7.1      2.519      7.092
REMARK  Name = 
REMARK  6 active torsions:
REMARK  status: ('A' for Active; 'I' for Inactive)
REMARK    1  A    between atoms: C_1  and  O_2
REMARK    2  A    between atoms: O_2  and  C_3
REMARK    3  A    between atoms: C_6  and  C_7
REMARK    4  A    between atoms: C_7  and  N_8
REMARK    5  A    between atoms: N_8  and  C_9
REMARK    6  A    between atoms: C_9  and  C_10
REMARK                            x       y       z     vdW  Elec       q    Type
REMARK                         _______ _______ _______ _____ _____    ______ ____
ROOT
ATOM      1  N   UNL     1       7.699   4.756  17.125  0.00  0.00    +0.000 NA
ATOM      2  H   UNL     1       8.653   4.993  17.404  0.00  0.00    +0.000 HD
ENDROOT
BRANCH   1   3
ATOM      3  C   UNL     1       7.394   5.573  15.942  0.00  0.00    +0.000 C 
BRANCH   3   7
ATOM      4  C   UNL     1       5.728   3.534  12.514  0.00  0.00    +0.000 A 
ATOM      5  C   UNL     1       5.053   3.475  13.730  0.00  0.00    +0.000 A 
ATOM      6  C   UNL     1       5.584   4.110  14.855  0.00  0.00    +0.000 A 
ATOM      7  C   UNL     1       6.793   4.813  14.782  0.00  0.00    +0.000 A 
ATOM      8  C   UNL     1       7.475   4.846  13.556  0.00  0.00    +0.000 A 
ATOM      9  C   UNL     1       6.946   4.211  12.433  0.00  0.00    +0.000 A 
BRANCH   4  11
ATOM     10  C   UNL     1       3.894   3.191  11.019  0.00  0.00    +0.000 C 
ATOM     11  O   UNL     1       5.274   3.033  11.329  0.00  0.00    +0.000 OA
ENDBRANCH   4  11
ENDBRANCH   3   7
ENDBRANCH   1   3
BRANCH   1  12
ATOM     12  C   UNL     1       6.827   5.107  18.253  0.00  0.00    +0.000 C 
BRANCH  12  13
ATOM     13  C   UNL     1       5.352   4.660  18.254  0.00  0.00    +0.000 C 
ATOM     14  C   UNL     1       4.330   5.788  18.231  0.00  0.00    +0.000 C 
ATOM     15  O   UNL     1       3.119   5.183  17.706  0.00  0.00    +0.000 OA
ATOM     16  C   UNL     1       2.774   4.118  18.512  0.00  0.00    +0.000 A 
ATOM     17  C   UNL     1       1.475   3.639  18.437  0.00  0.00    +0.000 A 
ATOM     18  C   UNL     1       0.996   2.837  19.471  0.00  0.00    +0.000 A 
ATOM     19  C   UNL     1       1.819   2.536  20.562  0.00  0.00    +0.000 A 
ATOM     20  C   UNL     1       3.173   2.873  20.532  0.00  0.00    +0.000 A 
ATOM     21  C   UNL     1       3.666   3.595  19.454  0.00  0.00    +0.000 A 
ATOM     22  O   UNL     1       5.022   3.806  19.371  0.00  0.00    +0.000 OA
ENDBRANCH  12  13
ENDBRANCH   1  12
TORSDOF 5
ENDMDL
MODEL 5
REMARK VINA RESULT:      -7.1      1.441      2.036
REMARK  Name = 
REMARK  6 active torsions:
REMARK  status: ('A' for Active; 'I' for Inactive)
REMARK    1  A    between atoms: C_1  and  O_2
REMARK    2  A    between atoms: O_2  and  C_3
REMARK    3  A    between atoms: C_6  and  C_7
REMARK    4  A    between atoms: C_7  and  N_8
REMARK    5  A    between atoms: N_8  and  C_9
REMARK    6  A    between atoms: C_9  and  C_10
REMARK                            x       y       z     vdW  Elec       q    Type
REMARK                         _______ _______ _______ _____ _____    ______ ____
ROOT
ATOM      1  N   UNL     1       4.945   5.476  19.022  0.00  0.00    +0.000 NA
ATOM      2  H   UNL     1       5.230   5.395  20.000  0.00  0.00    +0.000 HD
ENDROOT
BRANCH   1   3
ATOM      3  C   UNL     1       3.476   5.441  19.012  0.00  0.00    +0.000 C 
BRANCH   3   7
ATOM      4  C   UNL     1       1.426   9.246  18.897  0.00  0.00    +0.000 A 
ATOM      5  C   UNL     1       2.140   8.828  17.777  0.00  0.00    +0.000 A 
ATOM      6  C   UNL     1       2.826   7.611  17.800  0.00  0.00    +0.000 A 
ATOM      7  C   UNL     1       2.807   6.795  18.938  0.00  0.00    +0.000 A 
ATOM      8  C   UNL     1       2.102   7.238  20.068  0.00  0.00    +0.000 A 
ATOM      9  C   UNL     1       1.419   8.452  20.046  0.00  0.00    +0.000 A 
BRANCH   4  11
ATOM     10  C   UNL     1      -0.616  10.345  18.316  0.00  0.00    +0.000 C 
ATOM     11  O   UNL     1       0.648  10.363  18.971  0.00  0.00    +0.000 OA
ENDBRANCH   4  11
ENDBRANCH   3   7
ENDBRANCH   1   3
BRANCH   1  12
ATOM     12  C   UNL     1       5.510   4.318  18.318  0.00  0.00    +0.000 C 
BRANCH  12  13
ATOM     13  C   UNL     1       6.198   4.508  16.952  0.00  0.00    +0.000 C 
ATOM     14  C   UNL     1       6.245   5.940  16.440  0.00  0.00    +0.000 C 
ATOM     15  O   UNL     1       7.344   5.961  15.491  0.00  0.00    +0.000 OA
ATOM     16  C   UNL     1       7.102   5.016  14.517  0.00  0.00    +0.000 A 
ATOM     17  C   UNL     1       7.800   5.118  13.323  0.00  0.00    +0.000 A 
ATOM     18  C   UNL     1       7.327   4.429  12.208  0.00  0.00    +0.000 A 
ATOM     19  C   UNL     1       6.161   3.660  12.304  0.00  0.00    +0.000 A 
ATOM     20  C   UNL     1       5.578   3.424  13.550  0.00  0.00    +0.000 A 
ATOM     21  C   UNL     1       6.110   4.041  14.674  0.00  0.00    +0.000 A 
ATOM     22  O   UNL     1       5.612   3.699  15.908  0.00  0.00    +0.000 OA
ENDBRANCH  12  13
ENDBRANCH   1  12
TORSDOF 5
ENDMDL
MODEL 6
REMARK VINA RESULT:      -7.0      4.258      6.768
REMARK  Name = 
REMARK  6 active torsions:
REMARK  status: ('A' for Active; 'I' for Inactive)
REMARK    1  A    between atoms: C_1  and  O_2
REMARK    2  A    between atoms: O_2  and  C_3
REMARK    3  A    between atoms: C_6  and  C_7
REMARK    4  A    between atoms: C_7  and  N_8
REMARK    5  A    between atoms: N_8  and  C_9
REMARK    6  A    between atoms: C_9  and  C_10
REMARK                            x       y       z     vdW  Elec       q    Type
REMARK                         _______ _______ _______ _____ _____    ______ ____
ROOT
ATOM      1  N   UNL     1       1.741   9.239  17.581  0.00  0.00    +0.000 NA
ATOM      2  H   UNL     1       2.252   9.939  17.039  0.00  0.00    +0.000 HD
ENDROOT
BRANCH   1   3
ATOM      3  C   UNL     1       1.242   9.924  18.782  0.00  0.00    +0.000 C 
BRANCH   3   7
ATOM      4  C   UNL     1      -2.821  11.331  18.327  0.00  0.00    +0.000 A 
ATOM      5  C   UNL     1      -2.044  11.831  19.369  0.00  0.00    +0.000 A 
ATOM      6  C   UNL     1      -0.736  11.375  19.546  0.00  0.00    +0.000 A 
ATOM      7  C   UNL     1      -0.184  10.417  18.686  0.00  0.00    +0.000 A 
ATOM      8  C   UNL     1      -0.984   9.905  17.653  0.00  0.00    +0.000 A 
ATOM      9  C   UNL     1      -2.290  10.358  17.477  0.00  0.00    +0.000 A 
BRANCH   4  11
ATOM     10  C   UNL     1      -4.611  11.349  16.743  0.00  0.00    +0.000 C 
ATOM     11  O   UNL     1      -4.073  11.756  17.996  0.00  0.00    +0.000 OA
ENDBRANCH   4  11
ENDBRANCH   3   7
ENDBRANCH   1   3
BRANCH   1  12
ATOM     12  C   UNL     1       2.704   8.187  17.930  0.00  0.00    +0.000 C 
BRANCH  12  13
ATOM     13  C   UNL     1       2.202   6.820  18.433  0.00  0.00    +0.000 C 
ATOM     14  C   UNL     1       2.588   6.470  19.863  0.00  0.00    +0.000 C 
ATOM     15  O   UNL     1       1.613   5.478  20.280  0.00  0.00    +0.000 OA
ATOM     16  C   UNL     1       1.661   4.416  19.401  0.00  0.00    +0.000 A 
ATOM     17  C   UNL     1       1.111   3.210  19.807  0.00  0.00    +0.000 A 
ATOM     18  C   UNL     1       1.462   2.049  19.121  0.00  0.00    +0.000 A 
ATOM     19  C   UNL     1       2.362   2.114  18.051  0.00  0.00    +0.000 A 
ATOM     20  C   UNL     1       2.760   3.351  17.544  0.00  0.00    +0.000 A 
ATOM     21  C   UNL     1       2.333   4.510  18.177  0.00  0.00    +0.000 A 
ATOM     22  O   UNL     1       2.622   5.721  17.595  0.00  0.00    +0.000 OA
ENDBRANCH  12  13
ENDBRANCH   1  12
TORSDOF 5
ENDMDL
MODEL 7
REMARK VINA RESULT:      -7.0      5.703      7.514
REMARK  Name = 
REMARK  6 active torsions:
REMARK  status: ('A' for Active; 'I' for Inactive)
REMARK    1  A    between atoms: C_1  and  O_2
REMARK    2  A    between atoms: O_2  and  C_3
REMARK    3  A    between atoms: C_6  and  C_7
REMARK    4  A    between atoms: C_7  and  N_8
REMARK    5  A    between atoms: N_8  and  C_9
REMARK    6  A    between atoms: C_9  and  C_10
REMARK                            x       y       z     vdW  Elec       q    Type
REMARK                         _______ _______ _______ _____ _____    ______ ____
ROOT
ATOM      1  N   UNL     1       7.854   9.104  17.836  0.00  0.00    +0.000 NA
ATOM      2  H   UNL     1       8.189   9.735  17.105  0.00  0.00    +0.000 HD
ENDROOT
BRANCH   1   3
ATOM      3  C   UNL     1       8.860   9.133  18.907  0.00  0.00    +0.000 C 
BRANCH   3   7
ATOM      4  C   UNL     1      10.685  12.994  19.579  0.00  0.00    +0.000 A 
ATOM      5  C   UNL     1      10.144  12.304  20.661  0.00  0.00    +0.000 A 
ATOM      6  C   UNL     1       9.531  11.065  20.462  0.00  0.00    +0.000 A 
ATOM      7  C   UNL     1       9.453  10.496  19.185  0.00  0.00    +0.000 A 
ATOM      8  C   UNL     1       9.983  11.211  18.100  0.00  0.00    +0.000 A 
ATOM      9  C   UNL     1      10.592  12.449  18.297  0.00  0.00    +0.000 A 
BRANCH   4  11
ATOM     10  C   UNL     1      10.865  15.298  18.965  0.00  0.00    +0.000 C 
ATOM     11  O   UNL     1      11.382  14.164  19.653  0.00  0.00    +0.000 OA
ENDBRANCH   4  11
ENDBRANCH   3   7
ENDBRANCH   1   3
BRANCH   1  12
ATOM     12  C   UNL     1       7.759   7.768  17.232  0.00  0.00    +0.000 C 
BRANCH  12  13
ATOM     13  C   UNL     1       6.865   6.693  17.879  0.00  0.00    +0.000 C 
ATOM     14  C   UNL     1       7.607   5.541  18.541  0.00  0.00    +0.000 C 
ATOM     15  O   UNL     1       6.663   4.989  19.497  0.00  0.00    +0.000 OA
ATOM     16  C   UNL     1       5.520   4.617  18.821  0.00  0.00    +0.000 A 
ATOM     17  C   UNL     1       4.654   3.731  19.445  0.00  0.00    +0.000 A 
ATOM     18  C   UNL     1       3.709   3.060  18.671  0.00  0.00    +0.000 A 
ATOM     19  C   UNL     1       3.655   3.277  17.290  0.00  0.00    +0.000 A 
ATOM     20  C   UNL     1       4.406   4.301  16.711  0.00  0.00    +0.000 A 
ATOM     21  C   UNL     1       5.281   5.030  17.505  0.00  0.00    +0.000 A 
ATOM     22  O   UNL     1       5.916   6.117  16.955  0.00  0.00    +0.000 OA
ENDBRANCH  12  13
ENDBRANCH   1  12
TORSDOF 5
ENDMDL
MODEL 8
REMARK VINA RESULT:      -7.0      5.917      7.904
REMARK  Name = 
REMARK  6 active torsions:
REMARK  status: ('A' for Active; 'I' for Inactive)
REMARK    1  A    between atoms: C_1  and  O_2
REMARK    2  A    between atoms: O_2  and  C_3
REMARK    3  A    between atoms: C_6  and  C_7
REMARK    4  A    between atoms: C_7  and  N_8
REMARK    5  A    between atoms: N_8  and  C_9
REMARK    6  A    between atoms: C_9  and  C_10
REMARK                            x       y       z     vdW  Elec       q    Type
REMARK                         _______ _______ _______ _____ _____    ______ ____
ROOT
ATOM      1  N   UNL     1       7.953   9.467  18.038  0.00  0.00    +0.000 NA
ATOM      2  H   UNL     1       8.071  10.092  17.238  0.00  0.00    +0.000 HD
ENDROOT
BRANCH   1   3
ATOM      3  C   UNL     1       9.058   9.761  18.962  0.00  0.00    +0.000 C 
BRANCH   3   7
ATOM      4  C   UNL     1      10.822  13.667  18.394  0.00  0.00    +0.000 A 
ATOM      5  C   UNL     1      11.154  12.640  17.514  0.00  0.00    +0.000 A 
ATOM      6  C   UNL     1      10.612  11.366  17.692  0.00  0.00    +0.000 A 
ATOM      7  C   UNL     1       9.729  11.099  18.746  0.00  0.00    +0.000 A 
ATOM      8  C   UNL     1       9.418  12.137  19.638  0.00  0.00    +0.000 A 
ATOM      9  C   UNL     1       9.961  13.408  19.462  0.00  0.00    +0.000 A 
BRANCH   4  11
ATOM     10  C   UNL     1      10.754  15.710  17.153  0.00  0.00    +0.000 C 
ATOM     11  O   UNL     1      11.213  14.969  18.278  0.00  0.00    +0.000 OA
ENDBRANCH   4  11
ENDBRANCH   3   7
ENDBRANCH   1   3
BRANCH   1  12
ATOM     12  C   UNL     1       8.043   8.095  17.522  0.00  0.00    +0.000 C 
BRANCH  12  13
ATOM     13  C   UNL     1       7.086   7.010  18.050  0.00  0.00    +0.000 C 
ATOM     14  C   UNL     1       7.749   5.869  18.808  0.00  0.00    +0.000 C 
ATOM     15  O   UNL     1       6.696   5.307  19.634  0.00  0.00    +0.000 OA
ATOM     16  C   UNL     1       5.656   4.918  18.816  0.00  0.00    +0.000 A 
ATOM     17  C   UNL     1       4.727   4.023  19.324  0.00  0.00    +0.000 A 
ATOM     18  C   UNL     1       3.901   3.337  18.436  0.00  0.00    +0.000 A 
ATOM     19  C   UNL     1       4.025   3.550  17.059  0.00  0.00    +0.000 A 
ATOM     20  C   UNL     1       4.833   4.582  16.579  0.00  0.00    +0.000 A 
ATOM     21  C   UNL     1       5.586   5.325  17.478  0.00  0.00    +0.000 A 
ATOM     22  O   UNL     1       6.274   6.419  17.012  0.00  0.00    +0.000 OA
ENDBRANCH  12  13
ENDBRANCH   1  12
TORSDOF 5
ENDMDL
MODEL 9
REMARK VINA RESULT:      -6.9      2.825      3.641
REMARK  Name = 
REMARK  6 active torsions:
REMARK  status: ('A' for Active; 'I' for Inactive)
REMARK    1  A    between atoms: C_1  and  O_2
REMARK    2  A    between atoms: O_2  and  C_3
REMARK    3  A    between atoms: C_6  and  C_7
REMARK    4  A    between atoms: C_7  and  N_8
REMARK    5  A    between atoms: N_8  and  C_9
REMARK    6  A    between atoms: C_9  and  C_10
REMARK                            x       y       z     vdW  Elec       q    Type
REMARK                         _______ _______ _______ _____ _____    ______ ____
ROOT
ATOM      1  N   UNL     1       2.801   3.322  16.942  0.00  0.00    +0.000 NA
ATOM      2  H   UNL     1       3.161   4.155  16.471  0.00  0.00    +0.000 HD
ENDROOT
BRANCH   1   3
ATOM      3  C   UNL     1       1.576   3.734  17.642  0.00  0.00    +0.000 C 
BRANCH   3   7
ATOM      4  C   UNL     1       1.889   7.093  20.346  0.00  0.00    +0.000 A 
ATOM      5  C   UNL     1       2.221   7.271  19.005  0.00  0.00    +0.000 A 
ATOM      6  C   UNL     1       2.146   6.194  18.119  0.00  0.00    +0.000 A 
ATOM      7  C   UNL     1       1.738   4.928  18.556  0.00  0.00    +0.000 A 
ATOM      8  C   UNL     1       1.427   4.757  19.914  0.00  0.00    +0.000 A 
ATOM      9  C   UNL     1       1.502   5.831  20.799  0.00  0.00    +0.000 A 
BRANCH   4  11
ATOM     10  C   UNL     1       1.046   9.230  21.010  0.00  0.00    +0.000 C 
ATOM     11  O   UNL     1       1.836   8.079  21.287  0.00  0.00    +0.000 OA
ENDBRANCH   4  11
ENDBRANCH   3   7
ENDBRANCH   1   3
BRANCH   1  12
ATOM     12  C   UNL     1       3.835   2.890  17.890  0.00  0.00    +0.000 C 
BRANCH  12  13
ATOM     13  C   UNL     1       5.035   3.809  18.194  0.00  0.00    +0.000 C 
ATOM     14  C   UNL     1       5.087   4.364  19.610  0.00  0.00    +0.000 C 
ATOM     15  O   UNL     1       6.480   4.713  19.823  0.00  0.00    +0.000 OA
ATOM     16  C   UNL     1       6.865   5.607  18.845  0.00  0.00    +0.000 A 
ATOM     17  C   UNL     1       8.007   6.361  19.065  0.00  0.00    +0.000 A 
ATOM     18  C   UNL     1       8.213   7.506  18.298  0.00  0.00    +0.000 A 
ATOM     19  C   UNL     1       7.270   7.881  17.335  0.00  0.00    +0.000 A 
ATOM     20  C   UNL     1       6.225   7.018  17.003  0.00  0.00    +0.000 A 
ATOM     21  C   UNL     1       6.077   5.832  17.710  0.00  0.00    +0.000 A 
ATOM     22  O   UNL     1       5.128   4.931  17.290  0.00  0.00    +0.000 OA
ENDBRANCH  12  13
ENDBRANCH   1  12
TORSDOF 5
ENDMDL
