MODEL 1
REMARK VINA RESULT:      -7.7      0.000      0.000
REMARK  Name = 
REMARK  8 active torsions:
REMARK  status: ('A' for Active; 'I' for Inactive)
REMARK    1  A    between atoms: C_1  and  N_2
REMARK    2  A    between atoms: N_2  and  C_3
REMARK    3  A    between atoms: N_2  and  C_19
REMARK    4  A    between atoms: C_3  and  C_4
REMARK    5  A    between atoms: N_6  and  C_7
REMARK    6  A    between atoms: C_13  and  N_14
REMARK    7  A    between atoms: C_19  and  C_20
REMARK    8  A    between atoms: C_25  and  N_26
REMARK                            x       y       z     vdW  Elec       q    Type
REMARK                         _______ _______ _______ _____ _____    ______ ____
ROOT
ATOM      1  C   UNL     1       2.289   8.882  18.177  0.00  0.00    +0.000 C 
ENDROOT
BRANCH   1   2
ATOM      2  C   UNL     1       2.476   7.427  18.600  0.00  0.00    +0.000 C 
ATOM      3  O   UNL     1       2.399   7.076  19.775  0.00  0.00    +0.000 OA
ATOM      4  N   UNL     1       2.708   6.579  17.533  0.00  0.00    +0.000 N 
ATOM      5  H   UNL     1       3.244   6.996  16.768  0.00  0.00    +0.000 HD
BRANCH   4   6
ATOM      6  C   UNL     1       2.912   5.197  17.716  0.00  0.00    +0.000 A 
ATOM      7  C   UNL     1       1.816   4.396  18.077  0.00  0.00    +0.000 A 
ATOM      8  C   UNL     1       1.993   3.033  18.298  0.00  0.00    +0.000 A 
ATOM      9 CL   UNL     1       0.645   2.059  18.749  0.00  0.00    +0.000 Cl
ATOM     10  C   UNL     1       3.245   2.458  18.156  0.00  0.00    +0.000 A 
ATOM     11  C   UNL     1       4.343   3.243  17.778  0.00  0.00    +0.000 A 
ATOM     12  C   UNL     1       4.187   4.620  17.550  0.00  0.00    +0.000 A 
BRANCH  12  13
ATOM     13  N   UNL     1       5.332   5.422  17.253  0.00  0.00    +0.000 N 
ATOM     14  C   UNL     1       6.013   5.552  16.068  0.00  0.00    +0.000 A 
ATOM     15  N   UNL     1       7.082   6.299  16.225  0.00  0.00    +0.000 NA
ATOM     16  C   UNL     1       7.021   6.643  17.537  0.00  0.00    +0.000 A 
ATOM     17  N   UNL     1       5.961   6.180  18.200  0.00  0.00    +0.000 NA
ENDBRANCH  12  13
ENDBRANCH   4   6
ENDBRANCH   1   2
BRANCH   1  19
ATOM     18  C   UNL     1       0.105   9.894  17.837  0.00  0.00    +0.000 C 
ATOM     19  N   UNL     1       1.114   9.500  18.815  0.00  0.00    +0.000 NA
BRANCH  19  20
ATOM     20  C   UNL     1       1.490  10.581  19.747  0.00  0.00    +0.000 C 
BRANCH  20  21
ATOM     21  C   UNL     1       0.632  10.665  21.001  0.00  0.00    +0.000 A 
ATOM     22  C   UNL     1       0.444   9.451  21.705  0.00  0.00    +0.000 A 
ATOM     23  C   UNL     1      -0.385   9.377  22.816  0.00  0.00    +0.000 A 
ATOM     24  C   UNL     1      -1.048  10.518  23.238  0.00  0.00    +0.000 A 
ATOM     25  C   UNL     1      -0.864  11.728  22.556  0.00  0.00    +0.000 A 
ATOM     26  C   UNL     1      -0.022  11.848  21.434  0.00  0.00    +0.000 A 
BRANCH  26  27
ATOM     27  N   UNL     1       0.078  13.048  20.746  0.00  0.00    +0.000 N 
ATOM     28  C   UNL     1      -0.912  13.466  19.740  0.00  0.00    +0.000 C 
ATOM     29  C   UNL     1      -0.189  14.346  18.700  0.00  0.00    +0.000 C 
ATOM     30  O   UNL     1       0.484  15.473  19.300  0.00  0.00    +0.000 OA
ATOM     31  C   UNL     1       1.403  15.033  20.320  0.00  0.00    +0.000 C 
ATOM     32  C   UNL     1       0.665  14.231  21.404  0.00  0.00    +0.000 C 
ENDBRANCH  26  27
ENDBRANCH  20  21
ENDBRANCH  19  20
ENDBRANCH   1  19
TORSDOF 7
ENDMDL
MODEL 2
REMARK VINA RESULT:      -7.5      2.816      8.878
REMARK  Name = 
REMARK  8 active torsions:
REMARK  status: ('A' for Active; 'I' for Inactive)
REMARK    1  A    between atoms: C_1  and  N_2
REMARK    2  A    between atoms: N_2  and  C_3
REMARK    3  A    between atoms: N_2  and  C_19
REMARK    4  A    between atoms: C_3  and  C_4
REMARK    5  A    between atoms: N_6  and  C_7
REMARK    6  A    between atoms: C_13  and  N_14
REMARK    7  A    between atoms: C_19  and  C_20
REMARK    8  A    between atoms: C_25  and  N_26
REMARK                            x       y       z     vdW  Elec       q    Type
REMARK                         _______ _______ _______ _____ _____    ______ ____
ROOT
ATOM      1  C   UNL     1       2.386   8.442  18.425  0.00  0.00    +0.000 C 
ENDROOT
BRANCH   1   2
ATOM      2  C   UNL     1       1.157   9.147  18.994  0.00  0.00    +0.000 C 
ATOM      3  O   UNL     1       0.795   8.985  20.157  0.00  0.00    +0.000 OA
ATOM      4  N   UNL     1       0.539   9.980  18.081  0.00  0.00    +0.000 N 
ATOM      5  H   UNL     1       0.577   9.651  17.113  0.00  0.00    +0.000 HD
BRANCH   4   6
ATOM      6  C   UNL     1      -0.616  10.716  18.412  0.00  0.00    +0.000 A 
ATOM      7  C   UNL     1      -1.861  10.261  17.949  0.00  0.00    +0.000 A 
ATOM      8  C   UNL     1      -3.017  10.985  18.231  0.00  0.00    +0.000 A 
ATOM      9 CL   UNL     1      -4.539  10.423  17.652  0.00  0.00    +0.000 Cl
ATOM     10  C   UNL     1      -2.946  12.151  18.974  0.00  0.00    +0.000 A 
ATOM     11  C   UNL     1      -1.712  12.607  19.457  0.00  0.00    +0.000 A 
ATOM     12  C   UNL     1      -0.534  11.891  19.185  0.00  0.00    +0.000 A 
BRANCH  12  13
ATOM     13  N   UNL     1       0.726  12.416  19.608  0.00  0.00    +0.000 N 
ATOM     14  C   UNL     1       1.206  12.592  20.883  0.00  0.00    +0.000 A 
ATOM     15  N   UNL     1       2.366  13.207  20.863  0.00  0.00    +0.000 NA
ATOM     16  C   UNL     1       2.593  13.381  19.535  0.00  0.00    +0.000 A 
ATOM     17  N   UNL     1       1.658  12.883  18.725  0.00  0.00    +0.000 NA
ENDBRANCH  12  13
ENDBRANCH   4   6
ENDBRANCH   1   2
BRANCH   1  19
ATOM     18  C   UNL     1       2.959   6.598  19.902  0.00  0.00    +0.000 C 
ATOM     19  N   UNL     1       2.340   6.985  18.638  0.00  0.00    +0.000 NA
BRANCH  19  20
ATOM     20  C   UNL     1       2.851   6.236  17.473  0.00  0.00    +0.000 C 
BRANCH  20  21
ATOM     21  C   UNL     1       2.829   4.722  17.634  0.00  0.00    +0.000 A 
ATOM     22  C   UNL     1       1.624   4.171  18.133  0.00  0.00    +0.000 A 
ATOM     23  C   UNL     1       1.505   2.814  18.404  0.00  0.00    +0.000 A 
ATOM     24  C   UNL     1       2.594   1.987  18.186  0.00  0.00    +0.000 A 
ATOM     25  C   UNL     1       3.790   2.518  17.684  0.00  0.00    +0.000 A 
ATOM     26  C   UNL     1       3.947   3.884  17.385  0.00  0.00    +0.000 A 
BRANCH  26  27
ATOM     27  N   UNL     1       5.168   4.381  16.956  0.00  0.00    +0.000 N 
ATOM     28  C   UNL     1       6.212   4.829  17.892  0.00  0.00    +0.000 C 
ATOM     29  C   UNL     1       7.025   5.942  17.199  0.00  0.00    +0.000 C 
ATOM     30  O   UNL     1       7.577   5.518  15.935  0.00  0.00    +0.000 OA
ATOM     31  C   UNL     1       6.538   5.032  15.063  0.00  0.00    +0.000 C 
ATOM     32  C   UNL     1       5.784   3.863  15.719  0.00  0.00    +0.000 C 
ENDBRANCH  26  27
ENDBRANCH  20  21
ENDBRANCH  19  20
ENDBRANCH   1  19
TORSDOF 7
ENDMDL
MODEL 3
REMARK VINA RESULT:      -7.5      2.765      8.781
REMARK  Name = 
REMARK  8 active torsions:
REMARK  status: ('A' for Active; 'I' for Inactive)
REMARK    1  A    between atoms: C_1  and  N_2
REMARK    2  A    between atoms: N_2  and  C_3
REMARK    3  A    between atoms: N_2  and  C_19
REMARK    4  A    between atoms: C_3  and  C_4
REMARK    5  A    between atoms: N_6  and  C_7
REMARK    6  A    between atoms: C_13  and  N_14
REMARK    7  A    between atoms: C_19  and  C_20
REMARK    8  A    between atoms: C_25  and  N_26
REMARK                            x       y       z     vdW  Elec       q    Type
REMARK                         _______ _______ _______ _____ _____    ______ ____
ROOT
ATOM      1  C   UNL     1       2.605   8.051  19.263  0.00  0.00    +0.000 C 
ENDROOT
BRANCH   1   2
ATOM      2  C   UNL     1       1.711   8.953  18.415  0.00  0.00    +0.000 C 
ATOM      3  O   UNL     1       2.019   9.287  17.273  0.00  0.00    +0.000 OA
ATOM      4  N   UNL     1       0.541   9.314  19.056  0.00  0.00    +0.000 N 
ATOM      5  H   UNL     1       0.631   9.435  20.068  0.00  0.00    +0.000 HD
BRANCH   4   6
ATOM      6  C   UNL     1      -0.415  10.148  18.442  0.00  0.00    +0.000 A 
ATOM      7  C   UNL     1      -1.260   9.598  17.465  0.00  0.00    +0.000 A 
ATOM      8  C   UNL     1      -2.191  10.405  16.816  0.00  0.00    +0.000 A 
ATOM      9 CL   UNL     1      -3.219   9.724  15.612  0.00  0.00    +0.000 Cl
ATOM     10  C   UNL     1      -2.294  11.748  17.135  0.00  0.00    +0.000 A 
ATOM     11  C   UNL     1      -1.469  12.305  18.121  0.00  0.00    +0.000 A 
ATOM     12  C   UNL     1      -0.523  11.509  18.789  0.00  0.00    +0.000 A 
BRANCH  12  13
ATOM     13  N   UNL     1       0.371  12.110  19.727  0.00  0.00    +0.000 N 
ATOM     14  C   UNL     1       0.119  12.547  21.005  0.00  0.00    +0.000 A 
ATOM     15  N   UNL     1       1.174  13.146  21.509  0.00  0.00    +0.000 NA
ATOM     16  C   UNL     1       2.087  13.041  20.509  0.00  0.00    +0.000 A 
ATOM     17  N   UNL     1       1.675  12.385  19.424  0.00  0.00    +0.000 NA
ENDBRANCH  12  13
ENDBRANCH   4   6
ENDBRANCH   1   2
BRANCH   1  19
ATOM     18  C   UNL     1       2.580   5.890  20.376  0.00  0.00    +0.000 C 
ATOM     19  N   UNL     1       2.206   6.636  19.178  0.00  0.00    +0.000 NA
BRANCH  19  20
ATOM     20  C   UNL     1       2.656   6.005  17.922  0.00  0.00    +0.000 C 
BRANCH  20  21
ATOM     21  C   UNL     1       2.655   4.482  17.941  0.00  0.00    +0.000 A 
ATOM     22  C   UNL     1       1.450   3.871  18.366  0.00  0.00    +0.000 A 
ATOM     23  C   UNL     1       1.347   2.493  18.508  0.00  0.00    +0.000 A 
ATOM     24  C   UNL     1       2.452   1.704  18.232  0.00  0.00    +0.000 A 
ATOM     25  C   UNL     1       3.647   2.296  17.802  0.00  0.00    +0.000 A 
ATOM     26  C   UNL     1       3.788   3.687  17.634  0.00  0.00    +0.000 A 
BRANCH  26  27
ATOM     27  N   UNL     1       5.009   4.238  17.273  0.00  0.00    +0.000 N 
ATOM     28  C   UNL     1       5.250   4.822  15.944  0.00  0.00    +0.000 C 
ATOM     29  C   UNL     1       6.745   4.639  15.610  0.00  0.00    +0.000 C 
ATOM     30  O   UNL     1       7.610   5.206  16.615  0.00  0.00    +0.000 OA
ATOM     31  C   UNL     1       7.310   4.657  17.914  0.00  0.00    +0.000 C 
ATOM     32  C   UNL     1       5.841   4.918  18.285  0.00  0.00    +0.000 C 
ENDBRANCH  26  27
ENDBRANCH  20  21
ENDBRANCH  19  20
ENDBRANCH   1  19
TORSDOF 7
ENDMDL
MODEL 4
REMARK VINA RESULT:      -7.4      1.347      1.449
REMARK  Name = 
REMARK  8 active torsions:
REMARK  status: ('A' for Active; 'I' for Inactive)
REMARK    1  A    between atoms: C_1  and  N_2
REMARK    2  A    between atoms: N_2  and  C_3
REMARK    3  A    between atoms: N_2  and  C_19
REMARK    4  A    between atoms: C_3  and  C_4
REMARK    5  A    between atoms: N_6  and  C_7
REMARK    6  A    between atoms: C_13  and  N_14
REMARK    7  A    between atoms: C_19  and  C_20
REMARK    8  A    between atoms: C_25  and  N_26
REMARK                            x       y       z     vdW  Elec       q    Type
REMARK                         _______ _______ _______ _____ _____    ______ ____
ROOT
ATOM      1  C   UNL     1       2.428   8.689  18.304  0.00  0.00    +0.000 C 
ENDROOT
BRANCH   1   2
ATOM      2  C   UNL     1       2.441   7.166  18.409  0.00  0.00    +0.000 C 
ATOM      3  O   UNL     1       1.845   6.453  17.605  0.00  0.00    +0.000 OA
ATOM      4  N   UNL     1       3.199   6.702  19.468  0.00  0.00    +0.000 N 
ATOM      5  H   UNL     1       3.186   7.304  20.295  0.00  0.00    +0.000 HD
BRANCH   4   6
ATOM      6  C   UNL     1       3.332   5.326  19.738  0.00  0.00    +0.000 A 
ATOM      7  C   UNL     1       2.351   4.695  20.519  0.00  0.00    +0.000 A 
ATOM      8  C   UNL     1       2.472   3.343  20.832  0.00  0.00    +0.000 A 
ATOM      9 CL   UNL     1       1.267   2.579  21.797  0.00  0.00    +0.000 Cl
ATOM     10  C   UNL     1       3.554   2.614  20.369  0.00  0.00    +0.000 A 
ATOM     11  C   UNL     1       4.531   3.227  19.574  0.00  0.00    +0.000 A 
ATOM     12  C   UNL     1       4.428   4.589  19.245  0.00  0.00    +0.000 A 
BRANCH  12  13
ATOM     13  N   UNL     1       5.477   5.221  18.509  0.00  0.00    +0.000 N 
ATOM     14  C   UNL     1       6.724   5.605  18.936  0.00  0.00    +0.000 A 
ATOM     15  N   UNL     1       7.360   6.256  17.990  0.00  0.00    +0.000 NA
ATOM     16  C   UNL     1       6.474   6.238  16.962  0.00  0.00    +0.000 A 
ATOM     17  N   UNL     1       5.335   5.588  17.200  0.00  0.00    +0.000 NA
ENDBRANCH  12  13
ENDBRANCH   4   6
ENDBRANCH   1   2
BRANCH   1  19
ATOM     18  C   UNL     1       0.182   9.494  17.841  0.00  0.00    +0.000 C 
ATOM     19  N   UNL     1       1.198   9.274  18.864  0.00  0.00    +0.000 NA
BRANCH  19  20
ATOM     20  C   UNL     1       1.476  10.466  19.690  0.00  0.00    +0.000 C 
BRANCH  20  21
ATOM     21  C   UNL     1       0.629  10.576  20.950  0.00  0.00    +0.000 A 
ATOM     22  C   UNL     1       0.376   9.362  21.633  0.00  0.00    +0.000 A 
ATOM     23  C   UNL     1      -0.451   9.315  22.747  0.00  0.00    +0.000 A 
ATOM     24  C   UNL     1      -1.046  10.484  23.193  0.00  0.00    +0.000 A 
ATOM     25  C   UNL     1      -0.797  11.694  22.532  0.00  0.00    +0.000 A 
ATOM     26  C   UNL     1       0.045  11.786  21.407  0.00  0.00    +0.000 A 
BRANCH  26  27
ATOM     27  N   UNL     1       0.210  12.990  20.740  0.00  0.00    +0.000 N 
ATOM     28  C   UNL     1      -0.863  13.605  19.943  0.00  0.00    +0.000 C 
ATOM     29  C   UNL     1      -0.206  14.417  18.808  0.00  0.00    +0.000 C 
ATOM     30  O   UNL     1       0.731  15.397  19.301  0.00  0.00    +0.000 OA
ATOM     31  C   UNL     1       1.736  14.772  20.125  0.00  0.00    +0.000 C 
ATOM     32  C   UNL     1       1.084  14.036  21.307  0.00  0.00    +0.000 C 
ENDBRANCH  26  27
ENDBRANCH  20  21
ENDBRANCH  19  20
ENDBRANCH   1  19
TORSDOF 7
ENDMDL
MODEL 5
REMARK VINA RESULT:      -7.3      3.186      9.119
REMARK  Name = 
REMARK  8 active torsions:
REMARK  status: ('A' for Active; 'I' for Inactive)
REMARK    1  A    between atoms: C_1  and  N_2
REMARK    2  A    between atoms: N_2  and  C_3
REMARK    3  A    between atoms: N_2  and  C_19
REMARK    4  A    between atoms: C_3  and  C_4
REMARK    5  A    between atoms: N_6  and  C_7
REMARK    6  A    between atoms: C_13  and  N_14
REMARK    7  A    between atoms: C_19  and  C_20
REMARK    8  A    between atoms: C_25  and  N_26
REMARK                            x       y       z     vdW  Elec       q    Type
REMARK                         _______ _______ _______ _____ _____    ______ ____
ROOT
ATOM      1  C   UNL     1       2.386   8.983  17.716  0.00  0.00    +0.000 C 
ENDROOT
BRANCH   1   2
ATOM      2  C   UNL     1       1.253   9.916  18.136  0.00  0.00    +0.000 C 
ATOM      3  O   UNL     1       0.081   9.685  17.850  0.00  0.00    +0.000 OA
ATOM      4  N   UNL     1       1.689  11.000  18.874  0.00  0.00    +0.000 N 
ATOM      5  H   UNL     1       2.612  11.352  18.607  0.00  0.00    +0.000 HD
BRANCH   4   6
ATOM      6  C   UNL     1       0.797  11.980  19.351  0.00  0.00    +0.000 A 
ATOM      7  C   UNL     1       0.701  13.198  18.659  0.00  0.00    +0.000 A 
ATOM      8  C   UNL     1      -0.147  14.199  19.125  0.00  0.00    +0.000 A 
ATOM      9 CL   UNL     1      -0.253  15.693  18.274  0.00  0.00    +0.000 Cl
ATOM     10  C   UNL     1      -0.905  13.998  20.266  0.00  0.00    +0.000 A 
ATOM     11  C   UNL     1      -0.833  12.780  20.956  0.00  0.00    +0.000 A 
ATOM     12  C   UNL     1       0.016  11.756  20.503  0.00  0.00    +0.000 A 
BRANCH  12  13
ATOM     13  N   UNL     1       0.146  10.555  21.266  0.00  0.00    +0.000 N 
ATOM     14  C   UNL     1      -0.711   9.486  21.349  0.00  0.00    +0.000 A 
ATOM     15  N   UNL     1      -0.293   8.623  22.247  0.00  0.00    +0.000 NA
ATOM     16  C   UNL     1       0.860   9.185  22.693  0.00  0.00    +0.000 A 
ATOM     17  N   UNL     1       1.201  10.332  22.106  0.00  0.00    +0.000 NA
ENDBRANCH  12  13
ENDBRANCH   4   6
ENDBRANCH   1   2
BRANCH   1  19
ATOM     18  C   UNL     1       2.060   7.757  19.789  0.00  0.00    +0.000 C 
ATOM     19  N   UNL     1       2.280   7.658  18.350  0.00  0.00    +0.000 NA
BRANCH  19  20
ATOM     20  C   UNL     1       3.402   6.772  17.981  0.00  0.00    +0.000 C 
BRANCH  20  21
ATOM     21  C   UNL     1       3.030   5.303  17.839  0.00  0.00    +0.000 A 
ATOM     22  C   UNL     1       1.776   4.928  18.378  0.00  0.00    +0.000 A 
ATOM     23  C   UNL     1       1.357   3.604  18.388  0.00  0.00    +0.000 A 
ATOM     24  C   UNL     1       2.192   2.631  17.863  0.00  0.00    +0.000 A 
ATOM     25  C   UNL     1       3.432   2.990  17.318  0.00  0.00    +0.000 A 
ATOM     26  C   UNL     1       3.887   4.321  17.278  0.00  0.00    +0.000 A 
BRANCH  26  27
ATOM     27  N   UNL     1       5.151   4.626  16.794  0.00  0.00    +0.000 N 
ATOM     28  C   UNL     1       6.290   4.906  17.681  0.00  0.00    +0.000 C 
ATOM     29  C   UNL     1       7.234   5.882  16.948  0.00  0.00    +0.000 C 
ATOM     30  O   UNL     1       7.658   5.380  15.664  0.00  0.00    +0.000 OA
ATOM     31  C   UNL     1       6.519   5.061  14.839  0.00  0.00    +0.000 C 
ATOM     32  C   UNL     1       5.625   4.020  15.534  0.00  0.00    +0.000 C 
ENDBRANCH  26  27
ENDBRANCH  20  21
ENDBRANCH  19  20
ENDBRANCH   1  19
TORSDOF 7
ENDMDL
MODEL 6
REMARK VINA RESULT:      -7.3      1.013      1.013
REMARK  Name = 
REMARK  8 active torsions:
REMARK  status: ('A' for Active; 'I' for Inactive)
REMARK    1  A    between atoms: C_1  and  N_2
REMARK    2  A    between atoms: N_2  and  C_3
REMARK    3  A    between atoms: N_2  and  C_19
REMARK    4  A    between atoms: C_3  and  C_4
REMARK    5  A    between atoms: N_6  and  C_7
REMARK    6  A    between atoms: C_13  and  N_14
REMARK    7  A    between atoms: C_19  and  C_20
REMARK    8  A    between atoms: C_25  and  N_26
REMARK                            x       y       z     vdW  Elec       q    Type
REMARK                         _______ _______ _______ _____ _____    ______ ____
ROOT
ATOM      1  C   UNL     1       1.796   8.871  18.189  0.00  0.00    +0.000 C 
ENDROOT
BRANCH   1   2
ATOM      2  C   UNL     1       2.186   7.622  18.976  0.00  0.00    +0.000 C 
ATOM      3  O   UNL     1       2.253   7.620  20.202  0.00  0.00    +0.000 OA
ATOM      4  N   UNL     1       2.421   6.525  18.168  0.00  0.00    +0.000 N 
ATOM      5  H   UNL     1       2.837   6.747  17.260  0.00  0.00    +0.000 HD
BRANCH   4   6
ATOM      6  C   UNL     1       2.799   5.278  18.704  0.00  0.00    +0.000 A 
ATOM      7  C   UNL     1       1.950   4.661  19.638  0.00  0.00    +0.000 A 
ATOM      8  C   UNL     1       2.311   3.445  20.211  0.00  0.00    +0.000 A 
ATOM      9 CL   UNL     1       1.269   2.700  21.362  0.00  0.00    +0.000 Cl
ATOM     10  C   UNL     1       3.503   2.833  19.858  0.00  0.00    +0.000 A 
ATOM     11  C   UNL     1       4.349   3.428  18.914  0.00  0.00    +0.000 A 
ATOM     12  C   UNL     1       4.004   4.655  18.323  0.00  0.00    +0.000 A 
BRANCH  12  13
ATOM     13  N   UNL     1       4.919   5.293  17.429  0.00  0.00    +0.000 N 
ATOM     14  C   UNL     1       5.457   4.819  16.258  0.00  0.00    +0.000 A 
ATOM     15  N   UNL     1       6.347   5.658  15.781  0.00  0.00    +0.000 NA
ATOM     16  C   UNL     1       6.319   6.673  16.683  0.00  0.00    +0.000 A 
ATOM     17  N   UNL     1       5.442   6.531  17.678  0.00  0.00    +0.000 NA
ENDBRANCH  12  13
ENDBRANCH   4   6
ENDBRANCH   1   2
BRANCH   1  19
ATOM     18  C   UNL     1      -0.343   9.980  17.872  0.00  0.00    +0.000 C 
ATOM     19  N   UNL     1       0.695   9.610  18.829  0.00  0.00    +0.000 NA
BRANCH  19  20
ATOM     20  C   UNL     1       1.183  10.742  19.642  0.00  0.00    +0.000 C 
BRANCH  20  21
ATOM     21  C   UNL     1       0.393  10.992  20.919  0.00  0.00    +0.000 A 
ATOM     22  C   UNL     1       0.007   9.838  21.643  0.00  0.00    +0.000 A 
ATOM     23  C   UNL     1      -0.788   9.927  22.779  0.00  0.00    +0.000 A 
ATOM     24  C   UNL     1      -1.216  11.174  23.204  0.00  0.00    +0.000 A 
ATOM     25  C   UNL     1      -0.834  12.324  22.502  0.00  0.00    +0.000 A 
ATOM     26  C   UNL     1      -0.019  12.278  21.354  0.00  0.00    +0.000 A 
BRANCH  26  27
ATOM     27  N   UNL     1       0.279  13.434  20.648  0.00  0.00    +0.000 N 
ATOM     28  C   UNL     1      -0.765  14.310  20.091  0.00  0.00    +0.000 C 
ATOM     29  C   UNL     1      -0.192  14.986  18.829  0.00  0.00    +0.000 C 
ATOM     30  O   UNL     1       1.032  15.702  19.091  0.00  0.00    +0.000 OA
ATOM     31  C   UNL     1       2.014  14.831  19.689  0.00  0.00    +0.000 C 
ATOM     32  C   UNL     1       1.475  14.226  20.996  0.00  0.00    +0.000 C 
ENDBRANCH  26  27
ENDBRANCH  20  21
ENDBRANCH  19  20
ENDBRANCH   1  19
TORSDOF 7
ENDMDL
MODEL 7
REMARK VINA RESULT:      -7.3      2.969      8.977
REMARK  Name = 
REMARK  8 active torsions:
REMARK  status: ('A' for Active; 'I' for Inactive)
REMARK    1  A    between atoms: C_1  and  N_2
REMARK    2  A    between atoms: N_2  and  C_3
REMARK    3  A    between atoms: N_2  and  C_19
REMARK    4  A    between atoms: C_3  and  C_4
REMARK    5  A    between atoms: N_6  and  C_7
REMARK    6  A    between atoms: C_13  and  N_14
REMARK    7  A    between atoms: C_19  and  C_20
REMARK    8  A    between atoms: C_25  and  N_26
REMARK                            x       y       z     vdW  Elec       q    Type
REMARK                         _______ _______ _______ _____ _____    ______ ____
ROOT
ATOM      1  C   UNL     1       2.304   7.980  19.893  0.00  0.00    +0.000 C 
ENDROOT
BRANCH   1   2
ATOM      2  C   UNL     1       1.521   8.827  18.893  0.00  0.00    +0.000 C 
ATOM      3  O   UNL     1       1.884   8.958  17.727  0.00  0.00    +0.000 OA
ATOM      4  N   UNL     1       0.380   9.390  19.435  0.00  0.00    +0.000 N 
ATOM      5  H   UNL     1       0.462   9.650  20.421  0.00  0.00    +0.000 HD
BRANCH   4   6
ATOM      6  C   UNL     1      -0.475  10.211  18.674  0.00  0.00    +0.000 A 
ATOM      7  C   UNL     1      -1.282   9.616  17.691  0.00  0.00    +0.000 A 
ATOM      8  C   UNL     1      -2.113  10.405  16.899  0.00  0.00    +0.000 A 
ATOM      9 CL   UNL     1      -3.094   9.667  15.691  0.00  0.00    +0.000 Cl
ATOM     10  C   UNL     1      -2.153  11.777  17.081  0.00  0.00    +0.000 A 
ATOM     11  C   UNL     1      -1.366  12.382  18.070  0.00  0.00    +0.000 A 
ATOM     12  C   UNL     1      -0.522  11.604  18.881  0.00  0.00    +0.000 A 
BRANCH  12  13
ATOM     13  N   UNL     1       0.340  12.244  19.824  0.00  0.00    +0.000 N 
ATOM     14  C   UNL     1       0.024  12.838  21.021  0.00  0.00    +0.000 A 
ATOM     15  N   UNL     1       1.079  13.416  21.547  0.00  0.00    +0.000 NA
ATOM     16  C   UNL     1       2.057  13.136  20.648  0.00  0.00    +0.000 A 
ATOM     17  N   UNL     1       1.681  12.392  19.607  0.00  0.00    +0.000 NA
ENDBRANCH  12  13
ENDBRANCH   4   6
ENDBRANCH   1   2
BRANCH   1  19
ATOM     18  C   UNL     1       1.603   5.667  20.152  0.00  0.00    +0.000 C 
ATOM     19  N   UNL     1       2.473   6.591  19.433  0.00  0.00    +0.000 NA
BRANCH  19  20
ATOM     20  C   UNL     1       3.891   6.180  19.415  0.00  0.00    +0.000 C 
BRANCH  20  21
ATOM     21  C   UNL     1       4.401   5.719  18.057  0.00  0.00    +0.000 A 
ATOM     22  C   UNL     1       5.081   6.694  17.288  0.00  0.00    +0.000 A 
ATOM     23  C   UNL     1       5.521   6.424  15.999  0.00  0.00    +0.000 A 
ATOM     24  C   UNL     1       5.280   5.172  15.455  0.00  0.00    +0.000 A 
ATOM     25  C   UNL     1       4.617   4.195  16.209  0.00  0.00    +0.000 A 
ATOM     26  C   UNL     1       4.167   4.425  17.523  0.00  0.00    +0.000 A 
BRANCH  26  27
ATOM     27  N   UNL     1       3.453   3.455  18.209  0.00  0.00    +0.000 N 
ATOM     28  C   UNL     1       2.391   2.659  17.573  0.00  0.00    +0.000 C 
ATOM     29  C   UNL     1       1.363   2.283  18.661  0.00  0.00    +0.000 C 
ATOM     30  O   UNL     1       1.965   1.593  19.776  0.00  0.00    +0.000 OA
ATOM     31  C   UNL     1       3.038   2.373  20.340  0.00  0.00    +0.000 C 
ATOM     32  C   UNL     1       4.107   2.670  19.275  0.00  0.00    +0.000 C 
ENDBRANCH  26  27
ENDBRANCH  20  21
ENDBRANCH  19  20
ENDBRANCH   1  19
TORSDOF 7
ENDMDL
MODEL 8
REMARK VINA RESULT:      -7.3      2.832      8.440
REMARK  Name = 
REMARK  8 active torsions:
REMARK  status: ('A' for Active; 'I' for Inactive)
REMARK    1  A    between atoms: C_1  and  N_2
REMARK    2  A    between atoms: N_2  and  C_3
REMARK    3  A    between atoms: N_2  and  C_19
REMARK    4  A    between atoms: C_3  and  C_4
REMARK    5  A    between atoms: N_6  and  C_7
REMARK    6  A    between atoms: C_13  and  N_14
REMARK    7  A    between atoms: C_19  and  C_20
REMARK    8  A    between atoms: C_25  and  N_26
REMARK                            x       y       z     vdW  Elec       q    Type
REMARK                         _______ _______ _______ _____ _____    ______ ____
ROOT
ATOM      1  C   UNL     1       2.639   8.131  17.909  0.00  0.00    +0.000 C 
ENDROOT
BRANCH   1   2
ATOM      2  C   UNL     1       1.630   9.273  17.818  0.00  0.00    +0.000 C 
ATOM      3  O   UNL     1       1.975  10.431  17.601  0.00  0.00    +0.000 OA
ATOM      4  N   UNL     1       0.322   8.854  17.978  0.00  0.00    +0.000 N 
ATOM      5  H   UNL     1       0.203   8.073  18.629  0.00  0.00    +0.000 HD
BRANCH   4   6
ATOM      6  C   UNL     1      -0.757   9.758  17.933  0.00  0.00    +0.000 A 
ATOM      7  C   UNL     1      -1.481   9.885  16.736  0.00  0.00    +0.000 A 
ATOM      8  C   UNL     1      -2.531  10.795  16.650  0.00  0.00    +0.000 A 
ATOM      9 CL   UNL     1      -3.408  10.950  15.175  0.00  0.00    +0.000 Cl
ATOM     10  C   UNL     1      -2.873  11.573  17.743  0.00  0.00    +0.000 A 
ATOM     11  C   UNL     1      -2.171  11.444  18.949  0.00  0.00    +0.000 A 
ATOM     12  C   UNL     1      -1.108  10.531  19.058  0.00  0.00    +0.000 A 
BRANCH  12  13
ATOM     13  N   UNL     1      -0.345  10.475  20.265  0.00  0.00    +0.000 N 
ATOM     14  C   UNL     1       0.422  11.452  20.850  0.00  0.00    +0.000 A 
ATOM     15  N   UNL     1       1.060  10.979  21.896  0.00  0.00    +0.000 NA
ATOM     16  C   UNL     1       0.640   9.688  21.949  0.00  0.00    +0.000 A 
ATOM     17  N   UNL     1      -0.245   9.337  21.015  0.00  0.00    +0.000 NA
ENDBRANCH  12  13
ENDBRANCH   4   6
ENDBRANCH   1   2
BRANCH   1  19
ATOM     18  C   UNL     1       2.556   6.862  19.980  0.00  0.00    +0.000 C 
ATOM     19  N   UNL     1       2.086   6.955  18.602  0.00  0.00    +0.000 NA
BRANCH  19  20
ATOM     20  C   UNL     1       2.276   5.712  17.827  0.00  0.00    +0.000 C 
BRANCH  20  21
ATOM     21  C   UNL     1       2.797   4.533  18.636  0.00  0.00    +0.000 A 
ATOM     22  C   UNL     1       1.851   3.891  19.472  0.00  0.00    +0.000 A 
ATOM     23  C   UNL     1       2.219   2.857  20.323  0.00  0.00    +0.000 A 
ATOM     24  C   UNL     1       3.544   2.453  20.356  0.00  0.00    +0.000 A 
ATOM     25  C   UNL     1       4.488   3.074  19.527  0.00  0.00    +0.000 A 
ATOM     26  C   UNL     1       4.153   4.116  18.642  0.00  0.00    +0.000 A 
BRANCH  26  27
ATOM     27  N   UNL     1       5.130   4.751  17.890  0.00  0.00    +0.000 N 
ATOM     28  C   UNL     1       6.271   5.447  18.504  0.00  0.00    +0.000 C 
ATOM     29  C   UNL     1       6.688   6.596  17.564  0.00  0.00    +0.000 C 
ATOM     30  O   UNL     1       6.988   6.138  16.229  0.00  0.00    +0.000 OA
ATOM     31  C   UNL     1       5.872   5.411  15.677  0.00  0.00    +0.000 C 
ATOM     32  C   UNL     1       5.514   4.212  16.570  0.00  0.00    +0.000 C 
ENDBRANCH  26  27
ENDBRANCH  20  21
ENDBRANCH  19  20
ENDBRANCH   1  19
TORSDOF 7
ENDMDL
MODEL 9
REMARK VINA RESULT:      -7.2      2.665      8.445
REMARK  Name = 
REMARK  8 active torsions:
REMARK  status: ('A' for Active; 'I' for Inactive)
REMARK    1  A    between atoms: C_1  and  N_2
REMARK    2  A    between atoms: N_2  and  C_3
REMARK    3  A    between atoms: N_2  and  C_19
REMARK    4  A    between atoms: C_3  and  C_4
REMARK    5  A    between atoms: N_6  and  C_7
REMARK    6  A    between atoms: C_13  and  N_14
REMARK    7  A    between atoms: C_19  and  C_20
REMARK    8  A    between atoms: C_25  and  N_26
REMARK                            x       y       z     vdW  Elec       q    Type
REMARK                         _______ _______ _______ _____ _____    ______ ____
ROOT
ATOM      1  C   UNL     1       1.966   8.070  20.643  0.00  0.00    +0.000 C 
ENDROOT
BRANCH   1   2
ATOM      2  C   UNL     1       0.715   8.868  20.282  0.00  0.00    +0.000 C 
ATOM      3  O   UNL     1      -0.259   8.924  21.028  0.00  0.00    +0.000 OA
ATOM      4  N   UNL     1       0.820   9.518  19.066  0.00  0.00    +0.000 N 
ATOM      5  H   UNL     1       1.367   9.016  18.362  0.00  0.00    +0.000 HD
BRANCH   4   6
ATOM      6  C   UNL     1      -0.232  10.303  18.552  0.00  0.00    +0.000 A 
ATOM      7  C   UNL     1      -1.122   9.719  17.635  0.00  0.00    +0.000 A 
ATOM      8  C   UNL     1      -2.150  10.478  17.083  0.00  0.00    +0.000 A 
ATOM      9 CL   UNL     1      -3.232   9.757  15.953  0.00  0.00    +0.000 Cl
ATOM     10  C   UNL     1      -2.306  11.807  17.440  0.00  0.00    +0.000 A 
ATOM     11  C   UNL     1      -1.436  12.396  18.367  0.00  0.00    +0.000 A 
ATOM     12  C   UNL     1      -0.392  11.648  18.937  0.00  0.00    +0.000 A 
BRANCH  12  13
ATOM     13  N   UNL     1       0.540  12.287  19.812  0.00  0.00    +0.000 N 
ATOM     14  C   UNL     1       0.341  12.776  21.080  0.00  0.00    +0.000 A 
ATOM     15  N   UNL     1       1.415  13.394  21.514  0.00  0.00    +0.000 NA
ATOM     16  C   UNL     1       2.287  13.246  20.483  0.00  0.00    +0.000 A 
ATOM     17  N   UNL     1       1.830  12.547  19.444  0.00  0.00    +0.000 NA
ENDBRANCH  12  13
ENDBRANCH   4   6
ENDBRANCH   1   2
BRANCH   1  19
ATOM     18  C   UNL     1       2.354   5.685  20.903  0.00  0.00    +0.000 C 
ATOM     19  N   UNL     1       1.997   6.756  19.979  0.00  0.00    +0.000 NA
BRANCH  19  20
ATOM     20  C   UNL     1       2.814   6.774  18.749  0.00  0.00    +0.000 C 
BRANCH  20  21
ATOM     21  C   UNL     1       3.027   5.409  18.109  0.00  0.00    +0.000 A 
ATOM     22  C   UNL     1       1.859   4.636  17.899  0.00  0.00    +0.000 A 
ATOM     23  C   UNL     1       1.927   3.341  17.401  0.00  0.00    +0.000 A 
ATOM     24  C   UNL     1       3.167   2.796  17.111  0.00  0.00    +0.000 A 
ATOM     25  C   UNL     1       4.329   3.554  17.306  0.00  0.00    +0.000 A 
ATOM     26  C   UNL     1       4.303   4.874  17.796  0.00  0.00    +0.000 A 
BRANCH  26  27
ATOM     27  N   UNL     1       5.480   5.565  18.040  0.00  0.00    +0.000 N 
ATOM     28  C   UNL     1       5.784   6.856  17.403  0.00  0.00    +0.000 C 
ATOM     29  C   UNL     1       7.317   6.965  17.259  0.00  0.00    +0.000 C 
ATOM     30  O   UNL     1       8.003   6.807  18.518  0.00  0.00    +0.000 OA
ATOM     31  C   UNL     1       7.640   5.560  19.144  0.00  0.00    +0.000 C 
ATOM     32  C   UNL     1       6.120   5.490  19.368  0.00  0.00    +0.000 C 
ENDBRANCH  26  27
ENDBRANCH  20  21
ENDBRANCH  19  20
ENDBRANCH   1  19
TORSDOF 7
ENDMDL
