MODEL 1
REMARK VINA RESULT:      -8.0      0.000      0.000
REMARK  Name = 
REMARK  10 active torsions:
REMARK  status: ('A' for Active; 'I' for Inactive)
REMARK    1  A    between atoms: C_1  and  C_2
REMARK    2  A    between atoms: C_5  and  S_6
REMARK    3  A    between atoms: S_6  and  C_7
REMARK    4  A    between atoms: C_9  and  C_10
REMARK    5  A    between atoms: N_12  and  C_13
REMARK    6  A    between atoms: C_13  and  C_14
REMARK    7  A    between atoms: C_14  and  C_15
REMARK    8  A    between atoms: C_15  and  N_16
REMARK    9  A    between atoms: N_16  and  C_17
REMARK   10  A    between atoms: N_16  and  C_18
REMARK                            x       y       z     vdW  Elec       q    Type
REMARK                         _______ _______ _______ _____ _____    ______ ____
ROOT
ATOM      1  C   UNL     1       5.265   5.175  18.617  0.00  0.00    +0.000 A 
ATOM      2  C   UNL     1       4.423   6.254  18.471  0.00  0.00    +0.000 A 
ATOM      3  C   UNL     1       3.130   6.181  19.007  0.00  0.00    +0.000 A 
ATOM      4  C   UNL     1       2.708   5.012  19.695  0.00  0.00    +0.000 A 
ATOM      5  C   UNL     1       1.463   4.821  20.360  0.00  0.00    +0.000 A 
ATOM      6  C   UNL     1       1.136   3.610  20.972  0.00  0.00    +0.000 A 
ATOM      7  C   UNL     1       2.055   2.574  20.967  0.00  0.00    +0.000 A 
ATOM      8  C   UNL     1       3.296   2.761  20.364  0.00  0.00    +0.000 A 
ATOM      9  C   UNL     1       3.644   3.954  19.740  0.00  0.00    +0.000 A 
ATOM     10  N   UNL     1       4.878   4.032  19.217  0.00  0.00    +0.000 NA
ENDROOT
BRANCH   3  11
ATOM     11  C   UNL     1       2.318   7.416  18.814  0.00  0.00    +0.000 C 
ATOM     12  O   UNL     1       2.048   7.779  17.672  0.00  0.00    +0.000 OA
ATOM     13  N   UNL     1       1.843   8.063  19.935  0.00  0.00    +0.000 N 
ATOM     14  H   UNL     1       1.895   7.600  20.833  0.00  0.00    +0.000 HD
BRANCH  13  15
ATOM     15  C   UNL     1       0.985   9.233  19.823  0.00  0.00    +0.000 C 
BRANCH  15  16
ATOM     16  C   UNL     1       1.190  10.162  21.016  0.00  0.00    +0.000 C 
BRANCH  16  17
ATOM     17  C   UNL     1      -0.079  10.921  21.420  0.00  0.00    +0.000 C 
BRANCH  17  18
ATOM     18  N   UNL     1      -0.369  10.932  22.863  0.00  0.00    +0.000 NA
ATOM     19  C   UNL     1      -1.697  11.478  23.159  0.00  0.00    +0.000 C 
ATOM     20  C   UNL     1      -0.262   9.576  23.409  0.00  0.00    +0.000 C 
ENDBRANCH  17  18
ENDBRANCH  16  17
ENDBRANCH  15  16
ENDBRANCH  13  15
ENDBRANCH   3  11
BRANCH   1  21
ATOM     21  S   UNL     1       6.917   5.234  17.950  0.00  0.00    +0.000 S 
BRANCH  21  26
ATOM     22  C   UNL     1       5.968   3.505  12.170  0.00  0.00    +0.000 C 
ATOM     23  C   UNL     1       6.200   3.916  13.597  0.00  0.00    +0.000 A 
ATOM     24  C   UNL     1       5.367   3.453  14.620  0.00  0.00    +0.000 A 
ATOM     25  C   UNL     1       5.589   3.840  15.947  0.00  0.00    +0.000 A 
ATOM     26  C   UNL     1       6.650   4.690  16.270  0.00  0.00    +0.000 A 
ATOM     27  C   UNL     1       7.474   5.168  15.245  0.00  0.00    +0.000 A 
ATOM     28  C   UNL     1       7.252   4.781  13.917  0.00  0.00    +0.000 A 
ENDBRANCH  21  26
ENDBRANCH   1  21
TORSDOF 7
ENDMDL
MODEL 2
REMARK VINA RESULT:      -7.8      1.536      2.051
REMARK  Name = 
REMARK  10 active torsions:
REMARK  status: ('A' for Active; 'I' for Inactive)
REMARK    1  A    between atoms: C_1  and  C_2
REMARK    2  A    between atoms: C_5  and  S_6
REMARK    3  A    between atoms: S_6  and  C_7
REMARK    4  A    between atoms: C_9  and  C_10
REMARK    5  A    between atoms: N_12  and  C_13
REMARK    6  A    between atoms: C_13  and  C_14
REMARK    7  A    between atoms: C_14  and  C_15
REMARK    8  A    between atoms: C_15  and  N_16
REMARK    9  A    between atoms: N_16  and  C_17
REMARK   10  A    between atoms: N_16  and  C_18
REMARK                            x       y       z     vdW  Elec       q    Type
REMARK                         _______ _______ _______ _____ _____    ______ ____
ROOT
ATOM      1  C   UNL     1       5.218   5.084  18.664  0.00  0.00    +0.000 A 
ATOM      2  C   UNL     1       4.452   6.228  18.672  0.00  0.00    +0.000 A 
ATOM      3  C   UNL     1       3.158   6.173  19.209  0.00  0.00    +0.000 A 
ATOM      4  C   UNL     1       2.657   4.953  19.739  0.00  0.00    +0.000 A 
ATOM      5  C   UNL     1       1.403   4.761  20.386  0.00  0.00    +0.000 A 
ATOM      6  C   UNL     1       0.994   3.504  20.834  0.00  0.00    +0.000 A 
ATOM      7  C   UNL     1       1.838   2.417  20.680  0.00  0.00    +0.000 A 
ATOM      8  C   UNL     1       3.088   2.598  20.093  0.00  0.00    +0.000 A 
ATOM      9  C   UNL     1       3.518   3.837  19.631  0.00  0.00    +0.000 A 
ATOM     10  N   UNL     1       4.753   3.899  19.109  0.00  0.00    +0.000 NA
ENDROOT
BRANCH   3  11
ATOM     11  C   UNL     1       2.434   7.475  19.192  0.00  0.00    +0.000 C 
ATOM     12  O   UNL     1       1.917   7.882  20.228  0.00  0.00    +0.000 OA
ATOM     13  N   UNL     1       2.437   8.205  18.022  0.00  0.00    +0.000 N 
ATOM     14  H   UNL     1       3.067   7.941  17.275  0.00  0.00    +0.000 HD
BRANCH  13  15
ATOM     15  C   UNL     1       1.812   9.518  17.951  0.00  0.00    +0.000 C 
BRANCH  15  16
ATOM     16  C   UNL     1       0.300   9.382  17.802  0.00  0.00    +0.000 C 
BRANCH  16  17
ATOM     17  C   UNL     1      -0.487  10.302  18.743  0.00  0.00    +0.000 C 
BRANCH  17  18
ATOM     18  N   UNL     1       0.114  11.625  18.973  0.00  0.00    +0.000 NA
ATOM     19  C   UNL     1      -0.701  12.710  18.418  0.00  0.00    +0.000 C 
ATOM     20  C   UNL     1       0.314  11.846  20.408  0.00  0.00    +0.000 C 
ENDBRANCH  17  18
ENDBRANCH  16  17
ENDBRANCH  15  16
ENDBRANCH  13  15
ENDBRANCH   3  11
BRANCH   1  21
ATOM     21  S   UNL     1       6.869   5.119  17.992  0.00  0.00    +0.000 S 
BRANCH  21  26
ATOM     22  C   UNL     1       5.895   3.514  12.181  0.00  0.00    +0.000 C 
ATOM     23  C   UNL     1       6.136   3.923  13.606  0.00  0.00    +0.000 A 
ATOM     24  C   UNL     1       7.215   4.748  13.942  0.00  0.00    +0.000 A 
ATOM     25  C   UNL     1       7.435   5.125  15.272  0.00  0.00    +0.000 A 
ATOM     26  C   UNL     1       6.575   4.689  16.284  0.00  0.00    +0.000 A 
ATOM     27  C   UNL     1       5.505   3.850  15.952  0.00  0.00    +0.000 A 
ATOM     28  C   UNL     1       5.285   3.473  14.621  0.00  0.00    +0.000 A 
ENDBRANCH  21  26
ENDBRANCH   1  21
TORSDOF 7
ENDMDL
MODEL 3
REMARK VINA RESULT:      -7.7      0.786      1.103
REMARK  Name = 
REMARK  10 active torsions:
REMARK  status: ('A' for Active; 'I' for Inactive)
REMARK    1  A    between atoms: C_1  and  C_2
REMARK    2  A    between atoms: C_5  and  S_6
REMARK    3  A    between atoms: S_6  and  C_7
REMARK    4  A    between atoms: C_9  and  C_10
REMARK    5  A    between atoms: N_12  and  C_13
REMARK    6  A    between atoms: C_13  and  C_14
REMARK    7  A    between atoms: C_14  and  C_15
REMARK    8  A    between atoms: C_15  and  N_16
REMARK    9  A    between atoms: N_16  and  C_17
REMARK   10  A    between atoms: N_16  and  C_18
REMARK                            x       y       z     vdW  Elec       q    Type
REMARK                         _______ _______ _______ _____ _____    ______ ____
ROOT
ATOM      1  C   UNL     1       5.245   5.089  18.754  0.00  0.00    +0.000 A 
ATOM      2  C   UNL     1       4.421   6.192  18.744  0.00  0.00    +0.000 A 
ATOM      3  C   UNL     1       3.141   6.085  19.304  0.00  0.00    +0.000 A 
ATOM      4  C   UNL     1       2.712   4.857  19.877  0.00  0.00    +0.000 A 
ATOM      5  C   UNL     1       1.481   4.619  20.551  0.00  0.00    +0.000 A 
ATOM      6  C   UNL     1       1.144   3.356  21.040  0.00  0.00    +0.000 A 
ATOM      7  C   UNL     1       2.042   2.310  20.902  0.00  0.00    +0.000 A 
ATOM      8  C   UNL     1       3.271   2.538  20.288  0.00  0.00    +0.000 A 
ATOM      9  C   UNL     1       3.628   3.784  19.784  0.00  0.00    +0.000 A 
ATOM     10  N   UNL     1       4.850   3.895  19.240  0.00  0.00    +0.000 NA
ENDROOT
BRANCH   3  11
ATOM     11  C   UNL     1       2.349   7.348  19.264  0.00  0.00    +0.000 C 
ATOM     12  O   UNL     1       2.103   7.862  18.177  0.00  0.00    +0.000 OA
ATOM     13  N   UNL     1       1.865   7.849  20.454  0.00  0.00    +0.000 N 
ATOM     14  H   UNL     1       1.896   7.270  21.284  0.00  0.00    +0.000 HD
BRANCH  13  15
ATOM     15  C   UNL     1       1.025   9.037  20.486  0.00  0.00    +0.000 C 
BRANCH  15  16
ATOM     16  C   UNL     1       0.636   9.378  21.921  0.00  0.00    +0.000 C 
BRANCH  16  17
ATOM     17  C   UNL     1      -0.148  10.690  22.043  0.00  0.00    +0.000 C 
BRANCH  17  18
ATOM     18  N   UNL     1      -0.161  11.526  20.832  0.00  0.00    +0.000 NA
ATOM     19  C   UNL     1      -1.522  11.857  20.399  0.00  0.00    +0.000 C 
ATOM     20  C   UNL     1       0.595  12.760  21.064  0.00  0.00    +0.000 C 
ENDBRANCH  17  18
ENDBRANCH  16  17
ENDBRANCH  15  16
ENDBRANCH  13  15
ENDBRANCH   3  11
BRANCH   1  21
ATOM     21  S   UNL     1       6.881   5.190  18.052  0.00  0.00    +0.000 S 
BRANCH  21  26
ATOM     22  C   UNL     1       5.846   3.546  12.262  0.00  0.00    +0.000 C 
ATOM     23  C   UNL     1       6.099   3.936  13.691  0.00  0.00    +0.000 A 
ATOM     24  C   UNL     1       5.244   3.508  14.712  0.00  0.00    +0.000 A 
ATOM     25  C   UNL     1       5.485   3.875  16.041  0.00  0.00    +0.000 A 
ATOM     26  C   UNL     1       6.587   4.670  16.369  0.00  0.00    +0.000 A 
ATOM     27  C   UNL     1       7.433   5.113  15.347  0.00  0.00    +0.000 A 
ATOM     28  C   UNL     1       7.192   4.745  14.016  0.00  0.00    +0.000 A 
ENDBRANCH  21  26
ENDBRANCH   1  21
TORSDOF 7
ENDMDL
MODEL 4
REMARK VINA RESULT:      -7.7      1.370      1.763
REMARK  Name = 
REMARK  10 active torsions:
REMARK  status: ('A' for Active; 'I' for Inactive)
REMARK    1  A    between atoms: C_1  and  C_2
REMARK    2  A    between atoms: C_5  and  S_6
REMARK    3  A    between atoms: S_6  and  C_7
REMARK    4  A    between atoms: C_9  and  C_10
REMARK    5  A    between atoms: N_12  and  C_13
REMARK    6  A    between atoms: C_13  and  C_14
REMARK    7  A    between atoms: C_14  and  C_15
REMARK    8  A    between atoms: C_15  and  N_16
REMARK    9  A    between atoms: N_16  and  C_17
REMARK   10  A    between atoms: N_16  and  C_18
REMARK                            x       y       z     vdW  Elec       q    Type
REMARK                         _______ _______ _______ _____ _____    ______ ____
ROOT
ATOM      1  C   UNL     1       5.195   5.266  18.633  0.00  0.00    +0.000 A 
ATOM      2  C   UNL     1       4.330   6.338  18.643  0.00  0.00    +0.000 A 
ATOM      3  C   UNL     1       3.068   6.184  19.233  0.00  0.00    +0.000 A 
ATOM      4  C   UNL     1       2.699   4.941  19.815  0.00  0.00    +0.000 A 
ATOM      5  C   UNL     1       1.493   4.657  20.517  0.00  0.00    +0.000 A 
ATOM      6  C   UNL     1       1.216   3.382  21.014  0.00  0.00    +0.000 A 
ATOM      7  C   UNL     1       2.148   2.370  20.854  0.00  0.00    +0.000 A 
ATOM      8  C   UNL     1       3.353   2.644  20.212  0.00  0.00    +0.000 A 
ATOM      9  C   UNL     1       3.652   3.903  19.700  0.00  0.00    +0.000 A 
ATOM     10  N   UNL     1       4.856   4.059  19.127  0.00  0.00    +0.000 NA
ENDROOT
BRANCH   3  11
ATOM     11  C   UNL     1       2.230   7.416  19.212  0.00  0.00    +0.000 C 
ATOM     12  O   UNL     1       1.849   7.895  20.277  0.00  0.00    +0.000 OA
ATOM     13  N   UNL     1       1.975   8.008  17.994  0.00  0.00    +0.000 N 
ATOM     14  H   UNL     1       2.500   7.711  17.180  0.00  0.00    +0.000 HD
BRANCH  13  15
ATOM     15  C   UNL     1       1.225   9.252  17.901  0.00  0.00    +0.000 C 
BRANCH  15  16
ATOM     16  C   UNL     1       2.167  10.449  17.962  0.00  0.00    +0.000 C 
BRANCH  16  17
ATOM     17  C   UNL     1       1.582  11.646  18.722  0.00  0.00    +0.000 C 
BRANCH  17  18
ATOM     18  N   UNL     1       0.380  11.354  19.518  0.00  0.00    +0.000 NA
ATOM     19  C   UNL     1       0.634  11.434  20.960  0.00  0.00    +0.000 C 
ATOM     20  C   UNL     1      -0.700  12.276  19.158  0.00  0.00    +0.000 C 
ENDBRANCH  17  18
ENDBRANCH  16  17
ENDBRANCH  15  16
ENDBRANCH  13  15
ENDBRANCH   3  11
BRANCH   1  21
ATOM     21  S   UNL     1       6.809   5.428  17.894  0.00  0.00    +0.000 S 
BRANCH  21  26
ATOM     22  C   UNL     1       5.783   3.469  12.201  0.00  0.00    +0.000 C 
ATOM     23  C   UNL     1       6.033   3.937  13.607  0.00  0.00    +0.000 A 
ATOM     24  C   UNL     1       5.125   3.645  14.630  0.00  0.00    +0.000 A 
ATOM     25  C   UNL     1       5.363   4.084  15.938  0.00  0.00    +0.000 A 
ATOM     26  C   UNL     1       6.514   4.816  16.242  0.00  0.00    +0.000 A 
ATOM     27  C   UNL     1       7.414   5.124  15.215  0.00  0.00    +0.000 A 
ATOM     28  C   UNL     1       7.176   4.684  13.907  0.00  0.00    +0.000 A 
ENDBRANCH  21  26
ENDBRANCH   1  21
TORSDOF 7
ENDMDL
MODEL 5
REMARK VINA RESULT:      -7.7      2.054      2.575
REMARK  Name = 
REMARK  10 active torsions:
REMARK  status: ('A' for Active; 'I' for Inactive)
REMARK    1  A    between atoms: C_1  and  C_2
REMARK    2  A    between atoms: C_5  and  S_6
REMARK    3  A    between atoms: S_6  and  C_7
REMARK    4  A    between atoms: C_9  and  C_10
REMARK    5  A    between atoms: N_12  and  C_13
REMARK    6  A    between atoms: C_13  and  C_14
REMARK    7  A    between atoms: C_14  and  C_15
REMARK    8  A    between atoms: C_15  and  N_16
REMARK    9  A    between atoms: N_16  and  C_17
REMARK   10  A    between atoms: N_16  and  C_18
REMARK                            x       y       z     vdW  Elec       q    Type
REMARK                         _______ _______ _______ _____ _____    ______ ____
ROOT
ATOM      1  C   UNL     1       5.064   5.245  18.775  0.00  0.00    +0.000 A 
ATOM      2  C   UNL     1       4.272   6.361  18.927  0.00  0.00    +0.000 A 
ATOM      3  C   UNL     1       2.981   6.209  19.452  0.00  0.00    +0.000 A 
ATOM      4  C   UNL     1       2.510   4.921  19.825  0.00  0.00    +0.000 A 
ATOM      5  C   UNL     1       1.263   4.619  20.442  0.00  0.00    +0.000 A 
ATOM      6  C   UNL     1       0.884   3.307  20.729  0.00  0.00    +0.000 A 
ATOM      7  C   UNL     1       1.753   2.268  20.440  0.00  0.00    +0.000 A 
ATOM      8  C   UNL     1       2.997   2.550  19.881  0.00  0.00    +0.000 A 
ATOM      9  C   UNL     1       3.396   3.848  19.578  0.00  0.00    +0.000 A 
ATOM     10  N   UNL     1       4.628   4.004  19.068  0.00  0.00    +0.000 NA
ENDROOT
BRANCH   3  11
ATOM     11  C   UNL     1       2.227   7.486  19.599  0.00  0.00    +0.000 C 
ATOM     12  O   UNL     1       1.799   7.801  20.706  0.00  0.00    +0.000 OA
ATOM     13  N   UNL     1       2.102   8.297  18.491  0.00  0.00    +0.000 N 
ATOM     14  H   UNL     1       2.665   8.107  17.672  0.00  0.00    +0.000 HD
BRANCH  13  15
ATOM     15  C   UNL     1       1.441   9.591  18.575  0.00  0.00    +0.000 C 
BRANCH  15  16
ATOM     16  C   UNL     1       0.116   9.564  17.821  0.00  0.00    +0.000 C 
BRANCH  16  17
ATOM     17  C   UNL     1      -0.933  10.521  18.400  0.00  0.00    +0.000 C 
BRANCH  17  18
ATOM     18  N   UNL     1      -1.964  10.969  17.450  0.00  0.00    +0.000 NA
ATOM     19  C   UNL     1      -2.408   9.890  16.562  0.00  0.00    +0.000 C 
ATOM     20  C   UNL     1      -3.115  11.514  18.175  0.00  0.00    +0.000 C 
ENDBRANCH  17  18
ENDBRANCH  16  17
ENDBRANCH  15  16
ENDBRANCH  13  15
ENDBRANCH   3  11
BRANCH   1  21
ATOM     21  S   UNL     1       6.712   5.403  18.114  0.00  0.00    +0.000 S 
BRANCH  21  26
ATOM     22  C   UNL     1       5.925   3.481  12.371  0.00  0.00    +0.000 C 
ATOM     23  C   UNL     1       6.122   3.968  13.779  0.00  0.00    +0.000 A 
ATOM     24  C   UNL     1       7.232   4.747  14.119  0.00  0.00    +0.000 A 
ATOM     25  C   UNL     1       7.410   5.197  15.432  0.00  0.00    +0.000 A 
ATOM     26  C   UNL     1       6.476   4.880  16.422  0.00  0.00    +0.000 A 
ATOM     27  C   UNL     1       5.373   4.087  16.088  0.00  0.00    +0.000 A 
ATOM     28  C   UNL     1       5.195   3.636  14.773  0.00  0.00    +0.000 A 
ENDBRANCH  21  26
ENDBRANCH   1  21
TORSDOF 7
ENDMDL
MODEL 6
REMARK VINA RESULT:      -7.6      2.729      8.644
REMARK  Name = 
REMARK  10 active torsions:
REMARK  status: ('A' for Active; 'I' for Inactive)
REMARK    1  A    between atoms: C_1  and  C_2
REMARK    2  A    between atoms: C_5  and  S_6
REMARK    3  A    between atoms: S_6  and  C_7
REMARK    4  A    between atoms: C_9  and  C_10
REMARK    5  A    between atoms: N_12  and  C_13
REMARK    6  A    between atoms: C_13  and  C_14
REMARK    7  A    between atoms: C_14  and  C_15
REMARK    8  A    between atoms: C_15  and  N_16
REMARK    9  A    between atoms: N_16  and  C_17
REMARK   10  A    between atoms: N_16  and  C_18
REMARK                            x       y       z     vdW  Elec       q    Type
REMARK                         _______ _______ _______ _____ _____    ______ ____
ROOT
ATOM      1  C   UNL     1       2.812   7.019  17.705  0.00  0.00    +0.000 A 
ATOM      2  C   UNL     1       4.056   6.646  17.247  0.00  0.00    +0.000 A 
ATOM      3  C   UNL     1       4.395   5.286  17.239  0.00  0.00    +0.000 A 
ATOM      4  C   UNL     1       3.461   4.316  17.692  0.00  0.00    +0.000 A 
ATOM      5  C   UNL     1       3.628   2.901  17.670  0.00  0.00    +0.000 A 
ATOM      6  C   UNL     1       2.656   2.039  18.181  0.00  0.00    +0.000 A 
ATOM      7  C   UNL     1       1.481   2.564  18.694  0.00  0.00    +0.000 A 
ATOM      8  C   UNL     1       1.282   3.942  18.679  0.00  0.00    +0.000 A 
ATOM      9  C   UNL     1       2.236   4.824  18.183  0.00  0.00    +0.000 A 
ATOM     10  N   UNL     1       1.924   6.130  18.191  0.00  0.00    +0.000 NA
ENDROOT
BRANCH   3  11
ATOM     11  C   UNL     1       5.752   4.998  16.696  0.00  0.00    +0.000 C 
ATOM     12  O   UNL     1       6.601   4.516  17.441  0.00  0.00    +0.000 OA
ATOM     13  N   UNL     1       5.976   5.221  15.354  0.00  0.00    +0.000 N 
ATOM     14  H   UNL     1       5.188   5.394  14.743  0.00  0.00    +0.000 HD
BRANCH  13  15
ATOM     15  C   UNL     1       7.254   4.895  14.738  0.00  0.00    +0.000 C 
BRANCH  15  16
ATOM     16  C   UNL     1       7.045   4.372  13.321  0.00  0.00    +0.000 C 
BRANCH  16  17
ATOM     17  C   UNL     1       5.695   3.673  13.124  0.00  0.00    +0.000 C 
BRANCH  17  18
ATOM     18  N   UNL     1       5.428   3.202  11.755  0.00  0.00    +0.000 NA
ATOM     19  C   UNL     1       5.837   1.809  11.556  0.00  0.00    +0.000 C 
ATOM     20  C   UNL     1       4.003   3.345  11.442  0.00  0.00    +0.000 C 
ENDBRANCH  17  18
ENDBRANCH  16  17
ENDBRANCH  15  16
ENDBRANCH  13  15
ENDBRANCH   3  11
BRANCH   1  21
ATOM     21  S   UNL     1       2.347   8.740  17.725  0.00  0.00    +0.000 S 
BRANCH  21  26
ATOM     22  C   UNL     1      -0.437   9.314  23.130  0.00  0.00    +0.000 C 
ATOM     23  C   UNL     1       0.245   9.158  21.801  0.00  0.00    +0.000 A 
ATOM     24  C   UNL     1       1.179   8.138  21.590  0.00  0.00    +0.000 A 
ATOM     25  C   UNL     1       1.811   7.999  20.349  0.00  0.00    +0.000 A 
ATOM     26  C   UNL     1       1.513   8.872  19.299  0.00  0.00    +0.000 A 
ATOM     27  C   UNL     1       0.592   9.903  19.514  0.00  0.00    +0.000 A 
ATOM     28  C   UNL     1      -0.041  10.043  20.756  0.00  0.00    +0.000 A 
ENDBRANCH  21  26
ENDBRANCH   1  21
TORSDOF 7
ENDMDL
MODEL 7
REMARK VINA RESULT:      -7.6      2.397      3.480
REMARK  Name = 
REMARK  10 active torsions:
REMARK  status: ('A' for Active; 'I' for Inactive)
REMARK    1  A    between atoms: C_1  and  C_2
REMARK    2  A    between atoms: C_5  and  S_6
REMARK    3  A    between atoms: S_6  and  C_7
REMARK    4  A    between atoms: C_9  and  C_10
REMARK    5  A    between atoms: N_12  and  C_13
REMARK    6  A    between atoms: C_13  and  C_14
REMARK    7  A    between atoms: C_14  and  C_15
REMARK    8  A    between atoms: C_15  and  N_16
REMARK    9  A    between atoms: N_16  and  C_17
REMARK   10  A    between atoms: N_16  and  C_18
REMARK                            x       y       z     vdW  Elec       q    Type
REMARK                         _______ _______ _______ _____ _____    ______ ____
ROOT
ATOM      1  C   UNL     1       4.859   4.663  17.573  0.00  0.00    +0.000 A 
ATOM      2  C   UNL     1       4.258   5.856  17.909  0.00  0.00    +0.000 A 
ATOM      3  C   UNL     1       3.037   5.829  18.597  0.00  0.00    +0.000 A 
ATOM      4  C   UNL     1       2.441   4.587  18.945  0.00  0.00    +0.000 A 
ATOM      5  C   UNL     1       1.254   4.400  19.708  0.00  0.00    +0.000 A 
ATOM      6  C   UNL     1       0.734   3.128  19.957  0.00  0.00    +0.000 A 
ATOM      7  C   UNL     1       1.404   2.013  19.481  0.00  0.00    +0.000 A 
ATOM      8  C   UNL     1       2.592   2.177  18.774  0.00  0.00    +0.000 A 
ATOM      9  C   UNL     1       3.128   3.432  18.505  0.00  0.00    +0.000 A 
ATOM     10  N   UNL     1       4.294   3.469  17.841  0.00  0.00    +0.000 NA
ENDROOT
BRANCH   3  11
ATOM     11  C   UNL     1       2.496   7.177  18.932  0.00  0.00    +0.000 C 
ATOM     12  O   UNL     1       2.281   7.456  20.108  0.00  0.00    +0.000 OA
ATOM     13  N   UNL     1       2.325   8.082  17.906  0.00  0.00    +0.000 N 
ATOM     14  H   UNL     1       2.732   7.886  17.000  0.00  0.00    +0.000 HD
BRANCH  13  15
ATOM     15  C   UNL     1       1.868   9.439  18.166  0.00  0.00    +0.000 C 
BRANCH  15  16
ATOM     16  C   UNL     1       0.352   9.529  18.024  0.00  0.00    +0.000 C 
BRANCH  16  17
ATOM     17  C   UNL     1      -0.278  10.615  18.905  0.00  0.00    +0.000 C 
BRANCH  17  18
ATOM     18  N   UNL     1       0.520  11.012  20.075  0.00  0.00    +0.000 NA
ATOM     19  C   UNL     1       0.750  12.459  20.127  0.00  0.00    +0.000 C 
ATOM     20  C   UNL     1      -0.141  10.575  21.308  0.00  0.00    +0.000 C 
ENDBRANCH  17  18
ENDBRANCH  16  17
ENDBRANCH  15  16
ENDBRANCH  13  15
ENDBRANCH   3  11
BRANCH   1  21
ATOM     21  S   UNL     1       6.413   4.660  16.701  0.00  0.00    +0.000 S 
BRANCH  21  26
ATOM     22  C   UNL     1       9.051   9.609  19.119  0.00  0.00    +0.000 C 
ATOM     23  C   UNL     1       8.408   8.394  18.511  0.00  0.00    +0.000 A 
ATOM     24  C   UNL     1       7.732   8.478  17.289  0.00  0.00    +0.000 A 
ATOM     25  C   UNL     1       7.135   7.343  16.728  0.00  0.00    +0.000 A 
ATOM     26  C   UNL     1       7.212   6.108  17.377  0.00  0.00    +0.000 A 
ATOM     27  C   UNL     1       7.873   6.026  18.607  0.00  0.00    +0.000 A 
ATOM     28  C   UNL     1       8.471   7.162  19.169  0.00  0.00    +0.000 A 
ENDBRANCH  21  26
ENDBRANCH   1  21
TORSDOF 7
ENDMDL
MODEL 8
REMARK VINA RESULT:      -7.6      2.313      8.568
REMARK  Name = 
REMARK  10 active torsions:
REMARK  status: ('A' for Active; 'I' for Inactive)
REMARK    1  A    between atoms: C_1  and  C_2
REMARK    2  A    between atoms: C_5  and  S_6
REMARK    3  A    between atoms: S_6  and  C_7
REMARK    4  A    between atoms: C_9  and  C_10
REMARK    5  A    between atoms: N_12  and  C_13
REMARK    6  A    between atoms: C_13  and  C_14
REMARK    7  A    between atoms: C_14  and  C_15
REMARK    8  A    between atoms: C_15  and  N_16
REMARK    9  A    between atoms: N_16  and  C_17
REMARK   10  A    between atoms: N_16  and  C_18
REMARK                            x       y       z     vdW  Elec       q    Type
REMARK                         _______ _______ _______ _____ _____    ______ ____
ROOT
ATOM      1  C   UNL     1       2.611   6.970  18.568  0.00  0.00    +0.000 A 
ATOM      2  C   UNL     1       3.829   6.496  18.134  0.00  0.00    +0.000 A 
ATOM      3  C   UNL     1       4.243   5.221  18.540  0.00  0.00    +0.000 A 
ATOM      4  C   UNL     1       3.410   4.434  19.381  0.00  0.00    +0.000 A 
ATOM      5  C   UNL     1       3.656   3.098  19.808  0.00  0.00    +0.000 A 
ATOM      6  C   UNL     1       2.784   2.432  20.671  0.00  0.00    +0.000 A 
ATOM      7  C   UNL     1       1.631   3.068  21.100  0.00  0.00    +0.000 A 
ATOM      8  C   UNL     1       1.352   4.357  20.652  0.00  0.00    +0.000 A 
ATOM      9  C   UNL     1       2.207   5.046  19.799  0.00  0.00    +0.000 A 
ATOM     10  N   UNL     1       1.822   6.272  19.408  0.00  0.00    +0.000 NA
ENDROOT
BRANCH   3  11
ATOM     11  C   UNL     1       5.562   4.802  17.986  0.00  0.00    +0.000 C 
ATOM     12  O   UNL     1       6.437   4.419  18.758  0.00  0.00    +0.000 OA
ATOM     13  N   UNL     1       5.719   4.795  16.617  0.00  0.00    +0.000 N 
ATOM     14  H   UNL     1       4.903   4.892  16.025  0.00  0.00    +0.000 HD
BRANCH  13  15
ATOM     15  C   UNL     1       6.953   4.330  16.001  0.00  0.00    +0.000 C 
BRANCH  15  16
ATOM     16  C   UNL     1       6.931   4.590  14.498  0.00  0.00    +0.000 C 
BRANCH  16  17
ATOM     17  C   UNL     1       5.679   4.039  13.805  0.00  0.00    +0.000 C 
BRANCH  17  18
ATOM     18  N   UNL     1       5.779   3.912  12.342  0.00  0.00    +0.000 NA
ATOM     19  C   UNL     1       7.017   3.245  11.925  0.00  0.00    +0.000 C 
ATOM     20  C   UNL     1       4.625   3.176  11.820  0.00  0.00    +0.000 C 
ENDBRANCH  17  18
ENDBRANCH  16  17
ENDBRANCH  15  16
ENDBRANCH  13  15
ENDBRANCH   3  11
BRANCH   1  21
ATOM     21  S   UNL     1       2.052   8.587  18.068  0.00  0.00    +0.000 S 
BRANCH  21  26
ATOM     22  C   UNL     1      -0.931  10.568  23.015  0.00  0.00    +0.000 C 
ATOM     23  C   UNL     1      -0.199  10.066  21.803  0.00  0.00    +0.000 A 
ATOM     24  C   UNL     1       0.825   9.121  21.924  0.00  0.00    +0.000 A 
ATOM     25  C   UNL     1       1.503   8.659  20.791  0.00  0.00    +0.000 A 
ATOM     26  C   UNL     1       1.163   9.129  19.520  0.00  0.00    +0.000 A 
ATOM     27  C   UNL     1       0.150  10.086  19.398  0.00  0.00    +0.000 A 
ATOM     28  C   UNL     1      -0.529  10.550  20.532  0.00  0.00    +0.000 A 
ENDBRANCH  21  26
ENDBRANCH   1  21
TORSDOF 7
ENDMDL
MODEL 9
REMARK VINA RESULT:      -7.5      2.247      8.603
REMARK  Name = 
REMARK  10 active torsions:
REMARK  status: ('A' for Active; 'I' for Inactive)
REMARK    1  A    between atoms: C_1  and  C_2
REMARK    2  A    between atoms: C_5  and  S_6
REMARK    3  A    between atoms: S_6  and  C_7
REMARK    4  A    between atoms: C_9  and  C_10
REMARK    5  A    between atoms: N_12  and  C_13
REMARK    6  A    between atoms: C_13  and  C_14
REMARK    7  A    between atoms: C_14  and  C_15
REMARK    8  A    between atoms: C_15  and  N_16
REMARK    9  A    between atoms: N_16  and  C_17
REMARK   10  A    between atoms: N_16  and  C_18
REMARK                            x       y       z     vdW  Elec       q    Type
REMARK                         _______ _______ _______ _____ _____    ______ ____
ROOT
ATOM      1  C   UNL     1       2.491   7.361  18.535  0.00  0.00    +0.000 A 
ATOM      2  C   UNL     1       3.739   6.975  18.099  0.00  0.00    +0.000 A 
ATOM      3  C   UNL     1       4.239   5.728  18.496  0.00  0.00    +0.000 A 
ATOM      4  C   UNL     1       3.461   4.879  19.330  0.00  0.00    +0.000 A 
ATOM      5  C   UNL     1       3.796   3.560  19.748  0.00  0.00    +0.000 A 
ATOM      6  C   UNL     1       2.972   2.829  20.604  0.00  0.00    +0.000 A 
ATOM      7  C   UNL     1       1.777   3.382  21.036  0.00  0.00    +0.000 A 
ATOM      8  C   UNL     1       1.412   4.652  20.597  0.00  0.00    +0.000 A 
ATOM      9  C   UNL     1       2.218   5.405  19.750  0.00  0.00    +0.000 A 
ATOM     10  N   UNL     1       1.751   6.604  19.369  0.00  0.00    +0.000 NA
ENDROOT
BRANCH   3  11
ATOM     11  C   UNL     1       5.584   5.404  17.941  0.00  0.00    +0.000 C 
ATOM     12  O   UNL     1       6.583   5.690  18.596  0.00  0.00    +0.000 OA
ATOM     13  N   UNL     1       5.646   4.728  16.741  0.00  0.00    +0.000 N 
ATOM     14  H   UNL     1       4.804   4.313  16.363  0.00  0.00    +0.000 HD
BRANCH  13  15
ATOM     15  C   UNL     1       6.921   4.315  16.173  0.00  0.00    +0.000 C 
BRANCH  15  16
ATOM     16  C   UNL     1       6.955   4.599  14.675  0.00  0.00    +0.000 C 
BRANCH  16  17
ATOM     17  C   UNL     1       5.693   4.131  13.939  0.00  0.00    +0.000 C 
BRANCH  17  18
ATOM     18  N   UNL     1       5.935   3.373  12.702  0.00  0.00    +0.000 NA
ATOM     19  C   UNL     1       4.757   3.343  11.829  0.00  0.00    +0.000 C 
ATOM     20  C   UNL     1       7.071   3.945  11.974  0.00  0.00    +0.000 C 
ENDBRANCH  17  18
ENDBRANCH  16  17
ENDBRANCH  15  16
ENDBRANCH  13  15
ENDBRANCH   3  11
BRANCH   1  21
ATOM     21  S   UNL     1       1.823   8.940  18.046  0.00  0.00    +0.000 S 
BRANCH  21  26
ATOM     22  C   UNL     1      -1.051  10.595  23.174  0.00  0.00    +0.000 C 
ATOM     23  C   UNL     1      -0.343  10.202  21.908  0.00  0.00    +0.000 A 
ATOM     24  C   UNL     1      -0.756  10.707  20.671  0.00  0.00    +0.000 A 
ATOM     25  C   UNL     1      -0.093  10.336  19.495  0.00  0.00    +0.000 A 
ATOM     26  C   UNL     1       0.997   9.463  19.541  0.00  0.00    +0.000 A 
ATOM     27  C   UNL     1       1.400   8.944  20.776  0.00  0.00    +0.000 A 
ATOM     28  C   UNL     1       0.736   9.314  21.953  0.00  0.00    +0.000 A 
ENDBRANCH  21  26
ENDBRANCH   1  21
TORSDOF 7
ENDMDL
