MODEL 1
REMARK VINA RESULT:      -7.9      0.000      0.000
REMARK  Name = 
REMARK  10 active torsions:
REMARK  status: ('A' for Active; 'I' for Inactive)
REMARK    1  A    between atoms: C_1  and  C_2
REMARK    2  A    between atoms: C_2  and  O_3
REMARK    3  A    between atoms: O_3  and  C_4
REMARK    4  A    between atoms: C_4  and  C_6
REMARK    5  A    between atoms: C_6  and  C_7
REMARK    6  A    between atoms: C_7  and  C_8
REMARK    7  A    between atoms: N_9  and  N_10
REMARK    8  A    between atoms: C_11  and  C_13
REMARK    9  A    between atoms: C_15  and  C_16
REMARK   10  A    between atoms: C_15  and  C_22
REMARK                            x       y       z     vdW  Elec       q    Type
REMARK                         _______ _______ _______ _____ _____    ______ ____
ROOT
ATOM      1  C   UNL     1       3.713   4.834  17.916  0.00  0.00    +0.000 C 
ATOM      2  C   UNL     1       2.343   4.751  17.316  0.00  0.00    +0.000 C 
ATOM      3  C   UNL     1       2.504   5.327  18.732  0.00  0.00    +0.000 C 
ENDROOT
BRANCH   3   4
ATOM      4  C   UNL     1       1.959   4.444  19.863  0.00  0.00    +0.000 A 
ATOM      5  C   UNL     1       2.568   4.392  21.129  0.00  0.00    +0.000 A 
ATOM      6  C   UNL     1       2.234   3.396  22.053  0.00  0.00    +0.000 A 
ATOM      7  C   UNL     1       1.255   2.455  21.744  0.00  0.00    +0.000 A 
ATOM      8  C   UNL     1       0.568   2.545  20.539  0.00  0.00    +0.000 A 
ATOM      9  C   UNL     1       0.905   3.541  19.621  0.00  0.00    +0.000 A 
ENDBRANCH   3   4
BRANCH   3  10
ATOM     10  C   UNL     1       2.301   6.848  18.852  0.00  0.00    +0.000 A 
ATOM     11  C   UNL     1       1.832   7.422  20.050  0.00  0.00    +0.000 A 
ATOM     12  C   UNL     1       1.535   8.782  20.147  0.00  0.00    +0.000 A 
ATOM     13  C   UNL     1       1.706   9.616  19.045  0.00  0.00    +0.000 A 
ATOM     14  C   UNL     1       2.196   9.083  17.855  0.00  0.00    +0.000 A 
ATOM     15  C   UNL     1       2.496   7.718  17.766  0.00  0.00    +0.000 A 
ENDBRANCH   3  10
BRANCH   1  17
ATOM     16  N   UNL     1       5.670   3.742  18.897  0.00  0.00    +0.000 N 
ATOM     17  C   UNL     1       4.454   3.586  18.269  0.00  0.00    +0.000 C 
ATOM     18  O   UNL     1       4.015   2.469  18.007  0.00  0.00    +0.000 OA
ATOM     19  H   UNL     1       6.172   2.886  19.104  0.00  0.00    +0.000 HD
BRANCH  16  22
ATOM     20  C   UNL     1       7.201   5.345  18.326  0.00  0.00    +0.000 C 
ATOM     21  C   UNL     1       7.828   4.495  17.245  0.00  0.00    +0.000 C 
ATOM     22  N   UNL     1       6.225   4.965  19.092  0.00  0.00    +0.000 NA
BRANCH  20  23
ATOM     23  C   UNL     1       7.775   6.713  18.596  0.00  0.00    +0.000 C 
BRANCH  23  24
ATOM     24  C   UNL     1       7.459   7.735  17.547  0.00  0.00    +0.000 C 
ATOM     25  O   UNL     1       6.499   7.711  16.792  0.00  0.00    +0.000 OA
BRANCH  24  26
ATOM     26  O   UNL     1       8.477   8.645  17.504  0.00  0.00    +0.000 OA
BRANCH  26  28
ATOM     27  C   UNL     1       9.288  10.098  19.216  0.00  0.00    +0.000 C 
ATOM     28  C   UNL     1       8.220   9.895  18.156  0.00  0.00    +0.000 C 
ENDBRANCH  26  28
ENDBRANCH  24  26
ENDBRANCH  23  24
ENDBRANCH  20  23
ENDBRANCH  16  22
ENDBRANCH   1  17
TORSDOF 8
ENDMDL
MODEL 2
REMARK VINA RESULT:      -7.8      2.629      3.805
REMARK  Name = 
REMARK  10 active torsions:
REMARK  status: ('A' for Active; 'I' for Inactive)
REMARK    1  A    between atoms: C_1  and  C_2
REMARK    2  A    between atoms: C_2  and  O_3
REMARK    3  A    between atoms: O_3  and  C_4
REMARK    4  A    between atoms: C_4  and  C_6
REMARK    5  A    between atoms: C_6  and  C_7
REMARK    6  A    between atoms: C_7  and  C_8
REMARK    7  A    between atoms: N_9  and  N_10
REMARK    8  A    between atoms: C_11  and  C_13
REMARK    9  A    between atoms: C_15  and  C_16
REMARK   10  A    between atoms: C_15  and  C_22
REMARK                            x       y       z     vdW  Elec       q    Type
REMARK                         _______ _______ _______ _____ _____    ______ ____
ROOT
ATOM      1  C   UNL     1       4.369   5.828  18.548  0.00  0.00    +0.000 C 
ATOM      2  C   UNL     1       3.545   5.816  17.298  0.00  0.00    +0.000 C 
ATOM      3  C   UNL     1       2.840   5.978  18.655  0.00  0.00    +0.000 C 
ENDROOT
BRANCH   3   4
ATOM      4  C   UNL     1       2.003   4.773  19.105  0.00  0.00    +0.000 A 
ATOM      5  C   UNL     1       1.781   4.485  20.463  0.00  0.00    +0.000 A 
ATOM      6  C   UNL     1       1.255   3.252  20.865  0.00  0.00    +0.000 A 
ATOM      7  C   UNL     1       0.904   2.298  19.914  0.00  0.00    +0.000 A 
ATOM      8  C   UNL     1       1.019   2.597  18.562  0.00  0.00    +0.000 A 
ATOM      9  C   UNL     1       1.544   3.829  18.166  0.00  0.00    +0.000 A 
ENDBRANCH   3   4
BRANCH   3  10
ATOM     10  C   UNL     1       2.283   7.384  18.944  0.00  0.00    +0.000 A 
ATOM     11  C   UNL     1       1.802   7.720  20.225  0.00  0.00    +0.000 A 
ATOM     12  C   UNL     1       1.191   8.949  20.481  0.00  0.00    +0.000 A 
ATOM     13  C   UNL     1       1.049   9.886  19.461  0.00  0.00    +0.000 A 
ATOM     14  C   UNL     1       1.541   9.594  18.192  0.00  0.00    +0.000 A 
ATOM     15  C   UNL     1       2.157   8.360  17.942  0.00  0.00    +0.000 A 
ENDBRANCH   3  10
BRANCH   1  17
ATOM     16  N   UNL     1       5.528   3.745  18.002  0.00  0.00    +0.000 N 
ATOM     17  C   UNL     1       5.078   4.591  18.991  0.00  0.00    +0.000 C 
ATOM     18  O   UNL     1       5.248   4.324  20.178  0.00  0.00    +0.000 OA
ATOM     19  H   UNL     1       5.982   2.896  18.320  0.00  0.00    +0.000 HD
BRANCH  16  22
ATOM     20  C   UNL     1       6.200   4.370  15.904  0.00  0.00    +0.000 C 
ATOM     21  C   UNL     1       7.609   4.687  16.348  0.00  0.00    +0.000 C 
ATOM     22  N   UNL     1       5.251   3.963  16.691  0.00  0.00    +0.000 NA
BRANCH  20  23
ATOM     23  C   UNL     1       5.826   4.596  14.461  0.00  0.00    +0.000 C 
BRANCH  23  24
ATOM     24  C   UNL     1       6.994   4.743  13.535  0.00  0.00    +0.000 C 
ATOM     25  O   UNL     1       7.873   5.586  13.623  0.00  0.00    +0.000 OA
BRANCH  24  26
ATOM     26  O   UNL     1       6.859   3.844  12.516  0.00  0.00    +0.000 OA
BRANCH  26  28
ATOM     27  C   UNL     1       5.693   2.048  11.460  0.00  0.00    +0.000 C 
ATOM     28  C   UNL     1       5.562   3.247  12.381  0.00  0.00    +0.000 C 
ENDBRANCH  26  28
ENDBRANCH  24  26
ENDBRANCH  23  24
ENDBRANCH  20  23
ENDBRANCH  16  22
ENDBRANCH   1  17
TORSDOF 8
ENDMDL
MODEL 3
REMARK VINA RESULT:      -7.3      2.680      3.934
REMARK  Name = 
REMARK  10 active torsions:
REMARK  status: ('A' for Active; 'I' for Inactive)
REMARK    1  A    between atoms: C_1  and  C_2
REMARK    2  A    between atoms: C_2  and  O_3
REMARK    3  A    between atoms: O_3  and  C_4
REMARK    4  A    between atoms: C_4  and  C_6
REMARK    5  A    between atoms: C_6  and  C_7
REMARK    6  A    between atoms: C_7  and  C_8
REMARK    7  A    between atoms: N_9  and  N_10
REMARK    8  A    between atoms: C_11  and  C_13
REMARK    9  A    between atoms: C_15  and  C_16
REMARK   10  A    between atoms: C_15  and  C_22
REMARK                            x       y       z     vdW  Elec       q    Type
REMARK                         _______ _______ _______ _____ _____    ______ ____
ROOT
ATOM      1  C   UNL     1       4.633   5.953  18.442  0.00  0.00    +0.000 C 
ATOM      2  C   UNL     1       3.802   5.833  17.202  0.00  0.00    +0.000 C 
ATOM      3  C   UNL     1       3.099   5.974  18.561  0.00  0.00    +0.000 C 
ENDROOT
BRANCH   3   4
ATOM      4  C   UNL     1       2.372   4.716  19.056  0.00  0.00    +0.000 A 
ATOM      5  C   UNL     1       1.789   3.794  18.168  0.00  0.00    +0.000 A 
ATOM      6  C   UNL     1       0.906   2.809  18.624  0.00  0.00    +0.000 A 
ATOM      7  C   UNL     1       0.619   2.701  19.982  0.00  0.00    +0.000 A 
ATOM      8  C   UNL     1       1.260   3.536  20.890  0.00  0.00    +0.000 A 
ATOM      9  C   UNL     1       2.140   4.517  20.431  0.00  0.00    +0.000 A 
ENDBRANCH   3   4
BRANCH   3  10
ATOM     10  C   UNL     1       2.425   7.335  18.816  0.00  0.00    +0.000 A 
ATOM     11  C   UNL     1       1.947   7.675  20.097  0.00  0.00    +0.000 A 
ATOM     12  C   UNL     1       1.235   8.853  20.327  0.00  0.00    +0.000 A 
ATOM     13  C   UNL     1       0.984   9.736  19.280  0.00  0.00    +0.000 A 
ATOM     14  C   UNL     1       1.470   9.441  18.008  0.00  0.00    +0.000 A 
ATOM     15  C   UNL     1       2.187   8.258  17.784  0.00  0.00    +0.000 A 
ENDBRANCH   3  10
BRANCH   1  17
ATOM     16  N   UNL     1       5.878   3.906  17.951  0.00  0.00    +0.000 N 
ATOM     17  C   UNL     1       5.450   4.795  18.912  0.00  0.00    +0.000 C 
ATOM     18  O   UNL     1       5.725   4.627  20.097  0.00  0.00    +0.000 OA
ATOM     19  H   UNL     1       6.407   3.110  18.290  0.00  0.00    +0.000 HD
BRANCH  16  22
ATOM     20  C   UNL     1       6.354   4.397  15.766  0.00  0.00    +0.000 C 
ATOM     21  C   UNL     1       7.775   4.810  16.070  0.00  0.00    +0.000 C 
ATOM     22  N   UNL     1       5.490   4.009  16.654  0.00  0.00    +0.000 NA
BRANCH  20  23
ATOM     23  C   UNL     1       5.858   4.493  14.345  0.00  0.00    +0.000 C 
BRANCH  23  24
ATOM     24  C   UNL     1       6.934   4.730  13.330  0.00  0.00    +0.000 C 
ATOM     25  O   UNL     1       7.884   5.486  13.458  0.00  0.00    +0.000 OA
BRANCH  24  26
ATOM     26  O   UNL     1       6.623   4.036  12.195  0.00  0.00    +0.000 OA
BRANCH  26  28
ATOM     27  C   UNL     1       4.521   3.233  11.396  0.00  0.00    +0.000 C 
ATOM     28  C   UNL     1       5.670   2.978  12.355  0.00  0.00    +0.000 C 
ENDBRANCH  26  28
ENDBRANCH  24  26
ENDBRANCH  23  24
ENDBRANCH  20  23
ENDBRANCH  16  22
ENDBRANCH   1  17
TORSDOF 8
ENDMDL
MODEL 4
REMARK VINA RESULT:      -7.3      2.944      4.399
REMARK  Name = 
REMARK  10 active torsions:
REMARK  status: ('A' for Active; 'I' for Inactive)
REMARK    1  A    between atoms: C_1  and  C_2
REMARK    2  A    between atoms: C_2  and  O_3
REMARK    3  A    between atoms: O_3  and  C_4
REMARK    4  A    between atoms: C_4  and  C_6
REMARK    5  A    between atoms: C_6  and  C_7
REMARK    6  A    between atoms: C_7  and  C_8
REMARK    7  A    between atoms: N_9  and  N_10
REMARK    8  A    between atoms: C_11  and  C_13
REMARK    9  A    between atoms: C_15  and  C_16
REMARK   10  A    between atoms: C_15  and  C_22
REMARK                            x       y       z     vdW  Elec       q    Type
REMARK                         _______ _______ _______ _____ _____    ______ ____
ROOT
ATOM      1  C   UNL     1       4.574   5.984  18.235  0.00  0.00    +0.000 C 
ATOM      2  C   UNL     1       3.560   5.656  17.184  0.00  0.00    +0.000 C 
ATOM      3  C   UNL     1       3.086   5.925  18.621  0.00  0.00    +0.000 C 
ENDROOT
BRANCH   3   4
ATOM      4  C   UNL     1       2.559   4.697  19.377  0.00  0.00    +0.000 A 
ATOM      5  C   UNL     1       1.807   3.695  18.740  0.00  0.00    +0.000 A 
ATOM      6  C   UNL     1       1.108   2.734  19.479  0.00  0.00    +0.000 A 
ATOM      7  C   UNL     1       1.182   2.732  20.870  0.00  0.00    +0.000 A 
ATOM      8  C   UNL     1       1.999   3.650  21.519  0.00  0.00    +0.000 A 
ATOM      9  C   UNL     1       2.693   4.607  20.777  0.00  0.00    +0.000 A 
ENDBRANCH   3   4
BRANCH   3  10
ATOM     10  C   UNL     1       2.354   7.263  18.833  0.00  0.00    +0.000 A 
ATOM     11  C   UNL     1       2.223   8.190  17.781  0.00  0.00    +0.000 A 
ATOM     12  C   UNL     1       1.664   9.453  17.978  0.00  0.00    +0.000 A 
ATOM     13  C   UNL     1       1.207   9.827  19.240  0.00  0.00    +0.000 A 
ATOM     14  C   UNL     1       1.296   8.920  20.294  0.00  0.00    +0.000 A 
ATOM     15  C   UNL     1       1.856   7.653  20.088  0.00  0.00    +0.000 A 
ENDBRANCH   3  10
BRANCH   1  17
ATOM     16  N   UNL     1       5.965   4.034  17.739  0.00  0.00    +0.000 N 
ATOM     17  C   UNL     1       5.552   4.947  18.683  0.00  0.00    +0.000 C 
ATOM     18  O   UNL     1       5.967   4.896  19.838  0.00  0.00    +0.000 OA
ATOM     19  H   UNL     1       6.607   3.320  18.066  0.00  0.00    +0.000 HD
BRANCH  16  22
ATOM     20  C   UNL     1       6.163   4.378  15.484  0.00  0.00    +0.000 C 
ATOM     21  C   UNL     1       7.570   4.916  15.594  0.00  0.00    +0.000 C 
ATOM     22  N   UNL     1       5.434   4.002  16.490  0.00  0.00    +0.000 NA
BRANCH  20  23
ATOM     23  C   UNL     1       5.512   4.322  14.125  0.00  0.00    +0.000 C 
BRANCH  23  24
ATOM     24  C   UNL     1       6.440   3.950  13.009  0.00  0.00    +0.000 C 
ATOM     25  O   UNL     1       7.311   4.664  12.537  0.00  0.00    +0.000 OA
BRANCH  24  26
ATOM     26  O   UNL     1       6.086   2.718  12.538  0.00  0.00    +0.000 OA
BRANCH  26  28
ATOM     27  C   UNL     1       6.253   0.905  10.995  0.00  0.00    +0.000 C 
ATOM     28  C   UNL     1       6.840   2.240  11.417  0.00  0.00    +0.000 C 
ENDBRANCH  26  28
ENDBRANCH  24  26
ENDBRANCH  23  24
ENDBRANCH  20  23
ENDBRANCH  16  22
ENDBRANCH   1  17
TORSDOF 8
ENDMDL
MODEL 5
REMARK VINA RESULT:      -7.3      2.680      3.945
REMARK  Name = 
REMARK  10 active torsions:
REMARK  status: ('A' for Active; 'I' for Inactive)
REMARK    1  A    between atoms: C_1  and  C_2
REMARK    2  A    between atoms: C_2  and  O_3
REMARK    3  A    between atoms: O_3  and  C_4
REMARK    4  A    between atoms: C_4  and  C_6
REMARK    5  A    between atoms: C_6  and  C_7
REMARK    6  A    between atoms: C_7  and  C_8
REMARK    7  A    between atoms: N_9  and  N_10
REMARK    8  A    between atoms: C_11  and  C_13
REMARK    9  A    between atoms: C_15  and  C_16
REMARK   10  A    between atoms: C_15  and  C_22
REMARK                            x       y       z     vdW  Elec       q    Type
REMARK                         _______ _______ _______ _____ _____    ______ ____
ROOT
ATOM      1  C   UNL     1       4.277   5.970  18.540  0.00  0.00    +0.000 C 
ATOM      2  C   UNL     1       3.259   5.717  17.471  0.00  0.00    +0.000 C 
ATOM      3  C   UNL     1       2.781   6.013  18.902  0.00  0.00    +0.000 C 
ENDROOT
BRANCH   3   4
ATOM      4  C   UNL     1       2.158   4.821  19.643  0.00  0.00    +0.000 A 
ATOM      5  C   UNL     1       2.300   4.650  21.031  0.00  0.00    +0.000 A 
ATOM      6  C   UNL     1       1.969   3.439  21.649  0.00  0.00    +0.000 A 
ATOM      7  C   UNL     1       1.452   2.388  20.895  0.00  0.00    +0.000 A 
ATOM      8  C   UNL     1       1.209   2.567  19.539  0.00  0.00    +0.000 A 
ATOM      9  C   UNL     1       1.541   3.777  18.927  0.00  0.00    +0.000 A 
ENDBRANCH   3   4
BRANCH   3  10
ATOM     10  C   UNL     1       2.141   7.397  19.110  0.00  0.00    +0.000 A 
ATOM     11  C   UNL     1       2.101   8.340  18.063  0.00  0.00    +0.000 A 
ATOM     12  C   UNL     1       1.627   9.638  18.260  0.00  0.00    +0.000 A 
ATOM     13  C   UNL     1       1.169  10.033  19.514  0.00  0.00    +0.000 A 
ATOM     14  C   UNL     1       1.168   9.114  20.562  0.00  0.00    +0.000 A 
ATOM     15  C   UNL     1       1.642   7.812  20.356  0.00  0.00    +0.000 A 
ENDBRANCH   3  10
BRANCH   1  17
ATOM     16  N   UNL     1       5.709   4.056  18.022  0.00  0.00    +0.000 N 
ATOM     17  C   UNL     1       5.173   4.865  18.998  0.00  0.00    +0.000 C 
ATOM     18  O   UNL     1       5.418   4.672  20.186  0.00  0.00    +0.000 OA
ATOM     19  H   UNL     1       6.292   3.294  18.351  0.00  0.00    +0.000 HD
BRANCH  16  22
ATOM     20  C   UNL     1       6.109   4.891  15.928  0.00  0.00    +0.000 C 
ATOM     21  C   UNL     1       7.334   5.660  16.366  0.00  0.00    +0.000 C 
ATOM     22  N   UNL     1       5.362   4.180  16.715  0.00  0.00    +0.000 NA
BRANCH  20  23
ATOM     23  C   UNL     1       5.666   4.990  14.490  0.00  0.00    +0.000 C 
BRANCH  23  24
ATOM     24  C   UNL     1       6.630   4.405  13.503  0.00  0.00    +0.000 C 
ATOM     25  O   UNL     1       7.612   4.968  13.045  0.00  0.00    +0.000 OA
BRANCH  24  26
ATOM     26  O   UNL     1       6.172   3.175  13.123  0.00  0.00    +0.000 OA
BRANCH  26  28
ATOM     27  C   UNL     1       4.401   3.188  11.523  0.00  0.00    +0.000 C 
ATOM     28  C   UNL     1       5.896   3.019  11.726  0.00  0.00    +0.000 C 
ENDBRANCH  26  28
ENDBRANCH  24  26
ENDBRANCH  23  24
ENDBRANCH  20  23
ENDBRANCH  16  22
ENDBRANCH   1  17
TORSDOF 8
ENDMDL
MODEL 6
REMARK VINA RESULT:      -7.3      1.162      1.238
REMARK  Name = 
REMARK  10 active torsions:
REMARK  status: ('A' for Active; 'I' for Inactive)
REMARK    1  A    between atoms: C_1  and  C_2
REMARK    2  A    between atoms: C_2  and  O_3
REMARK    3  A    between atoms: O_3  and  C_4
REMARK    4  A    between atoms: C_4  and  C_6
REMARK    5  A    between atoms: C_6  and  C_7
REMARK    6  A    between atoms: C_7  and  C_8
REMARK    7  A    between atoms: N_9  and  N_10
REMARK    8  A    between atoms: C_11  and  C_13
REMARK    9  A    between atoms: C_15  and  C_16
REMARK   10  A    between atoms: C_15  and  C_22
REMARK                            x       y       z     vdW  Elec       q    Type
REMARK                         _______ _______ _______ _____ _____    ______ ____
ROOT
ATOM      1  C   UNL     1       2.971   4.623  17.386  0.00  0.00    +0.000 C 
ATOM      2  C   UNL     1       1.474   4.587  17.362  0.00  0.00    +0.000 C 
ATOM      3  C   UNL     1       2.188   5.125  18.612  0.00  0.00    +0.000 C 
ENDROOT
BRANCH   3   4
ATOM      4  C   UNL     1       2.094   4.230  19.856  0.00  0.00    +0.000 A 
ATOM      5  C   UNL     1       3.236   3.808  20.559  0.00  0.00    +0.000 A 
ATOM      6  C   UNL     1       3.164   2.786  21.512  0.00  0.00    +0.000 A 
ATOM      7  C   UNL     1       1.940   2.193  21.809  0.00  0.00    +0.000 A 
ATOM      8  C   UNL     1       0.781   2.661  21.201  0.00  0.00    +0.000 A 
ATOM      9  C   UNL     1       0.858   3.680  20.251  0.00  0.00    +0.000 A 
ENDBRANCH   3   4
BRANCH   3  10
ATOM     10  C   UNL     1       2.094   6.648  18.820  0.00  0.00    +0.000 A 
ATOM     11  C   UNL     1       1.756   7.186  20.078  0.00  0.00    +0.000 A 
ATOM     12  C   UNL     1       1.556   8.555  20.263  0.00  0.00    +0.000 A 
ATOM     13  C   UNL     1       1.697   9.433  19.192  0.00  0.00    +0.000 A 
ATOM     14  C   UNL     1       2.060   8.934  17.942  0.00  0.00    +0.000 A 
ATOM     15  C   UNL     1       2.262   7.560  17.765  0.00  0.00    +0.000 A 
ENDBRANCH   3  10
BRANCH   1  17
ATOM     16  N   UNL     1       5.083   3.443  17.752  0.00  0.00    +0.000 N 
ATOM     17  C   UNL     1       3.752   3.350  17.410  0.00  0.00    +0.000 C 
ATOM     18  O   UNL     1       3.244   2.267  17.130  0.00  0.00    +0.000 OA
ATOM     19  H   UNL     1       5.605   2.574  17.736  0.00  0.00    +0.000 HD
BRANCH  16  22
ATOM     20  C   UNL     1       6.560   5.060  17.087  0.00  0.00    +0.000 C 
ATOM     21  C   UNL     1       7.011   4.282  15.873  0.00  0.00    +0.000 C 
ATOM     22  N   UNL     1       5.689   4.641  17.953  0.00  0.00    +0.000 NA
BRANCH  20  23
ATOM     23  C   UNL     1       7.199   6.396  17.370  0.00  0.00    +0.000 C 
BRANCH  23  24
ATOM     24  C   UNL     1       7.931   6.468  18.676  0.00  0.00    +0.000 C 
ATOM     25  O   UNL     1       7.897   5.627  19.561  0.00  0.00    +0.000 OA
BRANCH  24  26
ATOM     26  O   UNL     1       8.561   7.677  18.757  0.00  0.00    +0.000 OA
BRANCH  26  28
ATOM     27  C   UNL     1       8.728  10.007  18.264  0.00  0.00    +0.000 C 
ATOM     28  C   UNL     1       8.067   8.695  17.877  0.00  0.00    +0.000 C 
ENDBRANCH  26  28
ENDBRANCH  24  26
ENDBRANCH  23  24
ENDBRANCH  20  23
ENDBRANCH  16  22
ENDBRANCH   1  17
TORSDOF 8
ENDMDL
MODEL 7
REMARK VINA RESULT:      -7.2      2.708      4.069
REMARK  Name = 
REMARK  10 active torsions:
REMARK  status: ('A' for Active; 'I' for Inactive)
REMARK    1  A    between atoms: C_1  and  C_2
REMARK    2  A    between atoms: C_2  and  O_3
REMARK    3  A    between atoms: O_3  and  C_4
REMARK    4  A    between atoms: C_4  and  C_6
REMARK    5  A    between atoms: C_6  and  C_7
REMARK    6  A    between atoms: C_7  and  C_8
REMARK    7  A    between atoms: N_9  and  N_10
REMARK    8  A    between atoms: C_11  and  C_13
REMARK    9  A    between atoms: C_15  and  C_16
REMARK   10  A    between atoms: C_15  and  C_22
REMARK                            x       y       z     vdW  Elec       q    Type
REMARK                         _______ _______ _______ _____ _____    ______ ____
ROOT
ATOM      1  C   UNL     1       4.640   6.442  18.449  0.00  0.00    +0.000 C 
ATOM      2  C   UNL     1       3.850   6.326  17.182  0.00  0.00    +0.000 C 
ATOM      3  C   UNL     1       3.109   6.299  18.528  0.00  0.00    +0.000 C 
ENDROOT
BRANCH   3   4
ATOM      4  C   UNL     1       2.505   4.942  18.916  0.00  0.00    +0.000 A 
ATOM      5  C   UNL     1       2.219   3.953  17.959  0.00  0.00    +0.000 A 
ATOM      6  C   UNL     1       1.428   2.843  18.279  0.00  0.00    +0.000 A 
ATOM      7  C   UNL     1       0.942   2.682  19.573  0.00  0.00    +0.000 A 
ATOM      8  C   UNL     1       1.294   3.593  20.561  0.00  0.00    +0.000 A 
ATOM      9  C   UNL     1       2.083   4.698  20.237  0.00  0.00    +0.000 A 
ENDBRANCH   3   4
BRANCH   3  10
ATOM     10  C   UNL     1       2.295   7.564  18.857  0.00  0.00    +0.000 A 
ATOM     11  C   UNL     1       2.049   8.541  17.873  0.00  0.00    +0.000 A 
ATOM     12  C   UNL     1       1.411   9.745  18.175  0.00  0.00    +0.000 A 
ATOM     13  C   UNL     1       0.989  10.006  19.476  0.00  0.00    +0.000 A 
ATOM     14  C   UNL     1       1.191   9.046  20.465  0.00  0.00    +0.000 A 
ATOM     15  C   UNL     1       1.829   7.839  20.154  0.00  0.00    +0.000 A 
ENDBRANCH   3  10
BRANCH   1  17
ATOM     16  N   UNL     1       6.394   4.831  17.889  0.00  0.00    +0.000 N 
ATOM     17  C   UNL     1       5.561   5.341  18.861  0.00  0.00    +0.000 C 
ATOM     18  O   UNL     1       5.578   4.897  20.006  0.00  0.00    +0.000 OA
ATOM     19  H   UNL     1       6.993   4.066  18.178  0.00  0.00    +0.000 HD
BRANCH  16  22
ATOM     20  C   UNL     1       5.857   4.396  15.707  0.00  0.00    +0.000 C 
ATOM     21  C   UNL     1       5.456   2.968  15.992  0.00  0.00    +0.000 C 
ATOM     22  N   UNL     1       6.311   5.228  16.594  0.00  0.00    +0.000 NA
BRANCH  20  23
ATOM     23  C   UNL     1       5.794   4.898  14.287  0.00  0.00    +0.000 C 
BRANCH  23  24
ATOM     24  C   UNL     1       7.105   4.875  13.563  0.00  0.00    +0.000 C 
ATOM     25  O   UNL     1       8.120   5.462  13.904  0.00  0.00    +0.000 OA
BRANCH  24  26
ATOM     26  O   UNL     1       6.951   4.170  12.403  0.00  0.00    +0.000 OA
BRANCH  26  28
ATOM     27  C   UNL     1       6.117   2.074  11.622  0.00  0.00    +0.000 C 
ATOM     28  C   UNL     1       5.759   3.379  12.310  0.00  0.00    +0.000 C 
ENDBRANCH  26  28
ENDBRANCH  24  26
ENDBRANCH  23  24
ENDBRANCH  20  23
ENDBRANCH  16  22
ENDBRANCH   1  17
TORSDOF 8
ENDMDL
MODEL 8
REMARK VINA RESULT:      -7.2      2.057      3.364
REMARK  Name = 
REMARK  10 active torsions:
REMARK  status: ('A' for Active; 'I' for Inactive)
REMARK    1  A    between atoms: C_1  and  C_2
REMARK    2  A    between atoms: C_2  and  O_3
REMARK    3  A    between atoms: O_3  and  C_4
REMARK    4  A    between atoms: C_4  and  C_6
REMARK    5  A    between atoms: C_6  and  C_7
REMARK    6  A    between atoms: C_7  and  C_8
REMARK    7  A    between atoms: N_9  and  N_10
REMARK    8  A    between atoms: C_11  and  C_13
REMARK    9  A    between atoms: C_15  and  C_16
REMARK   10  A    between atoms: C_15  and  C_22
REMARK                            x       y       z     vdW  Elec       q    Type
REMARK                         _______ _______ _______ _____ _____    ______ ____
ROOT
ATOM      1  C   UNL     1       4.253   5.694  18.895  0.00  0.00    +0.000 C 
ATOM      2  C   UNL     1       3.633   5.640  17.533  0.00  0.00    +0.000 C 
ATOM      3  C   UNL     1       2.728   5.847  18.758  0.00  0.00    +0.000 C 
ENDROOT
BRANCH   3   4
ATOM      4  C   UNL     1       1.824   4.658  19.112  0.00  0.00    +0.000 A 
ATOM      5  C   UNL     1       1.423   4.393  20.433  0.00  0.00    +0.000 A 
ATOM      6  C   UNL     1       0.835   3.172  20.781  0.00  0.00    +0.000 A 
ATOM      7  C   UNL     1       0.600   2.207  19.805  0.00  0.00    +0.000 A 
ATOM      8  C   UNL     1       0.894   2.484  18.475  0.00  0.00    +0.000 A 
ATOM      9  C   UNL     1       1.481   3.703  18.134  0.00  0.00    +0.000 A 
ENDBRANCH   3   4
BRANCH   3  10
ATOM     10  C   UNL     1       2.140   7.261  18.912  0.00  0.00    +0.000 A 
ATOM     11  C   UNL     1       2.090   8.146  17.816  0.00  0.00    +0.000 A 
ATOM     12  C   UNL     1       1.665   9.468  17.957  0.00  0.00    +0.000 A 
ATOM     13  C   UNL     1       1.268   9.946  19.203  0.00  0.00    +0.000 A 
ATOM     14  C   UNL     1       1.279   9.087  20.300  0.00  0.00    +0.000 A 
ATOM     15  C   UNL     1       1.703   7.761  20.150  0.00  0.00    +0.000 A 
ENDBRANCH   3  10
BRANCH   1  17
ATOM     16  N   UNL     1       5.749   3.770  18.677  0.00  0.00    +0.000 N 
ATOM     17  C   UNL     1       4.879   4.471  19.482  0.00  0.00    +0.000 C 
ATOM     18  O   UNL     1       4.628   4.092  20.624  0.00  0.00    +0.000 OA
ATOM     19  H   UNL     1       6.143   2.928  19.081  0.00  0.00    +0.000 HD
BRANCH  16  22
ATOM     20  C   UNL     1       6.975   4.841  17.067  0.00  0.00    +0.000 C 
ATOM     21  C   UNL     1       7.953   5.419  18.063  0.00  0.00    +0.000 C 
ATOM     22  N   UNL     1       5.952   4.105  17.377  0.00  0.00    +0.000 NA
BRANCH  20  23
ATOM     23  C   UNL     1       7.141   5.179  15.607  0.00  0.00    +0.000 C 
BRANCH  23  24
ATOM     24  C   UNL     1       5.879   5.610  14.924  0.00  0.00    +0.000 C 
ATOM     25  O   UNL     1       5.314   6.682  15.079  0.00  0.00    +0.000 OA
BRANCH  24  26
ATOM     26  O   UNL     1       5.408   4.568  14.178  0.00  0.00    +0.000 OA
BRANCH  26  28
ATOM     27  C   UNL     1       5.698   3.221  12.229  0.00  0.00    +0.000 C 
ATOM     28  C   UNL     1       6.393   3.850  13.423  0.00  0.00    +0.000 C 
ENDBRANCH  26  28
ENDBRANCH  24  26
ENDBRANCH  23  24
ENDBRANCH  20  23
ENDBRANCH  16  22
ENDBRANCH   1  17
TORSDOF 8
ENDMDL
MODEL 9
REMARK VINA RESULT:      -7.1      0.933      1.449
REMARK  Name = 
REMARK  10 active torsions:
REMARK  status: ('A' for Active; 'I' for Inactive)
REMARK    1  A    between atoms: C_1  and  C_2
REMARK    2  A    between atoms: C_2  and  O_3
REMARK    3  A    between atoms: O_3  and  C_4
REMARK    4  A    between atoms: C_4  and  C_6
REMARK    5  A    between atoms: C_6  and  C_7
REMARK    6  A    between atoms: C_7  and  C_8
REMARK    7  A    between atoms: N_9  and  N_10
REMARK    8  A    between atoms: C_11  and  C_13
REMARK    9  A    between atoms: C_15  and  C_16
REMARK   10  A    between atoms: C_15  and  C_22
REMARK                            x       y       z     vdW  Elec       q    Type
REMARK                         _______ _______ _______ _____ _____    ______ ____
ROOT
ATOM      1  C   UNL     1       4.287   5.620  18.740  0.00  0.00    +0.000 C 
ATOM      2  C   UNL     1       3.621   5.600  17.399  0.00  0.00    +0.000 C 
ATOM      3  C   UNL     1       2.762   5.808  18.656  0.00  0.00    +0.000 C 
ENDROOT
BRANCH   3   4
ATOM      4  C   UNL     1       1.845   4.632  19.024  0.00  0.00    +0.000 A 
ATOM      5  C   UNL     1       1.495   4.347  20.355  0.00  0.00    +0.000 A 
ATOM      6  C   UNL     1       0.892   3.133  20.702  0.00  0.00    +0.000 A 
ATOM      7  C   UNL     1       0.591   2.196  19.717  0.00  0.00    +0.000 A 
ATOM      8  C   UNL     1       0.835   2.496  18.382  0.00  0.00    +0.000 A 
ATOM      9  C   UNL     1       1.437   3.709  18.041  0.00  0.00    +0.000 A 
ENDBRANCH   3   4
BRANCH   3  10
ATOM     10  C   UNL     1       2.209   7.232  18.849  0.00  0.00    +0.000 A 
ATOM     11  C   UNL     1       2.188   8.149  17.780  0.00  0.00    +0.000 A 
ATOM     12  C   UNL     1       1.796   9.477  17.958  0.00  0.00    +0.000 A 
ATOM     13  C   UNL     1       1.405   9.928  19.216  0.00  0.00    +0.000 A 
ATOM     14  C   UNL     1       1.388   9.037  20.286  0.00  0.00    +0.000 A 
ATOM     15  C   UNL     1       1.778   7.705  20.100  0.00  0.00    +0.000 A 
ENDBRANCH   3  10
BRANCH   1  17
ATOM     16  N   UNL     1       6.183   4.487  19.790  0.00  0.00    +0.000 N 
ATOM     17  C   UNL     1       4.905   4.377  19.289  0.00  0.00    +0.000 C 
ATOM     18  O   UNL     1       4.316   3.299  19.290  0.00  0.00    +0.000 OA
ATOM     19  H   UNL     1       6.599   3.628  20.133  0.00  0.00    +0.000 HD
BRANCH  16  22
ATOM     20  C   UNL     1       7.604   5.857  18.630  0.00  0.00    +0.000 C 
ATOM     21  C   UNL     1       7.757   4.885  17.484  0.00  0.00    +0.000 C 
ATOM     22  N   UNL     1       6.894   5.640  19.695  0.00  0.00    +0.000 NA
BRANCH  20  23
ATOM     23  C   UNL     1       8.372   7.155  18.589  0.00  0.00    +0.000 C 
BRANCH  23  24
ATOM     24  C   UNL     1       7.779   8.195  17.688  0.00  0.00    +0.000 C 
ATOM     25  O   UNL     1       6.704   8.115  17.115  0.00  0.00    +0.000 OA
BRANCH  24  26
ATOM     26  O   UNL     1       8.686   9.204  17.532  0.00  0.00    +0.000 OA
BRANCH  26  28
ATOM     27  C   UNL     1       9.403  10.432  19.449  0.00  0.00    +0.000 C 
ATOM     28  C   UNL     1       8.428  10.395  18.286  0.00  0.00    +0.000 C 
ENDBRANCH  26  28
ENDBRANCH  24  26
ENDBRANCH  23  24
ENDBRANCH  20  23
ENDBRANCH  16  22
ENDBRANCH   1  17
TORSDOF 8
ENDMDL
