MODEL 1
REMARK VINA RESULT:      -5.5      0.000      0.000
REMARK  Name = 
REMARK  4 active torsions:
REMARK  status: ('A' for Active; 'I' for Inactive)
REMARK    1  A    between atoms: C_2  and  O_3
REMARK    2  A    between atoms: C_2  and  C_4
REMARK    3  A    between atoms: CA_8  and  C_9
REMARK    4  A    between atoms: C_9  and  OXT_11
REMARK                            x       y       z     vdW  Elec       q    Type
REMARK                         _______ _______ _______ _____ _____    ______ ____
ROOT
ATOM      1  C   UNL     1       3.749   4.388  17.566  0.00  0.00    +0.000 C 
ATOM      2  C   UNL     1       4.303   4.316  18.992  0.00  0.00    +0.000 C 
ATOM      3  C   UNL     1       5.709   4.897  19.080  0.00  0.00    +0.000 C 
ATOM      4  N   UNL     1       6.649   4.290  18.122  0.00  0.00    +0.000 NA
ATOM      5  CA  UNL     1       6.140   4.353  16.723  0.00  0.00    +0.000 C 
ATOM      6  C   UNL     1       4.738   3.767  16.579  0.00  0.00    +0.000 C 
ATOM      7  H   UNL     1       6.738   3.298  18.369  0.00  0.00    +0.000 HD
ENDROOT
BRANCH   1   9
ATOM      8  O   UNL     1       1.337   4.207  17.371  0.00  0.00    +0.000 OA
ATOM      9  C   UNL     1       2.423   3.660  17.470  0.00  0.00    +0.000 C 
BRANCH   9  10
ATOM     10  O   UNL     1       2.550   2.316  17.546  0.00  0.00    +0.000 OA
ATOM     11  H   UNL     1       3.224   1.935  16.951  0.00  0.00    +0.000 HD
ENDBRANCH   9  10
ENDBRANCH   1   9
BRANCH   5  12
ATOM     12  C   UNL     1       6.237   5.796  16.198  0.00  0.00    +0.000 C 
ATOM     13  O   UNL     1       5.340   6.397  15.626  0.00  0.00    +0.000 OA
BRANCH  12  14
ATOM     14  OXT UNL     1       7.461   6.331  16.439  0.00  0.00    +0.000 OA
ATOM     15  HXT UNL     1       8.071   5.576  16.625  0.00  0.00    +0.000 HD
ENDBRANCH  12  14
ENDBRANCH   5  12
TORSDOF 4
ENDMDL
MODEL 2
REMARK VINA RESULT:      -5.4      2.755      4.102
REMARK  Name = 
REMARK  4 active torsions:
REMARK  status: ('A' for Active; 'I' for Inactive)
REMARK    1  A    between atoms: C_2  and  O_3
REMARK    2  A    between atoms: C_2  and  C_4
REMARK    3  A    between atoms: CA_8  and  C_9
REMARK    4  A    between atoms: C_9  and  OXT_11
REMARK                            x       y       z     vdW  Elec       q    Type
REMARK                         _______ _______ _______ _____ _____    ______ ____
ROOT
ATOM      1  C   UNL     1       7.055   5.199  18.079  0.00  0.00    +0.000 C 
ATOM      2  C   UNL     1       5.778   4.493  18.544  0.00  0.00    +0.000 C 
ATOM      3  C   UNL     1       4.943   4.006  17.366  0.00  0.00    +0.000 C 
ATOM      4  N   UNL     1       4.629   5.072  16.398  0.00  0.00    +0.000 NA
ATOM      5  CA  UNL     1       5.854   5.772  15.921  0.00  0.00    +0.000 C 
ATOM      6  C   UNL     1       6.719   6.293  17.066  0.00  0.00    +0.000 C 
ATOM      7  H   UNL     1       4.051   5.766  16.885  0.00  0.00    +0.000 HD
ENDROOT
BRANCH   1   9
ATOM      8  O   UNL     1       7.804   5.346  20.382  0.00  0.00    +0.000 OA
ATOM      9  C   UNL     1       7.784   5.816  19.257  0.00  0.00    +0.000 C 
BRANCH   9  10
ATOM     10  O   UNL     1       8.393   6.984  18.950  0.00  0.00    +0.000 OA
ATOM     11  H   UNL     1       7.788   7.701  18.679  0.00  0.00    +0.000 HD
ENDBRANCH   9  10
ENDBRANCH   1   9
BRANCH   5  12
ATOM     12  C   UNL     1       6.633   4.860  14.957  0.00  0.00    +0.000 C 
ATOM     13  O   UNL     1       6.243   3.778  14.545  0.00  0.00    +0.000 OA
BRANCH  12  14
ATOM     14  OXT UNL     1       7.831   5.401  14.620  0.00  0.00    +0.000 OA
ATOM     15  HXT UNL     1       8.509   4.691  14.736  0.00  0.00    +0.000 HD
ENDBRANCH  12  14
ENDBRANCH   5  12
TORSDOF 4
ENDMDL
MODEL 3
REMARK VINA RESULT:      -5.4      1.887      4.172
REMARK  Name = 
REMARK  4 active torsions:
REMARK  status: ('A' for Active; 'I' for Inactive)
REMARK    1  A    between atoms: C_2  and  O_3
REMARK    2  A    between atoms: C_2  and  C_4
REMARK    3  A    between atoms: CA_8  and  C_9
REMARK    4  A    between atoms: C_9  and  OXT_11
REMARK                            x       y       z     vdW  Elec       q    Type
REMARK                         _______ _______ _______ _____ _____    ______ ____
ROOT
ATOM      1  C   UNL     1       6.434   4.347  16.502  0.00  0.00    +0.000 C 
ATOM      2  C   UNL     1       7.142   5.368  17.398  0.00  0.00    +0.000 C 
ATOM      3  C   UNL     1       6.607   5.332  18.824  0.00  0.00    +0.000 C 
ATOM      4  N   UNL     1       5.145   5.493  18.900  0.00  0.00    +0.000 NA
ATOM      5  CA  UNL     1       4.428   4.507  18.045  0.00  0.00    +0.000 C 
ATOM      6  C   UNL     1       4.917   4.516  16.599  0.00  0.00    +0.000 C 
ATOM      7  H   UNL     1       4.922   6.428  18.540  0.00  0.00    +0.000 HD
ENDROOT
BRANCH   1   9
ATOM      8  O   UNL     1       7.551   5.432  14.641  0.00  0.00    +0.000 OA
ATOM      9  C   UNL     1       6.864   4.514  15.058  0.00  0.00    +0.000 C 
BRANCH   9  10
ATOM     10  O   UNL     1       6.372   3.553  14.243  0.00  0.00    +0.000 OA
ATOM     11  H   UNL     1       5.745   2.938  14.670  0.00  0.00    +0.000 HD
ENDBRANCH   9  10
ENDBRANCH   1   9
BRANCH   5  12
ATOM     12  C   UNL     1       4.500   3.111  18.687  0.00  0.00    +0.000 C 
ATOM     13  O   UNL     1       4.867   2.882  19.830  0.00  0.00    +0.000 OA
BRANCH  12  14
ATOM     14  OXT UNL     1       4.113   2.144  17.817  0.00  0.00    +0.000 OA
ATOM     15  HXT UNL     1       3.295   2.472  17.370  0.00  0.00    +0.000 HD
ENDBRANCH  12  14
ENDBRANCH   5  12
TORSDOF 4
ENDMDL
MODEL 4
REMARK VINA RESULT:      -5.4      3.076      4.095
REMARK  Name = 
REMARK  4 active torsions:
REMARK  status: ('A' for Active; 'I' for Inactive)
REMARK    1  A    between atoms: C_2  and  O_3
REMARK    2  A    between atoms: C_2  and  C_4
REMARK    3  A    between atoms: CA_8  and  C_9
REMARK    4  A    between atoms: C_9  and  OXT_11
REMARK                            x       y       z     vdW  Elec       q    Type
REMARK                         _______ _______ _______ _____ _____    ______ ____
ROOT
ATOM      1  C   UNL     1       6.808   5.521  16.042  0.00  0.00    +0.000 C 
ATOM      2  C   UNL     1       5.364   6.025  16.135  0.00  0.00    +0.000 C 
ATOM      3  C   UNL     1       4.993   6.408  17.562  0.00  0.00    +0.000 C 
ATOM      4  N   UNL     1       5.233   5.328  18.534  0.00  0.00    +0.000 NA
ATOM      5  CA  UNL     1       6.633   4.822  18.473  0.00  0.00    +0.000 C 
ATOM      6  C   UNL     1       7.049   4.409  17.063  0.00  0.00    +0.000 C 
ATOM      7  H   UNL     1       4.616   4.548  18.281  0.00  0.00    +0.000 HD
ENDROOT
BRANCH   1   9
ATOM      8  O   UNL     1       7.868   5.516  13.860  0.00  0.00    +0.000 OA
ATOM      9  C   UNL     1       7.101   4.993  14.651  0.00  0.00    +0.000 C 
BRANCH   9  10
ATOM     10  O   UNL     1       6.390   3.885  14.343  0.00  0.00    +0.000 OA
ATOM     11  H   UNL     1       6.832   3.042  14.563  0.00  0.00    +0.000 HD
ENDBRANCH   9  10
ENDBRANCH   1   9
BRANCH   5  12
ATOM     12  C   UNL     1       7.587   5.855  19.095  0.00  0.00    +0.000 C 
ATOM     13  O   UNL     1       8.029   6.839  18.520  0.00  0.00    +0.000 OA
BRANCH  12  14
ATOM     14  OXT UNL     1       7.898   5.536  20.377  0.00  0.00    +0.000 OA
ATOM     15  HXT UNL     1       7.308   6.076  20.957  0.00  0.00    +0.000 HD
ENDBRANCH  12  14
ENDBRANCH   5  12
TORSDOF 4
ENDMDL
MODEL 5
REMARK VINA RESULT:      -5.3      0.698      1.336
REMARK  Name = 
REMARK  4 active torsions:
REMARK  status: ('A' for Active; 'I' for Inactive)
REMARK    1  A    between atoms: C_2  and  O_3
REMARK    2  A    between atoms: C_2  and  C_4
REMARK    3  A    between atoms: CA_8  and  C_9
REMARK    4  A    between atoms: C_9  and  OXT_11
REMARK                            x       y       z     vdW  Elec       q    Type
REMARK                         _______ _______ _______ _____ _____    ______ ____
ROOT
ATOM      1  C   UNL     1       4.006   4.786  17.717  0.00  0.00    +0.000 C 
ATOM      2  C   UNL     1       4.626   4.753  19.118  0.00  0.00    +0.000 C 
ATOM      3  C   UNL     1       6.101   5.133  19.090  0.00  0.00    +0.000 C 
ATOM      4  N   UNL     1       6.892   4.322  18.149  0.00  0.00    +0.000 NA
ATOM      5  CA  UNL     1       6.318   4.342  16.774  0.00  0.00    +0.000 C 
ATOM      6  C   UNL     1       4.842   3.952  16.746  0.00  0.00    +0.000 C 
ATOM      7  H   UNL     1       6.857   3.351  18.479  0.00  0.00    +0.000 HD
ENDROOT
BRANCH   1   9
ATOM      8  O   UNL     1       2.152   3.407  16.977  0.00  0.00    +0.000 OA
ATOM      9  C   UNL     1       2.589   4.248  17.746  0.00  0.00    +0.000 C 
BRANCH   9  10
ATOM     10  O   UNL     1       1.822   4.826  18.697  0.00  0.00    +0.000 OA
ATOM     11  H   UNL     1       2.222   4.846  19.588  0.00  0.00    +0.000 HD
ENDBRANCH   9  10
ENDBRANCH   1   9
BRANCH   5  12
ATOM     12  C   UNL     1       6.583   5.709  16.119  0.00  0.00    +0.000 C 
ATOM     13  O   UNL     1       7.501   6.461  16.410  0.00  0.00    +0.000 OA
BRANCH  12  14
ATOM     14  OXT UNL     1       5.654   5.993  15.171  0.00  0.00    +0.000 OA
ATOM     15  HXT UNL     1       6.148   6.244  14.353  0.00  0.00    +0.000 HD
ENDBRANCH  12  14
ENDBRANCH   5  12
TORSDOF 4
ENDMDL
MODEL 6
REMARK VINA RESULT:      -5.3      2.040      2.449
REMARK  Name = 
REMARK  4 active torsions:
REMARK  status: ('A' for Active; 'I' for Inactive)
REMARK    1  A    between atoms: C_2  and  O_3
REMARK    2  A    between atoms: C_2  and  C_4
REMARK    3  A    between atoms: CA_8  and  C_9
REMARK    4  A    between atoms: C_9  and  OXT_11
REMARK                            x       y       z     vdW  Elec       q    Type
REMARK                         _______ _______ _______ _____ _____    ______ ____
ROOT
ATOM      1  C   UNL     1       4.888   4.430  17.523  0.00  0.00    +0.000 C 
ATOM      2  C   UNL     1       4.279   5.834  17.463  0.00  0.00    +0.000 C 
ATOM      3  C   UNL     1       4.937   6.688  16.386  0.00  0.00    +0.000 C 
ATOM      4  N   UNL     1       6.403   6.758  16.517  0.00  0.00    +0.000 NA
ATOM      5  CA  UNL     1       7.025   5.406  16.569  0.00  0.00    +0.000 C 
ATOM      6  C   UNL     1       6.410   4.515  17.645  0.00  0.00    +0.000 C 
ATOM      7  H   UNL     1       6.608   7.223  17.409  0.00  0.00    +0.000 HD
ENDROOT
BRANCH   1   9
ATOM      8  O   UNL     1       3.160   3.642  19.033  0.00  0.00    +0.000 OA
ATOM      9  C   UNL     1       4.335   3.657  18.704  0.00  0.00    +0.000 C 
BRANCH   9  10
ATOM     10  O   UNL     1       5.289   2.999  19.402  0.00  0.00    +0.000 OA
ATOM     11  H   UNL     1       5.505   3.393  20.269  0.00  0.00    +0.000 HD
ENDBRANCH   9  10
ENDBRANCH   1   9
BRANCH   5  12
ATOM     12  C   UNL     1       6.988   4.761  15.173  0.00  0.00    +0.000 C 
ATOM     13  O   UNL     1       6.382   3.739  14.887  0.00  0.00    +0.000 OA
BRANCH  12  14
ATOM     14  OXT UNL     1       7.729   5.465  14.280  0.00  0.00    +0.000 OA
ATOM     15  HXT UNL     1       7.337   6.372  14.235  0.00  0.00    +0.000 HD
ENDBRANCH  12  14
ENDBRANCH   5  12
TORSDOF 4
ENDMDL
MODEL 7
REMARK VINA RESULT:      -5.3      2.300      4.182
REMARK  Name = 
REMARK  4 active torsions:
REMARK  status: ('A' for Active; 'I' for Inactive)
REMARK    1  A    between atoms: C_2  and  O_3
REMARK    2  A    between atoms: C_2  and  C_4
REMARK    3  A    between atoms: CA_8  and  C_9
REMARK    4  A    between atoms: C_9  and  OXT_11
REMARK                            x       y       z     vdW  Elec       q    Type
REMARK                         _______ _______ _______ _____ _____    ______ ____
ROOT
ATOM      1  C   UNL     1       6.056   4.943  16.014  0.00  0.00    +0.000 C 
ATOM      2  C   UNL     1       5.325   6.289  16.011  0.00  0.00    +0.000 C 
ATOM      3  C   UNL     1       4.567   6.522  17.312  0.00  0.00    +0.000 C 
ATOM      4  N   UNL     1       3.643   5.425  17.649  0.00  0.00    +0.000 NA
ATOM      5  CA  UNL     1       4.328   4.102  17.668  0.00  0.00    +0.000 C 
ATOM      6  C   UNL     1       5.090   3.815  16.377  0.00  0.00    +0.000 C 
ATOM      7  H   UNL     1       2.931   5.389  16.911  0.00  0.00    +0.000 HD
ENDROOT
BRANCH   1   9
ATOM      8  O   UNL     1       6.282   3.789  13.892  0.00  0.00    +0.000 OA
ATOM      9  C   UNL     1       6.664   4.662  14.655  0.00  0.00    +0.000 C 
BRANCH   9  10
ATOM     10  O   UNL     1       7.721   5.457  14.371  0.00  0.00    +0.000 OA
ATOM     11  H   UNL     1       8.556   5.195  14.803  0.00  0.00    +0.000 HD
ENDBRANCH   9  10
ENDBRANCH   1   9
BRANCH   5  12
ATOM     12  C   UNL     1       5.217   3.995  18.919  0.00  0.00    +0.000 C 
ATOM     13  O   UNL     1       5.925   4.889  19.357  0.00  0.00    +0.000 OA
BRANCH  12  14
ATOM     14  OXT UNL     1       5.132   2.764  19.485  0.00  0.00    +0.000 OA
ATOM     15  HXT UNL     1       6.030   2.549  19.838  0.00  0.00    +0.000 HD
ENDBRANCH  12  14
ENDBRANCH   5  12
TORSDOF 4
ENDMDL
MODEL 8
REMARK VINA RESULT:      -5.3      2.734      5.087
REMARK  Name = 
REMARK  4 active torsions:
REMARK  status: ('A' for Active; 'I' for Inactive)
REMARK    1  A    between atoms: C_2  and  O_3
REMARK    2  A    between atoms: C_2  and  C_4
REMARK    3  A    between atoms: CA_8  and  C_9
REMARK    4  A    between atoms: C_9  and  OXT_11
REMARK                            x       y       z     vdW  Elec       q    Type
REMARK                         _______ _______ _______ _____ _____    ______ ____
ROOT
ATOM      1  C   UNL     1       4.307   4.069  18.804  0.00  0.00    +0.000 C 
ATOM      2  C   UNL     1       3.829   3.685  17.401  0.00  0.00    +0.000 C 
ATOM      3  C   UNL     1       2.405   3.143  17.420  0.00  0.00    +0.000 C 
ATOM      4  N   UNL     1       2.224   2.023  18.360  0.00  0.00    +0.000 NA
ATOM      5  CA  UNL     1       2.673   2.370  19.737  0.00  0.00    +0.000 C 
ATOM      6  C   UNL     1       4.103   2.905  19.773  0.00  0.00    +0.000 C 
ATOM      7  H   UNL     1       2.815   1.251  18.031  0.00  0.00    +0.000 HD
ENDROOT
BRANCH   1   9
ATOM      8  O   UNL     1       6.341   5.076  19.664  0.00  0.00    +0.000 OA
ATOM      9  C   UNL     1       5.775   4.450  18.784  0.00  0.00    +0.000 C 
BRANCH   9  10
ATOM     10  O   UNL     1       6.409   4.057  17.655  0.00  0.00    +0.000 OA
ATOM     11  H   UNL     1       5.832   3.972  16.872  0.00  0.00    +0.000 HD
ENDBRANCH   9  10
ENDBRANCH   1   9
BRANCH   5  12
ATOM     12  C   UNL     1       1.664   3.331  20.387  0.00  0.00    +0.000 C 
ATOM     13  O   UNL     1       1.956   4.281  21.099  0.00  0.00    +0.000 OA
BRANCH  12  14
ATOM     14  OXT UNL     1       0.386   2.990  20.084  0.00  0.00    +0.000 OA
ATOM     15  HXT UNL     1      -0.039   3.792  19.691  0.00  0.00    +0.000 HD
ENDBRANCH  12  14
ENDBRANCH   5  12
TORSDOF 4
ENDMDL
MODEL 9
REMARK VINA RESULT:      -5.3      2.380      4.563
REMARK  Name = 
REMARK  4 active torsions:
REMARK  status: ('A' for Active; 'I' for Inactive)
REMARK    1  A    between atoms: C_2  and  O_3
REMARK    2  A    between atoms: C_2  and  C_4
REMARK    3  A    between atoms: CA_8  and  C_9
REMARK    4  A    between atoms: C_9  and  OXT_11
REMARK                            x       y       z     vdW  Elec       q    Type
REMARK                         _______ _______ _______ _____ _____    ______ ____
ROOT
ATOM      1  C   UNL     1       4.549   4.264  18.951  0.00  0.00    +0.000 C 
ATOM      2  C   UNL     1       3.705   5.483  19.337  0.00  0.00    +0.000 C 
ATOM      3  C   UNL     1       2.215   5.215  19.161  0.00  0.00    +0.000 C 
ATOM      4  N   UNL     1       1.867   4.744  17.809  0.00  0.00    +0.000 NA
ATOM      5  CA  UNL     1       2.666   3.553  17.408  0.00  0.00    +0.000 C 
ATOM      6  C   UNL     1       4.170   3.777  17.552  0.00  0.00    +0.000 C 
ATOM      7  H   UNL     1       2.097   5.500  17.154  0.00  0.00    +0.000 HD
ENDROOT
BRANCH   1   9
ATOM      8  O   UNL     1       6.552   5.338  19.799  0.00  0.00    +0.000 OA
ATOM      9  C   UNL     1       6.025   4.606  18.977  0.00  0.00    +0.000 C 
BRANCH   9  10
ATOM     10  O   UNL     1       6.718   4.045  17.960  0.00  0.00    +0.000 OA
ATOM     11  H   UNL     1       6.196   3.884  17.151  0.00  0.00    +0.000 HD
ENDBRANCH   9  10
ENDBRANCH   1   9
BRANCH   5  12
ATOM     12  C   UNL     1       2.175   2.313  18.175  0.00  0.00    +0.000 C 
ATOM     13  O   UNL     1       1.070   2.194  18.683  0.00  0.00    +0.000 OA
BRANCH  12  14
ATOM     14  OXT UNL     1       3.132   1.354  18.234  0.00  0.00    +0.000 OA
ATOM     15  HXT UNL     1       2.874   0.735  18.960  0.00  0.00    +0.000 HD
ENDBRANCH  12  14
ENDBRANCH   5  12
TORSDOF 4
ENDMDL
