MODEL 1
REMARK VINA RESULT:      -9.9      0.000      0.000
REMARK  Name = 
REMARK  4 active torsions:
REMARK  status: ('A' for Active; 'I' for Inactive)
REMARK    1  A    between atoms: C_2  and  O_3
REMARK    2  A    between atoms: C_2  and  C_4
REMARK    3  A    between atoms: C_9  and  C_10
REMARK    4  A    between atoms: C_14  and  C_15
REMARK                            x       y       z     vdW  Elec       q    Type
REMARK                         _______ _______ _______ _____ _____    ______ ____
ROOT
ATOM      1  C   UNL     1       1.297   8.721  19.857  0.00  0.00    +0.000 A 
ATOM      2  C   UNL     1       1.883   9.316  18.732  0.00  0.00    +0.000 A 
ATOM      3  C   UNL     1       2.580   8.554  17.810  0.00  0.00    +0.000 A 
ATOM      4  C   UNL     1       2.719   7.174  17.996  0.00  0.00    +0.000 A 
ATOM      5  C   UNL     1       2.166   6.538  19.122  0.00  0.00    +0.000 A 
ATOM      6  C   UNL     1       1.481   7.341  20.037  0.00  0.00    +0.000 A 
ENDROOT
BRANCH   1  12
ATOM      7  C   UNL     1      -2.611  12.858  23.008  0.00  0.00    +0.000 A 
ATOM      8  C   UNL     1      -2.611  13.166  21.645  0.00  0.00    +0.000 A 
ATOM      9  C   UNL     1      -1.834  12.413  20.769  0.00  0.00    +0.000 A 
ATOM     10  C   UNL     1      -1.060  11.348  21.240  0.00  0.00    +0.000 A 
ATOM     11  C   UNL     1      -0.285  10.587  20.364  0.00  0.00    +0.000 A 
ATOM     12  C   UNL     1       0.486   9.499  20.804  0.00  0.00    +0.000 A 
ATOM     13  C   UNL     1       0.459   9.185  22.171  0.00  0.00    +0.000 A 
ATOM     14  C   UNL     1      -0.314   9.930  23.063  0.00  0.00    +0.000 A 
ATOM     15  C   UNL     1      -1.074  11.017  22.617  0.00  0.00    +0.000 A 
ATOM     16  C   UNL     1      -1.859  11.782  23.489  0.00  0.00    +0.000 A 
BRANCH   7  18
ATOM     17  O   UNL     1      -3.554  14.889  23.808  0.00  0.00    +0.000 OA
ATOM     18  C   UNL     1      -3.458  13.678  23.905  0.00  0.00    +0.000 C 
BRANCH  18  19
ATOM     19  O   UNL     1      -4.076  12.958  24.865  0.00  0.00    +0.000 OA
ATOM     20  H   UNL     1      -3.901  11.999  24.829  0.00  0.00    +0.000 HD
ENDBRANCH  18  19
ENDBRANCH   7  18
ENDBRANCH   1  12
BRANCH   5  21
ATOM     21  C   UNL     1       2.264   5.019  19.323  0.00  0.00    +0.000 C 
ATOM     22  C   UNL     1       1.837   4.274  18.030  0.00  0.00    +0.000 C 
ATOM     23  C   UNL     1       1.908   2.751  18.223  0.00  0.00    +0.000 C 
ATOM     24  C   UNL     1       3.349   2.346  18.567  0.00  0.00    +0.000 C 
ATOM     25  C   UNL     1       3.789   3.031  19.866  0.00  0.00    +0.000 C 
ATOM     26  C   UNL     1       2.852   2.629  21.014  0.00  0.00    +0.000 C 
ATOM     27  C   UNL     1       1.409   3.037  20.678  0.00  0.00    +0.000 C 
ATOM     28  C   UNL     1       0.976   2.343  19.376  0.00  0.00    +0.000 C 
ATOM     29  C   UNL     1       1.339   4.563  20.488  0.00  0.00    +0.000 C 
ATOM     30  C   UNL     1       3.714   4.550  19.675  0.00  0.00    +0.000 C 
ENDBRANCH   5  21
TORSDOF 4
ENDMDL
MODEL 2
REMARK VINA RESULT:      -9.9      0.124      1.402
REMARK  Name = 
REMARK  4 active torsions:
REMARK  status: ('A' for Active; 'I' for Inactive)
REMARK    1  A    between atoms: C_2  and  O_3
REMARK    2  A    between atoms: C_2  and  C_4
REMARK    3  A    between atoms: C_9  and  C_10
REMARK    4  A    between atoms: C_14  and  C_15
REMARK                            x       y       z     vdW  Elec       q    Type
REMARK                         _______ _______ _______ _____ _____    ______ ____
ROOT
ATOM      1  C   UNL     1       1.235   8.815  19.866  0.00  0.00    +0.000 A 
ATOM      2  C   UNL     1       1.830   9.433  18.759  0.00  0.00    +0.000 A 
ATOM      3  C   UNL     1       2.542   8.692  17.832  0.00  0.00    +0.000 A 
ATOM      4  C   UNL     1       2.687   7.309  17.995  0.00  0.00    +0.000 A 
ATOM      5  C   UNL     1       2.126   6.650  19.103  0.00  0.00    +0.000 A 
ATOM      6  C   UNL     1       1.425   7.432  20.024  0.00  0.00    +0.000 A 
ENDROOT
BRANCH   1  12
ATOM      7  C   UNL     1      -2.719  12.884  23.049  0.00  0.00    +0.000 A 
ATOM      8  C   UNL     1      -2.692  13.226  21.694  0.00  0.00    +0.000 A 
ATOM      9  C   UNL     1      -1.901  12.493  20.814  0.00  0.00    +0.000 A 
ATOM     10  C   UNL     1      -1.140  11.414  21.272  0.00  0.00    +0.000 A 
ATOM     11  C   UNL     1      -0.351  10.673  20.392  0.00  0.00    +0.000 A 
ATOM     12  C   UNL     1       0.409   9.571  20.817  0.00  0.00    +0.000 A 
ATOM     13  C   UNL     1       0.355   9.223  22.176  0.00  0.00    +0.000 A 
ATOM     14  C   UNL     1      -0.433   9.947  23.072  0.00  0.00    +0.000 A 
ATOM     15  C   UNL     1      -1.181  11.047  22.639  0.00  0.00    +0.000 A 
ATOM     16  C   UNL     1      -1.980  11.792  23.516  0.00  0.00    +0.000 A 
BRANCH   7  18
ATOM     17  O   UNL     1      -3.713  14.891  23.848  0.00  0.00    +0.000 OA
ATOM     18  C   UNL     1      -3.580  13.684  23.950  0.00  0.00    +0.000 C 
BRANCH  18  19
ATOM     19  O   UNL     1      -4.167  12.951  24.920  0.00  0.00    +0.000 OA
ATOM     20  H   UNL     1      -3.555  12.391  25.433  0.00  0.00    +0.000 HD
ENDBRANCH  18  19
ENDBRANCH   7  18
ENDBRANCH   1  12
BRANCH   5  21
ATOM     21  C   UNL     1       2.231   5.129  19.279  0.00  0.00    +0.000 C 
ATOM     22  C   UNL     1       1.297   4.651  20.424  0.00  0.00    +0.000 C 
ATOM     23  C   UNL     1       1.408   3.132  20.628  0.00  0.00    +0.000 C 
ATOM     24  C   UNL     1       1.002   2.412  19.334  0.00  0.00    +0.000 C 
ATOM     25  C   UNL     1       1.933   2.828  18.189  0.00  0.00    +0.000 C 
ATOM     26  C   UNL     1       3.386   2.476  18.540  0.00  0.00    +0.000 C 
ATOM     27  C   UNL     1       3.800   3.198  19.832  0.00  0.00    +0.000 C 
ATOM     28  C   UNL     1       2.863   2.773  20.974  0.00  0.00    +0.000 C 
ATOM     29  C   UNL     1       3.691   4.720  19.626  0.00  0.00    +0.000 C 
ATOM     30  C   UNL     1       1.825   4.344  17.989  0.00  0.00    +0.000 C 
ENDBRANCH   5  21
TORSDOF 4
ENDMDL
MODEL 3
REMARK VINA RESULT:      -9.9      0.069      1.414
REMARK  Name = 
REMARK  4 active torsions:
REMARK  status: ('A' for Active; 'I' for Inactive)
REMARK    1  A    between atoms: C_2  and  O_3
REMARK    2  A    between atoms: C_2  and  C_4
REMARK    3  A    between atoms: C_9  and  C_10
REMARK    4  A    between atoms: C_14  and  C_15
REMARK                            x       y       z     vdW  Elec       q    Type
REMARK                         _______ _______ _______ _____ _____    ______ ____
ROOT
ATOM      1  C   UNL     1       1.310   8.757  19.851  0.00  0.00    +0.000 A 
ATOM      2  C   UNL     1       1.911   9.362  18.740  0.00  0.00    +0.000 A 
ATOM      3  C   UNL     1       2.615   8.609  17.818  0.00  0.00    +0.000 A 
ATOM      4  C   UNL     1       2.747   7.226  17.988  0.00  0.00    +0.000 A 
ATOM      5  C   UNL     1       2.179   6.579  19.101  0.00  0.00    +0.000 A 
ATOM      6  C   UNL     1       1.486   7.373  20.017  0.00  0.00    +0.000 A 
ENDROOT
BRANCH   1  12
ATOM      7  C   UNL     1      -2.620  12.870  23.006  0.00  0.00    +0.000 A 
ATOM      8  C   UNL     1      -2.605  13.192  21.646  0.00  0.00    +0.000 A 
ATOM      9  C   UNL     1      -1.821  12.447  20.770  0.00  0.00    +0.000 A 
ATOM     10  C   UNL     1      -1.055  11.375  21.238  0.00  0.00    +0.000 A 
ATOM     11  C   UNL     1      -0.273  10.621  20.362  0.00  0.00    +0.000 A 
ATOM     12  C   UNL     1       0.491   9.526  20.798  0.00  0.00    +0.000 A 
ATOM     13  C   UNL     1       0.448   9.198  22.161  0.00  0.00    +0.000 A 
ATOM     14  C   UNL     1      -0.333   9.935  23.053  0.00  0.00    +0.000 A 
ATOM     15  C   UNL     1      -1.085  11.028  22.611  0.00  0.00    +0.000 A 
ATOM     16  C   UNL     1      -1.877  11.786  23.483  0.00  0.00    +0.000 A 
BRANCH   7  18
ATOM     17  O   UNL     1      -3.593  14.891  23.796  0.00  0.00    +0.000 OA
ATOM     18  C   UNL     1      -3.475  13.682  23.902  0.00  0.00    +0.000 C 
BRANCH  18  19
ATOM     19  O   UNL     1      -4.073  12.960  24.872  0.00  0.00    +0.000 OA
ATOM     20  H   UNL     1      -3.974  13.326  25.771  0.00  0.00    +0.000 HD
ENDBRANCH  18  19
ENDBRANCH   7  18
ENDBRANCH   1  12
BRANCH   5  21
ATOM     21  C   UNL     1       2.269   5.058  19.285  0.00  0.00    +0.000 C 
ATOM     22  C   UNL     1       3.715   4.645  19.673  0.00  0.00    +0.000 C 
ATOM     23  C   UNL     1       3.827   3.121  19.839  0.00  0.00    +0.000 C 
ATOM     24  C   UNL     1       2.872   2.656  20.948  0.00  0.00    +0.000 C 
ATOM     25  C   UNL     1       1.427   3.009  20.576  0.00  0.00    +0.000 C 
ATOM     26  C   UNL     1       1.047   2.333  19.250  0.00  0.00    +0.000 C 
ATOM     27  C   UNL     1       1.996   2.799  18.136  0.00  0.00    +0.000 C 
ATOM     28  C   UNL     1       3.441   2.438  18.516  0.00  0.00    +0.000 C 
ATOM     29  C   UNL     1       1.881   4.325  17.969  0.00  0.00    +0.000 C 
ATOM     30  C   UNL     1       1.316   4.528  20.406  0.00  0.00    +0.000 C 
ENDBRANCH   5  21
TORSDOF 4
ENDMDL
MODEL 4
REMARK VINA RESULT:      -9.7      0.879      1.763
REMARK  Name = 
REMARK  4 active torsions:
REMARK  status: ('A' for Active; 'I' for Inactive)
REMARK    1  A    between atoms: C_2  and  O_3
REMARK    2  A    between atoms: C_2  and  C_4
REMARK    3  A    between atoms: C_9  and  C_10
REMARK    4  A    between atoms: C_14  and  C_15
REMARK                            x       y       z     vdW  Elec       q    Type
REMARK                         _______ _______ _______ _____ _____    ______ ____
ROOT
ATOM      1  C   UNL     1       2.012   8.341  18.755  0.00  0.00    +0.000 A 
ATOM      2  C   UNL     1       2.920   8.727  17.760  0.00  0.00    +0.000 A 
ATOM      3  C   UNL     1       3.737   7.794  17.148  0.00  0.00    +0.000 A 
ATOM      4  C   UNL     1       3.677   6.447  17.522  0.00  0.00    +0.000 A 
ATOM      5  C   UNL     1       2.796   6.018  18.532  0.00  0.00    +0.000 A 
ATOM      6  C   UNL     1       1.995   6.989  19.137  0.00  0.00    +0.000 A 
ENDROOT
BRANCH   1  12
ATOM      7  C   UNL     1      -1.938  11.896  22.508  0.00  0.00    +0.000 A 
ATOM      8  C   UNL     1      -1.359  10.880  23.273  0.00  0.00    +0.000 A 
ATOM      9  C   UNL     1      -0.478   9.983  22.675  0.00  0.00    +0.000 A 
ATOM     10  C   UNL     1      -0.162  10.095  21.318  0.00  0.00    +0.000 A 
ATOM     11  C   UNL     1       0.725   9.202  20.716  0.00  0.00    +0.000 A 
ATOM     12  C   UNL     1       1.080   9.301  19.360  0.00  0.00    +0.000 A 
ATOM     13  C   UNL     1       0.510  10.341  18.609  0.00  0.00    +0.000 A 
ATOM     14  C   UNL     1      -0.375  11.249  19.193  0.00  0.00    +0.000 A 
ATOM     15  C   UNL     1      -0.726  11.137  20.542  0.00  0.00    +0.000 A 
ATOM     16  C   UNL     1      -1.612  12.034  21.155  0.00  0.00    +0.000 A 
BRANCH   7  18
ATOM     17  O   UNL     1      -2.711  14.043  23.174  0.00  0.00    +0.000 OA
ATOM     18  C   UNL     1      -2.862  12.834  23.185  0.00  0.00    +0.000 C 
BRANCH  18  19
ATOM     19  O   UNL     1      -3.862  12.216  23.849  0.00  0.00    +0.000 OA
ATOM     20  H   UNL     1      -3.885  11.247  23.738  0.00  0.00    +0.000 HD
ENDBRANCH  18  19
ENDBRANCH   7  18
ENDBRANCH   1  12
BRANCH   5  21
ATOM     21  C   UNL     1       2.677   4.539  18.927  0.00  0.00    +0.000 C 
ATOM     22  C   UNL     1       2.292   3.679  17.693  0.00  0.00    +0.000 C 
ATOM     23  C   UNL     1       2.146   2.198  18.077  0.00  0.00    +0.000 C 
ATOM     24  C   UNL     1       3.480   1.682  18.635  0.00  0.00    +0.000 C 
ATOM     25  C   UNL     1       3.869   2.482  19.884  0.00  0.00    +0.000 C 
ATOM     26  C   UNL     1       2.776   2.349  20.954  0.00  0.00    +0.000 C 
ATOM     27  C   UNL     1       1.440   2.870  20.403  0.00  0.00    +0.000 C 
ATOM     28  C   UNL     1       1.056   2.060  19.153  0.00  0.00    +0.000 C 
ATOM     29  C   UNL     1       1.586   4.354  20.021  0.00  0.00    +0.000 C 
ATOM     30  C   UNL     1       4.010   3.959  19.502  0.00  0.00    +0.000 C 
ENDBRANCH   5  21
TORSDOF 4
ENDMDL
MODEL 5
REMARK VINA RESULT:      -9.7      0.887      2.228
REMARK  Name = 
REMARK  4 active torsions:
REMARK  status: ('A' for Active; 'I' for Inactive)
REMARK    1  A    between atoms: C_2  and  O_3
REMARK    2  A    between atoms: C_2  and  C_4
REMARK    3  A    between atoms: C_9  and  C_10
REMARK    4  A    between atoms: C_14  and  C_15
REMARK                            x       y       z     vdW  Elec       q    Type
REMARK                         _______ _______ _______ _____ _____    ______ ____
ROOT
ATOM      1  C   UNL     1       2.008   8.336  18.752  0.00  0.00    +0.000 A 
ATOM      2  C   UNL     1       2.938   8.718  17.777  0.00  0.00    +0.000 A 
ATOM      3  C   UNL     1       3.758   7.781  17.175  0.00  0.00    +0.000 A 
ATOM      4  C   UNL     1       3.678   6.432  17.541  0.00  0.00    +0.000 A 
ATOM      5  C   UNL     1       2.775   6.006  18.531  0.00  0.00    +0.000 A 
ATOM      6  C   UNL     1       1.972   6.982  19.126  0.00  0.00    +0.000 A 
ENDROOT
BRANCH   1  12
ATOM      7  C   UNL     1      -1.950  11.930  22.458  0.00  0.00    +0.000 A 
ATOM      8  C   UNL     1      -1.367  10.927  23.237  0.00  0.00    +0.000 A 
ATOM      9  C   UNL     1      -0.483  10.025  22.651  0.00  0.00    +0.000 A 
ATOM     10  C   UNL     1      -0.169  10.119  21.292  0.00  0.00    +0.000 A 
ATOM     11  C   UNL     1       0.721   9.220  20.702  0.00  0.00    +0.000 A 
ATOM     12  C   UNL     1       1.073   9.301  19.345  0.00  0.00    +0.000 A 
ATOM     13  C   UNL     1       0.499  10.328  18.579  0.00  0.00    +0.000 A 
ATOM     14  C   UNL     1      -0.389  11.240  19.151  0.00  0.00    +0.000 A 
ATOM     15  C   UNL     1      -0.738  11.147  20.502  0.00  0.00    +0.000 A 
ATOM     16  C   UNL     1      -1.626  12.049  21.103  0.00  0.00    +0.000 A 
BRANCH   7  18
ATOM     17  O   UNL     1      -2.656  14.069  23.219  0.00  0.00    +0.000 OA
ATOM     18  C   UNL     1      -2.877  12.874  23.123  0.00  0.00    +0.000 C 
BRANCH  18  19
ATOM     19  O   UNL     1      -3.967  12.276  23.648  0.00  0.00    +0.000 OA
ATOM     20  H   UNL     1      -3.910  12.096  24.605  0.00  0.00    +0.000 HD
ENDBRANCH  18  19
ENDBRANCH   7  18
ENDBRANCH   1  12
BRANCH   5  21
ATOM     21  C   UNL     1       2.635   4.527  18.916  0.00  0.00    +0.000 C 
ATOM     22  C   UNL     1       1.539   4.353  20.003  0.00  0.00    +0.000 C 
ATOM     23  C   UNL     1       1.403   2.879  20.416  0.00  0.00    +0.000 C 
ATOM     24  C   UNL     1       1.014   2.039  19.191  0.00  0.00    +0.000 C 
ATOM     25  C   UNL     1       2.099   2.153  18.113  0.00  0.00    +0.000 C 
ATOM     26  C   UNL     1       3.444   1.664  18.668  0.00  0.00    +0.000 C 
ATOM     27  C   UNL     1       3.840   2.504  19.891  0.00  0.00    +0.000 C 
ATOM     28  C   UNL     1       2.750   2.381  20.968  0.00  0.00    +0.000 C 
ATOM     29  C   UNL     1       3.980   3.980  19.476  0.00  0.00    +0.000 C 
ATOM     30  C   UNL     1       2.237   3.623  17.704  0.00  0.00    +0.000 C 
ENDBRANCH   5  21
TORSDOF 4
ENDMDL
MODEL 6
REMARK VINA RESULT:      -9.7      0.866      2.250
REMARK  Name = 
REMARK  4 active torsions:
REMARK  status: ('A' for Active; 'I' for Inactive)
REMARK    1  A    between atoms: C_2  and  O_3
REMARK    2  A    between atoms: C_2  and  C_4
REMARK    3  A    between atoms: C_9  and  C_10
REMARK    4  A    between atoms: C_14  and  C_15
REMARK                            x       y       z     vdW  Elec       q    Type
REMARK                         _______ _______ _______ _____ _____    ______ ____
ROOT
ATOM      1  C   UNL     1       1.972   8.376  18.765  0.00  0.00    +0.000 A 
ATOM      2  C   UNL     1       2.891   8.752  17.776  0.00  0.00    +0.000 A 
ATOM      3  C   UNL     1       3.710   7.813  17.176  0.00  0.00    +0.000 A 
ATOM      4  C   UNL     1       3.640   6.468  17.557  0.00  0.00    +0.000 A 
ATOM      5  C   UNL     1       2.749   6.048  18.561  0.00  0.00    +0.000 A 
ATOM      6  C   UNL     1       1.947   7.026  19.153  0.00  0.00    +0.000 A 
ENDROOT
BRANCH   1  12
ATOM      7  C   UNL     1      -1.990  11.970  22.466  0.00  0.00    +0.000 A 
ATOM      8  C   UNL     1      -1.418  10.959  23.243  0.00  0.00    +0.000 A 
ATOM      9  C   UNL     1      -0.535  10.055  22.657  0.00  0.00    +0.000 A 
ATOM     10  C   UNL     1      -0.211  10.156  21.301  0.00  0.00    +0.000 A 
ATOM     11  C   UNL     1       0.677   9.256  20.712  0.00  0.00    +0.000 A 
ATOM     12  C   UNL     1       1.039   9.343  19.357  0.00  0.00    +0.000 A 
ATOM     13  C   UNL     1       0.477  10.377  18.594  0.00  0.00    +0.000 A 
ATOM     14  C   UNL     1      -0.410  11.292  19.165  0.00  0.00    +0.000 A 
ATOM     15  C   UNL     1      -0.769  11.192  20.514  0.00  0.00    +0.000 A 
ATOM     16  C   UNL     1      -1.656  12.096  21.114  0.00  0.00    +0.000 A 
BRANCH   7  18
ATOM     17  O   UNL     1      -2.765  14.125  23.105  0.00  0.00    +0.000 OA
ATOM     18  C   UNL     1      -2.916  12.916  23.130  0.00  0.00    +0.000 C 
BRANCH  18  19
ATOM     19  O   UNL     1      -3.917  12.305  23.799  0.00  0.00    +0.000 OA
ATOM     20  H   UNL     1      -3.817  11.339  23.886  0.00  0.00    +0.000 HD
ENDBRANCH  18  19
ENDBRANCH   7  18
ENDBRANCH   1  12
BRANCH   5  21
ATOM     21  C   UNL     1       2.620   4.572  18.963  0.00  0.00    +0.000 C 
ATOM     22  C   UNL     1       3.964   4.050  19.539  0.00  0.00    +0.000 C 
ATOM     23  C   UNL     1       3.858   2.566  19.925  0.00  0.00    +0.000 C 
ATOM     24  C   UNL     1       2.768   2.392  20.992  0.00  0.00    +0.000 C 
ATOM     25  C   UNL     1       1.416   2.859  20.440  0.00  0.00    +0.000 C 
ATOM     26  C   UNL     1       1.049   2.043  19.192  0.00  0.00    +0.000 C 
ATOM     27  C   UNL     1       2.134   2.217  18.118  0.00  0.00    +0.000 C 
ATOM     28  C   UNL     1       3.485   1.744  18.679  0.00  0.00    +0.000 C 
ATOM     29  C   UNL     1       2.237   3.703  17.730  0.00  0.00    +0.000 C 
ATOM     30  C   UNL     1       1.523   4.337  20.052  0.00  0.00    +0.000 C 
ENDBRANCH   5  21
TORSDOF 4
ENDMDL
MODEL 7
REMARK VINA RESULT:      -9.5      2.359      4.020
REMARK  Name = 
REMARK  4 active torsions:
REMARK  status: ('A' for Active; 'I' for Inactive)
REMARK    1  A    between atoms: C_2  and  O_3
REMARK    2  A    between atoms: C_2  and  C_4
REMARK    3  A    between atoms: C_9  and  C_10
REMARK    4  A    between atoms: C_14  and  C_15
REMARK                            x       y       z     vdW  Elec       q    Type
REMARK                         _______ _______ _______ _____ _____    ______ ____
ROOT
ATOM      1  C   UNL     1       1.880   6.914  20.170  0.00  0.00    +0.000 A 
ATOM      2  C   UNL     1       1.461   5.757  20.839  0.00  0.00    +0.000 A 
ATOM      3  C   UNL     1       2.141   4.562  20.681  0.00  0.00    +0.000 A 
ATOM      4  C   UNL     1       3.257   4.490  19.839  0.00  0.00    +0.000 A 
ATOM      5  C   UNL     1       3.700   5.621  19.131  0.00  0.00    +0.000 A 
ATOM      6  C   UNL     1       2.981   6.806  19.304  0.00  0.00    +0.000 A 
ENDROOT
BRANCH   1  12
ATOM      7  C   UNL     1      -1.378  12.141  22.262  0.00  0.00    +0.000 A 
ATOM      8  C   UNL     1      -1.392  11.157  23.253  0.00  0.00    +0.000 A 
ATOM      9  C   UNL     1      -0.759   9.939  23.024  0.00  0.00    +0.000 A 
ATOM     10  C   UNL     1      -0.104   9.695  21.813  0.00  0.00    +0.000 A 
ATOM     11  C   UNL     1       0.537   8.477  21.582  0.00  0.00    +0.000 A 
ATOM     12  C   UNL     1       1.221   8.209  20.385  0.00  0.00    +0.000 A 
ATOM     13  C   UNL     1       1.248   9.215  19.407  0.00  0.00    +0.000 A 
ATOM     14  C   UNL     1       0.619  10.442  19.620  0.00  0.00    +0.000 A 
ATOM     15  C   UNL     1      -0.066  10.696  20.813  0.00  0.00    +0.000 A 
ATOM     16  C   UNL     1      -0.707  11.919  21.055  0.00  0.00    +0.000 A 
BRANCH   7  18
ATOM     17  O   UNL     1      -2.909  13.907  21.824  0.00  0.00    +0.000 OA
ATOM     18  C   UNL     1      -2.055  13.426  22.549  0.00  0.00    +0.000 C 
BRANCH  18  19
ATOM     19  O   UNL     1      -1.603  14.032  23.667  0.00  0.00    +0.000 OA
ATOM     20  H   UNL     1      -1.362  13.423  24.390  0.00  0.00    +0.000 HD
ENDBRANCH  18  19
ENDBRANCH   7  18
ENDBRANCH   1  12
BRANCH   5  21
ATOM     21  C   UNL     1       4.949   5.579  18.239  0.00  0.00    +0.000 C 
ATOM     22  C   UNL     1       6.234   5.683  19.104  0.00  0.00    +0.000 C 
ATOM     23  C   UNL     1       7.494   5.665  18.223  0.00  0.00    +0.000 C 
ATOM     24  C   UNL     1       7.543   4.352  17.429  0.00  0.00    +0.000 C 
ATOM     25  C   UNL     1       6.307   4.238  16.529  0.00  0.00    +0.000 C 
ATOM     26  C   UNL     1       6.254   5.426  15.558  0.00  0.00    +0.000 C 
ATOM     27  C   UNL     1       6.199   6.743  16.347  0.00  0.00    +0.000 C 
ATOM     28  C   UNL     1       7.443   6.850  17.244  0.00  0.00    +0.000 C 
ATOM     29  C   UNL     1       4.935   6.761  17.227  0.00  0.00    +0.000 C 
ATOM     30  C   UNL     1       5.052   4.259  17.407  0.00  0.00    +0.000 C 
ENDBRANCH   5  21
TORSDOF 4
ENDMDL
MODEL 8
REMARK VINA RESULT:      -9.5      2.350      3.877
REMARK  Name = 
REMARK  4 active torsions:
REMARK  status: ('A' for Active; 'I' for Inactive)
REMARK    1  A    between atoms: C_2  and  O_3
REMARK    2  A    between atoms: C_2  and  C_4
REMARK    3  A    between atoms: C_9  and  C_10
REMARK    4  A    between atoms: C_14  and  C_15
REMARK                            x       y       z     vdW  Elec       q    Type
REMARK                         _______ _______ _______ _____ _____    ______ ____
ROOT
ATOM      1  C   UNL     1       1.864   6.923  20.170  0.00  0.00    +0.000 A 
ATOM      2  C   UNL     1       1.444   5.763  20.834  0.00  0.00    +0.000 A 
ATOM      3  C   UNL     1       2.128   4.571  20.679  0.00  0.00    +0.000 A 
ATOM      4  C   UNL     1       3.249   4.504  19.842  0.00  0.00    +0.000 A 
ATOM      5  C   UNL     1       3.693   5.637  19.138  0.00  0.00    +0.000 A 
ATOM      6  C   UNL     1       2.969   6.820  19.309  0.00  0.00    +0.000 A 
ENDROOT
BRANCH   1  12
ATOM      7  C   UNL     1      -1.391  12.150  22.267  0.00  0.00    +0.000 A 
ATOM      8  C   UNL     1      -1.378  11.177  23.270  0.00  0.00    +0.000 A 
ATOM      9  C   UNL     1      -0.741   9.961  23.042  0.00  0.00    +0.000 A 
ATOM     10  C   UNL     1      -0.108   9.708  21.821  0.00  0.00    +0.000 A 
ATOM     11  C   UNL     1       0.537   8.492  21.591  0.00  0.00    +0.000 A 
ATOM     12  C   UNL     1       1.200   8.216  20.384  0.00  0.00    +0.000 A 
ATOM     13  C   UNL     1       1.200   9.211  19.394  0.00  0.00    +0.000 A 
ATOM     14  C   UNL     1       0.566  10.436  19.606  0.00  0.00    +0.000 A 
ATOM     15  C   UNL     1      -0.097  10.699  20.810  0.00  0.00    +0.000 A 
ATOM     16  C   UNL     1      -0.741  11.919  21.051  0.00  0.00    +0.000 A 
BRANCH   7  18
ATOM     17  O   UNL     1      -2.876  13.946  21.795  0.00  0.00    +0.000 OA
ATOM     18  C   UNL     1      -2.072  13.434  22.554  0.00  0.00    +0.000 C 
BRANCH  18  19
ATOM     19  O   UNL     1      -1.681  14.000  23.715  0.00  0.00    +0.000 OA
ATOM     20  H   UNL     1      -2.246  13.787  24.481  0.00  0.00    +0.000 HD
ENDBRANCH  18  19
ENDBRANCH   7  18
ENDBRANCH   1  12
BRANCH   5  21
ATOM     21  C   UNL     1       4.946   5.600  18.252  0.00  0.00    +0.000 C 
ATOM     22  C   UNL     1       4.949   6.803  17.270  0.00  0.00    +0.000 C 
ATOM     23  C   UNL     1       6.187   6.768  16.360  0.00  0.00    +0.000 C 
ATOM     24  C   UNL     1       7.456   6.837  17.221  0.00  0.00    +0.000 C 
ATOM     25  C   UNL     1       7.507   5.637  18.175  0.00  0.00    +0.000 C 
ATOM     26  C   UNL     1       7.499   4.328  17.372  0.00  0.00    +0.000 C 
ATOM     27  C   UNL     1       6.229   4.251  16.512  0.00  0.00    +0.000 C 
ATOM     28  C   UNL     1       6.188   5.456  15.558  0.00  0.00    +0.000 C 
ATOM     29  C   UNL     1       4.989   4.284  17.425  0.00  0.00    +0.000 C 
ATOM     30  C   UNL     1       6.271   5.670  19.079  0.00  0.00    +0.000 C 
ENDBRANCH   5  21
TORSDOF 4
ENDMDL
MODEL 9
REMARK VINA RESULT:      -9.4      2.357      3.898
REMARK  Name = 
REMARK  4 active torsions:
REMARK  status: ('A' for Active; 'I' for Inactive)
REMARK    1  A    between atoms: C_2  and  O_3
REMARK    2  A    between atoms: C_2  and  C_4
REMARK    3  A    between atoms: C_9  and  C_10
REMARK    4  A    between atoms: C_14  and  C_15
REMARK                            x       y       z     vdW  Elec       q    Type
REMARK                         _______ _______ _______ _____ _____    ______ ____
ROOT
ATOM      1  C   UNL     1       1.883   6.931  20.186  0.00  0.00    +0.000 A 
ATOM      2  C   UNL     1       1.490   5.776  20.875  0.00  0.00    +0.000 A 
ATOM      3  C   UNL     1       2.189   4.592  20.728  0.00  0.00    +0.000 A 
ATOM      4  C   UNL     1       3.298   4.527  19.877  0.00  0.00    +0.000 A 
ATOM      5  C   UNL     1       3.715   5.655  19.148  0.00  0.00    +0.000 A 
ATOM      6  C   UNL     1       2.977   6.830  19.312  0.00  0.00    +0.000 A 
ENDROOT
BRANCH   1  12
ATOM      7  C   UNL     1      -1.431  12.138  22.243  0.00  0.00    +0.000 A 
ATOM      8  C   UNL     1      -1.404  11.174  23.255  0.00  0.00    +0.000 A 
ATOM      9  C   UNL     1      -0.752   9.964  23.037  0.00  0.00    +0.000 A 
ATOM     10  C   UNL     1      -0.119   9.707  21.817  0.00  0.00    +0.000 A 
ATOM     11  C   UNL     1       0.540   8.497  21.597  0.00  0.00    +0.000 A 
ATOM     12  C   UNL     1       1.203   8.217  20.390  0.00  0.00    +0.000 A 
ATOM     13  C   UNL     1       1.189   9.203  19.391  0.00  0.00    +0.000 A 
ATOM     14  C   UNL     1       0.540  10.422  19.593  0.00  0.00    +0.000 A 
ATOM     15  C   UNL     1      -0.123  10.688  20.796  0.00  0.00    +0.000 A 
ATOM     16  C   UNL     1      -0.782  11.903  21.027  0.00  0.00    +0.000 A 
BRANCH   7  18
ATOM     17  O   UNL     1      -1.840  14.463  21.967  0.00  0.00    +0.000 OA
ATOM     18  C   UNL     1      -2.127  13.415  22.520  0.00  0.00    +0.000 C 
BRANCH  18  19
ATOM     19  O   UNL     1      -3.077  13.313  23.473  0.00  0.00    +0.000 OA
ATOM     20  H   UNL     1      -3.701  14.062  23.506  0.00  0.00    +0.000 HD
ENDBRANCH  18  19
ENDBRANCH   7  18
ENDBRANCH   1  12
BRANCH   5  21
ATOM     21  C   UNL     1       4.956   5.622  18.245  0.00  0.00    +0.000 C 
ATOM     22  C   UNL     1       5.003   4.295  17.440  0.00  0.00    +0.000 C 
ATOM     23  C   UNL     1       6.253   4.237  16.548  0.00  0.00    +0.000 C 
ATOM     24  C   UNL     1       6.228   5.409  15.556  0.00  0.00    +0.000 C 
ATOM     25  C   UNL     1       6.225   6.739  16.319  0.00  0.00    +0.000 C 
ATOM     26  C   UNL     1       7.476   6.839  17.204  0.00  0.00    +0.000 C 
ATOM     27  C   UNL     1       7.503   5.671  18.202  0.00  0.00    +0.000 C 
ATOM     28  C   UNL     1       7.509   4.342  17.428  0.00  0.00    +0.000 C 
ATOM     29  C   UNL     1       6.252   5.732  19.097  0.00  0.00    +0.000 C 
ATOM     30  C   UNL     1       4.981   6.795  17.212  0.00  0.00    +0.000 C 
ENDBRANCH   5  21
TORSDOF 4
ENDMDL
