MODEL 1
REMARK VINA RESULT:      -9.2      0.000      0.000
REMARK  Name = 
REMARK  4 active torsions:
REMARK  status: ('A' for Active; 'I' for Inactive)
REMARK    1  A    between atoms: N_1  and  C_2
REMARK    2  A    between atoms: C_2  and  C_3
REMARK    3  A    between atoms: C_6  and  C_7
REMARK    4  A    between atoms: C_15  and  C_16
REMARK                            x       y       z     vdW  Elec       q    Type
REMARK                         _______ _______ _______ _____ _____    ______ ____
ROOT
ATOM      1  C   UNL     1       3.353   6.827  17.771  0.00  0.00    +0.000 A 
ATOM      2  N   UNL     1       4.224   7.284  16.815  0.00  0.00    +0.000 NA
ATOM      3  C   UNL     1       4.883   6.234  16.387  0.00  0.00    +0.000 A 
ATOM      4  N   UNL     1       5.889   6.194  15.463  0.00  0.00    +0.000 NA
ATOM      5  C   UNL     1       6.392   5.028  15.211  0.00  0.00    +0.000 A 
ATOM      6  C   UNL     1       5.965   3.738  15.812  0.00  0.00    +0.000 A 
ATOM      7  C   UNL     1       4.961   3.824  16.690  0.00  0.00    +0.000 A 
ATOM      8  N   UNL     1       4.419   5.073  17.013  0.00  0.00    +0.000 N 
ATOM      9  C   UNL     1       3.418   5.439  17.915  0.00  0.00    +0.000 A 
ENDROOT
BRANCH   1  13
ATOM     10  C   UNL     1       0.836   9.625  19.884  0.00  0.00    +0.000 A 
ATOM     11  C   UNL     1       1.199   9.806  18.535  0.00  0.00    +0.000 A 
ATOM     12  C   UNL     1       2.015   8.899  17.851  0.00  0.00    +0.000 A 
ATOM     13  C   UNL     1       2.504   7.759  18.495  0.00  0.00    +0.000 A 
ATOM     14  C   UNL     1       2.178   7.566  19.839  0.00  0.00    +0.000 A 
ATOM     15  C   UNL     1       1.337   8.462  20.500  0.00  0.00    +0.000 A 
BRANCH  10  16
ATOM     16  C   UNL     1      -0.061  10.655  20.667  0.00  0.00    +0.000 C 
ATOM     17  C   UNL     1       0.461  12.091  20.975  0.00  0.00    +0.000 C 
ATOM     18  C   UNL     1      -0.342  12.566  19.748  0.00  0.00    +0.000 C 
ATOM     19  C   UNL     1      -1.265  11.348  19.967  0.00  0.00    +0.000 C 
BRANCH  16  20
ATOM     20  N   UNL     1      -0.535  10.071  21.922  0.00  0.00    +0.000 NA
ATOM     21  H   UNL     1      -1.526  10.248  22.087  0.00  0.00    +0.000 HD
ATOM     22  H   UNL     1      -0.059  10.451  22.739  0.00  0.00    +0.000 HD
ENDBRANCH  16  20
ENDBRANCH  10  16
ENDBRANCH   1  13
BRANCH   9  23
ATOM     23  C   UNL     1       2.644   4.503  18.755  0.00  0.00    +0.000 A 
ATOM     24  C   UNL     1       2.980   4.261  20.095  0.00  0.00    +0.000 A 
ATOM     25  C   UNL     1       2.245   3.363  20.875  0.00  0.00    +0.000 A 
ATOM     26  C   UNL     1       1.114   2.744  20.350  0.00  0.00    +0.000 A 
ATOM     27  C   UNL     1       0.734   3.007  19.039  0.00  0.00    +0.000 A 
ATOM     28  C   UNL     1       1.509   3.854  18.240  0.00  0.00    +0.000 A 
ENDBRANCH   9  23
TORSDOF 4
ENDMDL
MODEL 2
REMARK VINA RESULT:      -9.1      0.064      1.331
REMARK  Name = 
REMARK  4 active torsions:
REMARK  status: ('A' for Active; 'I' for Inactive)
REMARK    1  A    between atoms: N_1  and  C_2
REMARK    2  A    between atoms: C_2  and  C_3
REMARK    3  A    between atoms: C_6  and  C_7
REMARK    4  A    between atoms: C_15  and  C_16
REMARK                            x       y       z     vdW  Elec       q    Type
REMARK                         _______ _______ _______ _____ _____    ______ ____
ROOT
ATOM      1  C   UNL     1       3.362   6.814  17.779  0.00  0.00    +0.000 A 
ATOM      2  N   UNL     1       4.255   7.260  16.838  0.00  0.00    +0.000 NA
ATOM      3  C   UNL     1       4.904   6.201  16.416  0.00  0.00    +0.000 A 
ATOM      4  N   UNL     1       5.923   6.147  15.507  0.00  0.00    +0.000 NA
ATOM      5  C   UNL     1       6.410   4.974  15.258  0.00  0.00    +0.000 A 
ATOM      6  C   UNL     1       5.952   3.689  15.848  0.00  0.00    +0.000 A 
ATOM      7  C   UNL     1       4.937   3.789  16.710  0.00  0.00    +0.000 A 
ATOM      8  N   UNL     1       4.411   5.046  17.030  0.00  0.00    +0.000 N 
ATOM      9  C   UNL     1       3.402   5.425  17.919  0.00  0.00    +0.000 A 
ENDROOT
BRANCH   1  13
ATOM     10  C   UNL     1       0.854   9.588  19.933  0.00  0.00    +0.000 A 
ATOM     11  C   UNL     1       1.390   8.432  20.533  0.00  0.00    +0.000 A 
ATOM     12  C   UNL     1       2.203   7.533  19.835  0.00  0.00    +0.000 A 
ATOM     13  C   UNL     1       2.518   7.758  18.493  0.00  0.00    +0.000 A 
ATOM     14  C   UNL     1       1.982   8.885  17.865  0.00  0.00    +0.000 A 
ATOM     15  C   UNL     1       1.199   9.790  18.582  0.00  0.00    +0.000 A 
BRANCH  10  16
ATOM     16  C   UNL     1      -0.083  10.590  20.706  0.00  0.00    +0.000 C 
ATOM     17  C   UNL     1       0.386  12.045  21.009  0.00  0.00    +0.000 C 
ATOM     18  C   UNL     1      -0.429  12.484  19.776  0.00  0.00    +0.000 C 
ATOM     19  C   UNL     1      -1.308  11.235  19.998  0.00  0.00    +0.000 C 
BRANCH  16  20
ATOM     20  N   UNL     1      -0.541   9.995  21.963  0.00  0.00    +0.000 NA
ATOM     21  H   UNL     1      -0.474   8.978  21.962  0.00  0.00    +0.000 HD
ATOM     22  H   UNL     1      -1.520  10.196  22.160  0.00  0.00    +0.000 HD
ENDBRANCH  16  20
ENDBRANCH  10  16
ENDBRANCH   1  13
BRANCH   9  23
ATOM     23  C   UNL     1       2.600   4.499  18.743  0.00  0.00    +0.000 A 
ATOM     24  C   UNL     1       1.487   3.823  18.224  0.00  0.00    +0.000 A 
ATOM     25  C   UNL     1       0.729   2.958  19.019  0.00  0.00    +0.000 A 
ATOM     26  C   UNL     1       1.114   2.696  20.331  0.00  0.00    +0.000 A 
ATOM     27  C   UNL     1       2.243   3.318  20.851  0.00  0.00    +0.000 A 
ATOM     28  C   UNL     1       2.961   4.233  20.075  0.00  0.00    +0.000 A 
ENDBRANCH   9  23
TORSDOF 4
ENDMDL
MODEL 3
REMARK VINA RESULT:      -9.0      1.092      1.696
REMARK  Name = 
REMARK  4 active torsions:
REMARK  status: ('A' for Active; 'I' for Inactive)
REMARK    1  A    between atoms: N_1  and  C_2
REMARK    2  A    between atoms: C_2  and  C_3
REMARK    3  A    between atoms: C_6  and  C_7
REMARK    4  A    between atoms: C_15  and  C_16
REMARK                            x       y       z     vdW  Elec       q    Type
REMARK                         _______ _______ _______ _____ _____    ______ ____
ROOT
ATOM      1  C   UNL     1       3.654   6.461  17.531  0.00  0.00    +0.000 A 
ATOM      2  N   UNL     1       4.509   7.023  16.617  0.00  0.00    +0.000 NA
ATOM      3  C   UNL     1       5.195   6.032  16.100  0.00  0.00    +0.000 A 
ATOM      4  N   UNL     1       6.199   6.100  15.174  0.00  0.00    +0.000 NA
ATOM      5  C   UNL     1       6.733   4.974  14.822  0.00  0.00    +0.000 A 
ATOM      6  C   UNL     1       6.343   3.625  15.311  0.00  0.00    +0.000 A 
ATOM      7  C   UNL     1       5.341   3.608  16.193  0.00  0.00    +0.000 A 
ATOM      8  N   UNL     1       4.766   4.810  16.624  0.00  0.00    +0.000 N 
ATOM      9  C   UNL     1       3.758   5.069  17.555  0.00  0.00    +0.000 A 
ENDROOT
BRANCH   1  13
ATOM     10  C   UNL     1       1.065   8.932  19.943  0.00  0.00    +0.000 A 
ATOM     11  C   UNL     1       1.642   7.743  20.430  0.00  0.00    +0.000 A 
ATOM     12  C   UNL     1       2.481   6.942  19.648  0.00  0.00    +0.000 A 
ATOM     13  C   UNL     1       2.782   7.304  18.333  0.00  0.00    +0.000 A 
ATOM     14  C   UNL     1       2.206   8.467  17.816  0.00  0.00    +0.000 A 
ATOM     15  C   UNL     1       1.397   9.273  18.617  0.00  0.00    +0.000 A 
BRANCH  10  16
ATOM     16  C   UNL     1       0.099   9.824  20.810  0.00  0.00    +0.000 C 
ATOM     17  C   UNL     1      -0.718   9.203  21.982  0.00  0.00    +0.000 C 
ATOM     18  C   UNL     1       0.373   9.744  22.929  0.00  0.00    +0.000 C 
ATOM     19  C   UNL     1       0.670  10.818  21.861  0.00  0.00    +0.000 C 
BRANCH  16  20
ATOM     20  N   UNL     1      -0.834  10.553  19.949  0.00  0.00    +0.000 NA
ATOM     21  H   UNL     1      -1.098  11.459  20.337  0.00  0.00    +0.000 HD
ATOM     22  H   UNL     1      -1.714  10.057  19.812  0.00  0.00    +0.000 HD
ENDBRANCH  16  20
ENDBRANCH  10  16
ENDBRANCH   1  13
BRANCH   9  23
ATOM     23  C   UNL     1       3.013   4.043  18.312  0.00  0.00    +0.000 A 
ATOM     24  C   UNL     1       3.534   3.458  19.475  0.00  0.00    +0.000 A 
ATOM     25  C   UNL     1       2.822   2.479  20.175  0.00  0.00    +0.000 A 
ATOM     26  C   UNL     1       1.542   2.118  19.766  0.00  0.00    +0.000 A 
ATOM     27  C   UNL     1       0.985   2.721  18.643  0.00  0.00    +0.000 A 
ATOM     28  C   UNL     1       1.725   3.651  17.907  0.00  0.00    +0.000 A 
ENDBRANCH   9  23
TORSDOF 4
ENDMDL
MODEL 4
REMARK VINA RESULT:      -8.9      0.827      1.359
REMARK  Name = 
REMARK  4 active torsions:
REMARK  status: ('A' for Active; 'I' for Inactive)
REMARK    1  A    between atoms: N_1  and  C_2
REMARK    2  A    between atoms: C_2  and  C_3
REMARK    3  A    between atoms: C_6  and  C_7
REMARK    4  A    between atoms: C_15  and  C_16
REMARK                            x       y       z     vdW  Elec       q    Type
REMARK                         _______ _______ _______ _____ _____    ______ ____
ROOT
ATOM      1  C   UNL     1       3.224   7.086  17.916  0.00  0.00    +0.000 A 
ATOM      2  N   UNL     1       4.168   7.497  17.009  0.00  0.00    +0.000 NA
ATOM      3  C   UNL     1       4.904   6.444  16.743  0.00  0.00    +0.000 A 
ATOM      4  N   UNL     1       5.997   6.370  15.926  0.00  0.00    +0.000 NA
ATOM      5  C   UNL     1       6.564   5.210  15.829  0.00  0.00    +0.000 A 
ATOM      6  C   UNL     1       6.126   3.959  16.500  0.00  0.00    +0.000 A 
ATOM      7  C   UNL     1       5.038   4.076  17.266  0.00  0.00    +0.000 A 
ATOM      8  N   UNL     1       4.422   5.323  17.423  0.00  0.00    +0.000 N 
ATOM      9  C   UNL     1       3.324   5.720  18.189  0.00  0.00    +0.000 A 
ENDROOT
BRANCH   1  13
ATOM     10  C   UNL     1       0.407   9.937  19.516  0.00  0.00    +0.000 A 
ATOM     11  C   UNL     1       0.774   9.920  18.156  0.00  0.00    +0.000 A 
ATOM     12  C   UNL     1       1.687   8.996  17.638  0.00  0.00    +0.000 A 
ATOM     13  C   UNL     1       2.275   8.038  18.468  0.00  0.00    +0.000 A 
ATOM     14  C   UNL     1       1.946   8.046  19.825  0.00  0.00    +0.000 A 
ATOM     15  C   UNL     1       1.009   8.953  20.323  0.00  0.00    +0.000 A 
BRANCH  10  16
ATOM     16  C   UNL     1      -0.600  10.991  20.110  0.00  0.00    +0.000 C 
ATOM     17  C   UNL     1      -0.896  11.036  21.639  0.00  0.00    +0.000 C 
ATOM     18  C   UNL     1       0.120  12.194  21.725  0.00  0.00    +0.000 C 
ATOM     19  C   UNL     1      -0.194  12.487  20.243  0.00  0.00    +0.000 C 
BRANCH  16  20
ATOM     20  N   UNL     1      -1.883  10.926  19.407  0.00  0.00    +0.000 NA
ATOM     21  H   UNL     1      -1.781  11.028  18.397  0.00  0.00    +0.000 HD
ATOM     22  H   UNL     1      -2.523  11.669  19.685  0.00  0.00    +0.000 HD
ENDBRANCH  16  20
ENDBRANCH  10  16
ENDBRANCH   1  13
BRANCH   9  23
ATOM     23  C   UNL     1       2.505   4.826  19.032  0.00  0.00    +0.000 A 
ATOM     24  C   UNL     1       1.517   3.995  18.485  0.00  0.00    +0.000 A 
ATOM     25  C   UNL     1       0.740   3.162  19.296  0.00  0.00    +0.000 A 
ATOM     26  C   UNL     1       0.987   3.090  20.664  0.00  0.00    +0.000 A 
ATOM     27  C   UNL     1       1.995   3.869  21.221  0.00  0.00    +0.000 A 
ATOM     28  C   UNL     1       2.726   4.751  20.418  0.00  0.00    +0.000 A 
ENDBRANCH   9  23
TORSDOF 4
ENDMDL
MODEL 5
REMARK VINA RESULT:      -8.9      1.012      1.624
REMARK  Name = 
REMARK  4 active torsions:
REMARK  status: ('A' for Active; 'I' for Inactive)
REMARK    1  A    between atoms: N_1  and  C_2
REMARK    2  A    between atoms: C_2  and  C_3
REMARK    3  A    between atoms: C_6  and  C_7
REMARK    4  A    between atoms: C_15  and  C_16
REMARK                            x       y       z     vdW  Elec       q    Type
REMARK                         _______ _______ _______ _____ _____    ______ ____
ROOT
ATOM      1  C   UNL     1       3.600   6.505  17.564  0.00  0.00    +0.000 A 
ATOM      2  N   UNL     1       4.471   7.058  16.660  0.00  0.00    +0.000 NA
ATOM      3  C   UNL     1       5.163   6.062  16.161  0.00  0.00    +0.000 A 
ATOM      4  N   UNL     1       6.182   6.121  15.251  0.00  0.00    +0.000 NA
ATOM      5  C   UNL     1       6.718   4.992  14.915  0.00  0.00    +0.000 A 
ATOM      6  C   UNL     1       6.318   3.648  15.407  0.00  0.00    +0.000 A 
ATOM      7  C   UNL     1       5.301   3.639  16.273  0.00  0.00    +0.000 A 
ATOM      8  N   UNL     1       4.722   4.845  16.686  0.00  0.00    +0.000 N 
ATOM      9  C   UNL     1       3.701   5.112  17.600  0.00  0.00    +0.000 A 
ENDROOT
BRANCH   1  13
ATOM     10  C   UNL     1       0.982   9.061  19.852  0.00  0.00    +0.000 A 
ATOM     11  C   UNL     1       1.320   9.332  18.512  0.00  0.00    +0.000 A 
ATOM     12  C   UNL     1       2.169   8.504  17.771  0.00  0.00    +0.000 A 
ATOM     13  C   UNL     1       2.718   7.355  18.346  0.00  0.00    +0.000 A 
ATOM     14  C   UNL     1       2.418   7.074  19.681  0.00  0.00    +0.000 A 
ATOM     15  C   UNL     1       1.544   7.892  20.399  0.00  0.00    +0.000 A 
BRANCH  10  16
ATOM     16  C   UNL     1       0.048  10.004  20.699  0.00  0.00    +0.000 C 
ATOM     17  C   UNL     1      -0.778   9.441  21.894  0.00  0.00    +0.000 C 
ATOM     18  C   UNL     1       0.334   9.977  22.818  0.00  0.00    +0.000 C 
ATOM     19  C   UNL     1       0.654  11.011  21.719  0.00  0.00    +0.000 C 
BRANCH  16  20
ATOM     20  N   UNL     1      -0.870  10.736  19.824  0.00  0.00    +0.000 NA
ATOM     21  H   UNL     1      -0.413  11.502  19.331  0.00  0.00    +0.000 HD
ATOM     22  H   UNL     1      -1.638  11.170  20.334  0.00  0.00    +0.000 HD
ENDBRANCH  16  20
ENDBRANCH  10  16
ENDBRANCH   1  13
BRANCH   9  23
ATOM     23  C   UNL     1       2.941   4.093  18.352  0.00  0.00    +0.000 A 
ATOM     24  C   UNL     1       1.691   3.632  17.915  0.00  0.00    +0.000 A 
ATOM     25  C   UNL     1       0.978   2.675  18.644  0.00  0.00    +0.000 A 
ATOM     26  C   UNL     1       1.534   2.107  19.786  0.00  0.00    +0.000 A 
ATOM     27  C   UNL     1       2.794   2.514  20.210  0.00  0.00    +0.000 A 
ATOM     28  C   UNL     1       3.477   3.519  19.517  0.00  0.00    +0.000 A 
ENDBRANCH   9  23
TORSDOF 4
ENDMDL
MODEL 6
REMARK VINA RESULT:      -8.2      2.296      4.052
REMARK  Name = 
REMARK  4 active torsions:
REMARK  status: ('A' for Active; 'I' for Inactive)
REMARK    1  A    between atoms: N_1  and  C_2
REMARK    2  A    between atoms: C_2  and  C_3
REMARK    3  A    between atoms: C_6  and  C_7
REMARK    4  A    between atoms: C_15  and  C_16
REMARK                            x       y       z     vdW  Elec       q    Type
REMARK                         _______ _______ _______ _____ _____    ______ ____
ROOT
ATOM      1  C   UNL     1       2.449   5.790  18.826  0.00  0.00    +0.000 A 
ATOM      2  N   UNL     1       1.448   4.873  19.024  0.00  0.00    +0.000 NA
ATOM      3  C   UNL     1       1.999   3.692  18.878  0.00  0.00    +0.000 A 
ATOM      4  N   UNL     1       1.392   2.469  18.941  0.00  0.00    +0.000 NA
ATOM      5  C   UNL     1       2.154   1.439  18.755  0.00  0.00    +0.000 A 
ATOM      6  C   UNL     1       3.618   1.462  18.503  0.00  0.00    +0.000 A 
ATOM      7  C   UNL     1       4.171   2.678  18.477  0.00  0.00    +0.000 A 
ATOM      8  N   UNL     1       3.371   3.815  18.638  0.00  0.00    +0.000 N 
ATOM      9  C   UNL     1       3.683   5.176  18.605  0.00  0.00    +0.000 A 
ENDROOT
BRANCH   1  13
ATOM     10  C   UNL     1       1.561  10.011  18.971  0.00  0.00    +0.000 A 
ATOM     11  C   UNL     1       1.503   9.188  20.113  0.00  0.00    +0.000 A 
ATOM     12  C   UNL     1       1.790   7.820  20.065  0.00  0.00    +0.000 A 
ATOM     13  C   UNL     1       2.155   7.214  18.860  0.00  0.00    +0.000 A 
ATOM     14  C   UNL     1       2.199   8.002  17.708  0.00  0.00    +0.000 A 
ATOM     15  C   UNL     1       1.941   9.371  17.776  0.00  0.00    +0.000 A 
BRANCH  10  16
ATOM     16  C   UNL     1       1.213  11.546  19.014  0.00  0.00    +0.000 C 
ATOM     17  C   UNL     1      -0.245  12.039  18.767  0.00  0.00    +0.000 C 
ATOM     18  C   UNL     1      -0.395  12.124  20.300  0.00  0.00    +0.000 C 
ATOM     19  C   UNL     1       1.136  12.303  20.371  0.00  0.00    +0.000 C 
BRANCH  16  20
ATOM     20  N   UNL     1       2.097  12.296  18.120  0.00  0.00    +0.000 NA
ATOM     21  H   UNL     1       2.938  12.629  18.591  0.00  0.00    +0.000 HD
ATOM     22  H   UNL     1       1.657  13.134  17.742  0.00  0.00    +0.000 HD
ENDBRANCH  16  20
ENDBRANCH  10  16
ENDBRANCH   1  13
BRANCH   9  23
ATOM     23  C   UNL     1       5.036   5.735  18.410  0.00  0.00    +0.000 A 
ATOM     24  C   UNL     1       6.106   5.391  19.249  0.00  0.00    +0.000 A 
ATOM     25  C   UNL     1       7.379   5.937  19.059  0.00  0.00    +0.000 A 
ATOM     26  C   UNL     1       7.624   6.783  17.982  0.00  0.00    +0.000 A 
ATOM     27  C   UNL     1       6.589   7.099  17.108  0.00  0.00    +0.000 A 
ATOM     28  C   UNL     1       5.302   6.604  17.338  0.00  0.00    +0.000 A 
ENDBRANCH   9  23
TORSDOF 4
ENDMDL
MODEL 7
REMARK VINA RESULT:      -8.1      2.304      4.055
REMARK  Name = 
REMARK  4 active torsions:
REMARK  status: ('A' for Active; 'I' for Inactive)
REMARK    1  A    between atoms: N_1  and  C_2
REMARK    2  A    between atoms: C_2  and  C_3
REMARK    3  A    between atoms: C_6  and  C_7
REMARK    4  A    between atoms: C_15  and  C_16
REMARK                            x       y       z     vdW  Elec       q    Type
REMARK                         _______ _______ _______ _____ _____    ______ ____
ROOT
ATOM      1  C   UNL     1       2.437   5.775  18.841  0.00  0.00    +0.000 A 
ATOM      2  N   UNL     1       1.438   4.860  19.059  0.00  0.00    +0.000 NA
ATOM      3  C   UNL     1       1.982   3.677  18.898  0.00  0.00    +0.000 A 
ATOM      4  N   UNL     1       1.372   2.456  18.971  0.00  0.00    +0.000 NA
ATOM      5  C   UNL     1       2.127   1.424  18.765  0.00  0.00    +0.000 A 
ATOM      6  C   UNL     1       3.585   1.444  18.481  0.00  0.00    +0.000 A 
ATOM      7  C   UNL     1       4.141   2.658  18.446  0.00  0.00    +0.000 A 
ATOM      8  N   UNL     1       3.348   3.797  18.627  0.00  0.00    +0.000 N 
ATOM      9  C   UNL     1       3.664   5.157  18.591  0.00  0.00    +0.000 A 
ENDROOT
BRANCH   1  13
ATOM     10  C   UNL     1       1.596  10.006  18.932  0.00  0.00    +0.000 A 
ATOM     11  C   UNL     1       1.955   9.334  17.748  0.00  0.00    +0.000 A 
ATOM     12  C   UNL     1       2.228   7.962  17.719  0.00  0.00    +0.000 A 
ATOM     13  C   UNL     1       2.148   7.199  18.886  0.00  0.00    +0.000 A 
ATOM     14  C   UNL     1       1.816   7.844  20.079  0.00  0.00    +0.000 A 
ATOM     15  C   UNL     1       1.515   9.206  20.088  0.00  0.00    +0.000 A 
BRANCH  10  16
ATOM     16  C   UNL     1       1.313  11.555  18.976  0.00  0.00    +0.000 C 
ATOM     17  C   UNL     1      -0.132  12.105  18.780  0.00  0.00    +0.000 C 
ATOM     18  C   UNL     1      -0.222  12.206  20.316  0.00  0.00    +0.000 C 
ATOM     19  C   UNL     1       1.317  12.322  20.330  0.00  0.00    +0.000 C 
BRANCH  16  20
ATOM     20  N   UNL     1       2.193  12.263  18.046  0.00  0.00    +0.000 NA
ATOM     21  H   UNL     1       2.866  11.643  17.596  0.00  0.00    +0.000 HD
ATOM     22  H   UNL     1       2.757  12.978  18.503  0.00  0.00    +0.000 HD
ENDBRANCH  16  20
ENDBRANCH  10  16
ENDBRANCH   1  13
BRANCH   9  23
ATOM     23  C   UNL     1       5.014   5.712  18.368  0.00  0.00    +0.000 A 
ATOM     24  C   UNL     1       5.279   6.616  17.330  0.00  0.00    +0.000 A 
ATOM     25  C   UNL     1       6.565   7.125  17.123  0.00  0.00    +0.000 A 
ATOM     26  C   UNL     1       7.597   6.796  17.997  0.00  0.00    +0.000 A 
ATOM     27  C   UNL     1       7.345   5.939  19.063  0.00  0.00    +0.000 A 
ATOM     28  C   UNL     1       6.074   5.379  19.228  0.00  0.00    +0.000 A 
ENDBRANCH   9  23
TORSDOF 4
ENDMDL
MODEL 8
REMARK VINA RESULT:      -8.1      4.232      6.196
REMARK  Name = 
REMARK  4 active torsions:
REMARK  status: ('A' for Active; 'I' for Inactive)
REMARK    1  A    between atoms: N_1  and  C_2
REMARK    2  A    between atoms: C_2  and  C_3
REMARK    3  A    between atoms: C_6  and  C_7
REMARK    4  A    between atoms: C_15  and  C_16
REMARK                            x       y       z     vdW  Elec       q    Type
REMARK                         _______ _______ _______ _____ _____    ______ ____
ROOT
ATOM      1  C   UNL     1       5.281   4.165  15.595  0.00  0.00    +0.000 A 
ATOM      2  N   UNL     1       5.127   3.596  14.357  0.00  0.00    +0.000 NA
ATOM      3  C   UNL     1       6.095   4.072  13.611  0.00  0.00    +0.000 A 
ATOM      4  N   UNL     1       6.331   3.828  12.287  0.00  0.00    +0.000 NA
ATOM      5  C   UNL     1       7.356   4.425  11.767  0.00  0.00    +0.000 A 
ATOM      6  C   UNL     1       8.302   5.326  12.476  0.00  0.00    +0.000 A 
ATOM      7  C   UNL     1       8.045   5.512  13.773  0.00  0.00    +0.000 A 
ATOM      8  N   UNL     1       6.925   4.911  14.359  0.00  0.00    +0.000 N 
ATOM      9  C   UNL     1       6.413   4.981  15.657  0.00  0.00    +0.000 A 
ENDROOT
BRANCH   1  13
ATOM     10  C   UNL     1       2.434   3.387  18.743  0.00  0.00    +0.000 A 
ATOM     11  C   UNL     1       2.683   4.684  18.255  0.00  0.00    +0.000 A 
ATOM     12  C   UNL     1       3.606   4.936  17.234  0.00  0.00    +0.000 A 
ATOM     13  C   UNL     1       4.323   3.888  16.653  0.00  0.00    +0.000 A 
ATOM     14  C   UNL     1       4.113   2.594  17.134  0.00  0.00    +0.000 A 
ATOM     15  C   UNL     1       3.166   2.353  18.130  0.00  0.00    +0.000 A 
BRANCH  10  16
ATOM     16  C   UNL     1       1.415   3.101  19.909  0.00  0.00    +0.000 C 
ATOM     17  C   UNL     1       1.829   2.228  21.132  0.00  0.00    +0.000 C 
ATOM     18  C   UNL     1       2.083   3.546  21.892  0.00  0.00    +0.000 C 
ATOM     19  C   UNL     1       1.062   4.209  20.943  0.00  0.00    +0.000 C 
BRANCH  16  20
ATOM     20  N   UNL     1       0.164   2.559  19.375  0.00  0.00    +0.000 NA
ATOM     21  H   UNL     1       0.214   1.555  19.203  0.00  0.00    +0.000 HD
ATOM     22  H   UNL     1      -0.090   2.969  18.477  0.00  0.00    +0.000 HD
ENDBRANCH  16  20
ENDBRANCH  10  16
ENDBRANCH   1  13
BRANCH   9  23
ATOM     23  C   UNL     1       7.017   5.738  16.772  0.00  0.00    +0.000 A 
ATOM     24  C   UNL     1       7.510   5.098  17.918  0.00  0.00    +0.000 A 
ATOM     25  C   UNL     1       8.069   5.829  18.971  0.00  0.00    +0.000 A 
ATOM     26  C   UNL     1       8.211   7.209  18.867  0.00  0.00    +0.000 A 
ATOM     27  C   UNL     1       7.774   7.859  17.718  0.00  0.00    +0.000 A 
ATOM     28  C   UNL     1       7.155   7.134  16.694  0.00  0.00    +0.000 A 
ENDBRANCH   9  23
TORSDOF 4
ENDMDL
MODEL 9
REMARK VINA RESULT:      -8.1      4.237      6.261
REMARK  Name = 
REMARK  4 active torsions:
REMARK  status: ('A' for Active; 'I' for Inactive)
REMARK    1  A    between atoms: N_1  and  C_2
REMARK    2  A    between atoms: C_2  and  C_3
REMARK    3  A    between atoms: C_6  and  C_7
REMARK    4  A    between atoms: C_15  and  C_16
REMARK                            x       y       z     vdW  Elec       q    Type
REMARK                         _______ _______ _______ _____ _____    ______ ____
ROOT
ATOM      1  C   UNL     1       5.292   4.195  15.588  0.00  0.00    +0.000 A 
ATOM      2  N   UNL     1       5.120   3.616  14.356  0.00  0.00    +0.000 NA
ATOM      3  C   UNL     1       6.084   4.078  13.596  0.00  0.00    +0.000 A 
ATOM      4  N   UNL     1       6.304   3.821  12.271  0.00  0.00    +0.000 NA
ATOM      5  C   UNL     1       7.327   4.406  11.735  0.00  0.00    +0.000 A 
ATOM      6  C   UNL     1       8.288   5.305  12.426  0.00  0.00    +0.000 A 
ATOM      7  C   UNL     1       8.047   5.504  13.725  0.00  0.00    +0.000 A 
ATOM      8  N   UNL     1       6.928   4.917  14.328  0.00  0.00    +0.000 N 
ATOM      9  C   UNL     1       6.431   5.002  15.630  0.00  0.00    +0.000 A 
ENDROOT
BRANCH   1  13
ATOM     10  C   UNL     1       2.477   3.378  18.755  0.00  0.00    +0.000 A 
ATOM     11  C   UNL     1       3.164   2.354  18.073  0.00  0.00    +0.000 A 
ATOM     12  C   UNL     1       4.076   2.620  17.047  0.00  0.00    +0.000 A 
ATOM     13  C   UNL     1       4.343   3.935  16.658  0.00  0.00    +0.000 A 
ATOM     14  C   UNL     1       3.659   4.968  17.302  0.00  0.00    +0.000 A 
ATOM     15  C   UNL     1       2.776   4.691  18.346  0.00  0.00    +0.000 A 
BRANCH  10  16
ATOM     16  C   UNL     1       1.430   3.084  19.894  0.00  0.00    +0.000 C 
ATOM     17  C   UNL     1       1.822   2.223  21.132  0.00  0.00    +0.000 C 
ATOM     18  C   UNL     1       2.038   3.548  21.891  0.00  0.00    +0.000 C 
ATOM     19  C   UNL     1       1.035   4.193  20.911  0.00  0.00    +0.000 C 
BRANCH  16  20
ATOM     20  N   UNL     1       0.202   2.523  19.328  0.00  0.00    +0.000 NA
ATOM     21  H   UNL     1      -0.477   2.264  20.044  0.00  0.00    +0.000 HD
ATOM     22  H   UNL     1       0.367   1.668  18.799  0.00  0.00    +0.000 HD
ENDBRANCH  16  20
ENDBRANCH  10  16
ENDBRANCH   1  13
BRANCH   9  23
ATOM     23  C   UNL     1       7.052   5.764  16.732  0.00  0.00    +0.000 A 
ATOM     24  C   UNL     1       7.176   7.159  16.688  0.00  0.00    +0.000 A 
ATOM     25  C   UNL     1       7.778   7.867  17.733  0.00  0.00    +0.000 A 
ATOM     26  C   UNL     1       8.202   7.198  18.877  0.00  0.00    +0.000 A 
ATOM     27  C   UNL     1       8.044   5.819  18.964  0.00  0.00    +0.000 A 
ATOM     28  C   UNL     1       7.503   5.106  17.889  0.00  0.00    +0.000 A 
ENDBRANCH   9  23
TORSDOF 4
ENDMDL
