MODEL 1
REMARK VINA RESULT:      -7.7      0.000      0.000
REMARK  Name = 
REMARK  8 active torsions:
REMARK  status: ('A' for Active; 'I' for Inactive)
REMARK    1  A    between atoms: C_1  and  O_2
REMARK    2  A    between atoms: O_2  and  C_3
REMARK    3  A    between atoms: C_6  and  C_7
REMARK    4  A    between atoms: N_9  and  C_10
REMARK    5  A    between atoms: C_10  and  C_11
REMARK    6  A    between atoms: N_13  and  O_14
REMARK    7  A    between atoms: C_16  and  O_17
REMARK    8  A    between atoms: O_17  and  C_18
REMARK                            x       y       z     vdW  Elec       q    Type
REMARK                         _______ _______ _______ _____ _____    ______ ____
ROOT
ATOM      1  C   UNL     1       4.664   5.655  18.334  0.00  0.00    +0.000 A 
ATOM      2  C   UNL     1       5.219   6.671  17.533  0.00  0.00    +0.000 A 
ATOM      3  C   UNL     1       5.854   6.380  16.330  0.00  0.00    +0.000 A 
ATOM      4  C   UNL     1       5.986   5.057  15.910  0.00  0.00    +0.000 A 
ATOM      5  C   UNL     1       5.534   4.035  16.747  0.00  0.00    +0.000 A 
ATOM      6  C   UNL     1       4.873   4.318  17.969  0.00  0.00    +0.000 A 
ENDROOT
BRANCH   4   7
ATOM      7  C   UNL     1       6.599   4.836  14.567  0.00  0.00    +0.000 C 
ATOM      8  O   UNL     1       7.611   5.456  14.244  0.00  0.00    +0.000 OA
ATOM      9  N   UNL     1       6.008   3.941  13.706  0.00  0.00    +0.000 N 
ATOM     10  H   UNL     1       5.190   3.396  13.946  0.00  0.00    +0.000 HD
BRANCH   9  11
ATOM     11  C   UNL     1       6.611   3.704  12.410  0.00  0.00    +0.000 C 
BRANCH  11  12
ATOM     12  C   UNL     1       5.935   2.562  11.673  0.00  0.00    +0.000 C 
ATOM     13  O   UNL     1       4.752   2.572  11.332  0.00  0.00    +0.000 OA
ATOM     14  N   UNL     1       6.762   1.490  11.433  0.00  0.00    +0.000 N 
ATOM     15  H   UNL     1       7.774   1.551  11.447  0.00  0.00    +0.000 HD
BRANCH  14  16
ATOM     16  O   UNL     1       6.202   0.438  10.673  0.00  0.00    +0.000 OA
ATOM     17  H   UNL     1       6.535   0.625   9.767  0.00  0.00    +0.000 HD
ENDBRANCH  14  16
ENDBRANCH  11  12
ENDBRANCH   9  11
ENDBRANCH   4   7
BRANCH   1  19
ATOM     18  C   UNL     1       2.626   6.466  19.194  0.00  0.00    +0.000 C 
ATOM     19  O   UNL     1       3.948   5.974  19.457  0.00  0.00    +0.000 OA
ENDBRANCH   1  19
BRANCH   6  20
ATOM     20  O   UNL     1       4.574   3.161  18.625  0.00  0.00    +0.000 OA
BRANCH  20  21
ATOM     21  C   UNL     1       3.296   2.588  18.842  0.00  0.00    +0.000 C 
ATOM     22  C   UNL     1       2.759   2.695  20.259  0.00  0.00    +0.000 C 
ATOM     23  C   UNL     1       1.255   2.506  20.125  0.00  0.00    +0.000 C 
ATOM     24  C   UNL     1       0.885   2.859  18.688  0.00  0.00    +0.000 C 
ATOM     25  C   UNL     1       2.174   2.944  17.878  0.00  0.00    +0.000 C 
ENDBRANCH  20  21
ENDBRANCH   6  20
TORSDOF 7
ENDMDL
MODEL 2
REMARK VINA RESULT:      -7.6      0.992      1.231
REMARK  Name = 
REMARK  8 active torsions:
REMARK  status: ('A' for Active; 'I' for Inactive)
REMARK    1  A    between atoms: C_1  and  O_2
REMARK    2  A    between atoms: O_2  and  C_3
REMARK    3  A    between atoms: C_6  and  C_7
REMARK    4  A    between atoms: N_9  and  C_10
REMARK    5  A    between atoms: C_10  and  C_11
REMARK    6  A    between atoms: N_13  and  O_14
REMARK    7  A    between atoms: C_16  and  O_17
REMARK    8  A    between atoms: O_17  and  C_18
REMARK                            x       y       z     vdW  Elec       q    Type
REMARK                         _______ _______ _______ _____ _____    ______ ____
ROOT
ATOM      1  C   UNL     1       4.217   5.786  18.507  0.00  0.00    +0.000 A 
ATOM      2  C   UNL     1       4.638   6.735  17.557  0.00  0.00    +0.000 A 
ATOM      3  C   UNL     1       5.352   6.359  16.424  0.00  0.00    +0.000 A 
ATOM      4  C   UNL     1       5.700   5.024  16.226  0.00  0.00    +0.000 A 
ATOM      5  C   UNL     1       5.380   4.090  17.215  0.00  0.00    +0.000 A 
ATOM      6  C   UNL     1       4.641   4.457  18.367  0.00  0.00    +0.000 A 
ENDROOT
BRANCH   4   7
ATOM      7  C   UNL     1       6.387   4.691  14.944  0.00  0.00    +0.000 C 
ATOM      8  O   UNL     1       7.548   5.047  14.758  0.00  0.00    +0.000 OA
ATOM      9  N   UNL     1       5.695   3.992  13.982  0.00  0.00    +0.000 N 
ATOM     10  H   UNL     1       4.746   3.661  14.109  0.00  0.00    +0.000 HD
BRANCH   9  11
ATOM     11  C   UNL     1       6.362   3.644  12.744  0.00  0.00    +0.000 C 
BRANCH  11  12
ATOM     12  C   UNL     1       5.446   2.884  11.802  0.00  0.00    +0.000 C 
ATOM     13  O   UNL     1       5.702   1.769  11.348  0.00  0.00    +0.000 OA
ATOM     14  N   UNL     1       4.295   3.565  11.479  0.00  0.00    +0.000 N 
ATOM     15  H   UNL     1       3.928   4.334  12.028  0.00  0.00    +0.000 HD
BRANCH  14  16
ATOM     16  O   UNL     1       3.369   2.863  10.673  0.00  0.00    +0.000 OA
ATOM     17  H   UNL     1       2.745   3.569  10.397  0.00  0.00    +0.000 HD
ENDBRANCH  14  16
ENDBRANCH  11  12
ENDBRANCH   9  11
ENDBRANCH   4   7
BRANCH   1  19
ATOM     18  C   UNL     1       2.328   7.017  19.189  0.00  0.00    +0.000 C 
ATOM     19  O   UNL     1       3.422   6.164  19.555  0.00  0.00    +0.000 OA
ENDBRANCH   1  19
BRANCH   6  20
ATOM     20  O   UNL     1       4.500   3.388  19.200  0.00  0.00    +0.000 OA
BRANCH  20  21
ATOM     21  C   UNL     1       3.299   2.759  19.614  0.00  0.00    +0.000 C 
ATOM     22  C   UNL     1       2.789   3.154  20.990  0.00  0.00    +0.000 C 
ATOM     23  C   UNL     1       1.313   2.787  20.983  0.00  0.00    +0.000 C 
ATOM     24  C   UNL     1       0.870   2.737  19.523  0.00  0.00    +0.000 C 
ATOM     25  C   UNL     1       2.121   2.752  18.651  0.00  0.00    +0.000 C 
ENDBRANCH  20  21
ENDBRANCH   6  20
TORSDOF 7
ENDMDL
MODEL 3
REMARK VINA RESULT:      -7.6      1.177      1.438
REMARK  Name = 
REMARK  8 active torsions:
REMARK  status: ('A' for Active; 'I' for Inactive)
REMARK    1  A    between atoms: C_1  and  O_2
REMARK    2  A    between atoms: O_2  and  C_3
REMARK    3  A    between atoms: C_6  and  C_7
REMARK    4  A    between atoms: N_9  and  C_10
REMARK    5  A    between atoms: C_10  and  C_11
REMARK    6  A    between atoms: N_13  and  O_14
REMARK    7  A    between atoms: C_16  and  O_17
REMARK    8  A    between atoms: O_17  and  C_18
REMARK                            x       y       z     vdW  Elec       q    Type
REMARK                         _______ _______ _______ _____ _____    ______ ____
ROOT
ATOM      1  C   UNL     1       3.059   5.622  17.991  0.00  0.00    +0.000 A 
ATOM      2  C   UNL     1       4.081   6.498  17.582  0.00  0.00    +0.000 A 
ATOM      3  C   UNL     1       5.041   6.108  16.653  0.00  0.00    +0.000 A 
ATOM      4  C   UNL     1       5.029   4.814  16.134  0.00  0.00    +0.000 A 
ATOM      5  C   UNL     1       4.084   3.904  16.614  0.00  0.00    +0.000 A 
ATOM      6  C   UNL     1       3.092   4.292  17.549  0.00  0.00    +0.000 A 
ENDROOT
BRANCH   4   7
ATOM      7  C   UNL     1       6.037   4.504  15.078  0.00  0.00    +0.000 C 
ATOM      8  O   UNL     1       7.237   4.576  15.334  0.00  0.00    +0.000 OA
ATOM      9  N   UNL     1       5.597   4.148  13.824  0.00  0.00    +0.000 N 
ATOM     10  H   UNL     1       4.618   4.055  13.584  0.00  0.00    +0.000 HD
BRANCH   9  11
ATOM     11  C   UNL     1       6.569   3.822  12.801  0.00  0.00    +0.000 C 
BRANCH  11  12
ATOM     12  C   UNL     1       6.067   2.730  11.873  0.00  0.00    +0.000 C 
ATOM     13  O   UNL     1       4.907   2.653  11.470  0.00  0.00    +0.000 OA
ATOM     14  N   UNL     1       7.029   1.808  11.530  0.00  0.00    +0.000 N 
ATOM     15  H   UNL     1       8.025   1.984  11.610  0.00  0.00    +0.000 HD
BRANCH  14  16
ATOM     16  O   UNL     1       6.632   0.822  10.599  0.00  0.00    +0.000 OA
ATOM     17  H   UNL     1       6.169   0.165  11.164  0.00  0.00    +0.000 HD
ENDBRANCH  14  16
ENDBRANCH  11  12
ENDBRANCH   9  11
ENDBRANCH   4   7
BRANCH   1  19
ATOM     18  C   UNL     1       2.508   6.436  20.132  0.00  0.00    +0.000 C 
ATOM     19  O   UNL     1       2.063   6.063  18.820  0.00  0.00    +0.000 OA
ENDBRANCH   1  19
BRANCH   6  20
ATOM     20  O   UNL     1       2.324   3.222  17.897  0.00  0.00    +0.000 OA
BRANCH  20  21
ATOM     21  C   UNL     1       2.152   2.653  19.184  0.00  0.00    +0.000 C 
ATOM     22  C   UNL     1       3.349   2.755  20.114  0.00  0.00    +0.000 C 
ATOM     23  C   UNL     1       2.777   2.573  21.512  0.00  0.00    +0.000 C 
ATOM     24  C   UNL     1       1.296   2.933  21.442  0.00  0.00    +0.000 C 
ATOM     25  C   UNL     1       0.902   3.017  19.971  0.00  0.00    +0.000 C 
ENDBRANCH  20  21
ENDBRANCH   6  20
TORSDOF 7
ENDMDL
MODEL 4
REMARK VINA RESULT:      -7.4      4.125      7.645
REMARK  Name = 
REMARK  8 active torsions:
REMARK  status: ('A' for Active; 'I' for Inactive)
REMARK    1  A    between atoms: C_1  and  O_2
REMARK    2  A    between atoms: O_2  and  C_3
REMARK    3  A    between atoms: C_6  and  C_7
REMARK    4  A    between atoms: N_9  and  C_10
REMARK    5  A    between atoms: C_10  and  C_11
REMARK    6  A    between atoms: N_13  and  O_14
REMARK    7  A    between atoms: C_16  and  O_17
REMARK    8  A    between atoms: O_17  and  C_18
REMARK                            x       y       z     vdW  Elec       q    Type
REMARK                         _______ _______ _______ _____ _____    ______ ____
ROOT
ATOM      1  C   UNL     1       4.482   4.849  17.136  0.00  0.00    +0.000 A 
ATOM      2  C   UNL     1       4.886   6.175  16.891  0.00  0.00    +0.000 A 
ATOM      3  C   UNL     1       4.110   7.256  17.299  0.00  0.00    +0.000 A 
ATOM      4  C   UNL     1       2.887   7.041  17.931  0.00  0.00    +0.000 A 
ATOM      5  C   UNL     1       2.427   5.731  18.082  0.00  0.00    +0.000 A 
ATOM      6  C   UNL     1       3.212   4.621  17.684  0.00  0.00    +0.000 A 
ENDROOT
BRANCH   4   7
ATOM      7  C   UNL     1       2.159   8.251  18.416  0.00  0.00    +0.000 C 
ATOM      8  O   UNL     1       1.979   9.203  17.660  0.00  0.00    +0.000 OA
ATOM      9  N   UNL     1       1.709   8.278  19.715  0.00  0.00    +0.000 N 
ATOM     10  H   UNL     1       1.818   7.503  20.358  0.00  0.00    +0.000 HD
BRANCH   9  11
ATOM     11  C   UNL     1       0.981   9.439  20.186  0.00  0.00    +0.000 C 
BRANCH  11  12
ATOM     12  C   UNL     1       0.815   9.427  21.695  0.00  0.00    +0.000 C 
ATOM     13  O   UNL     1       1.752   9.511  22.488  0.00  0.00    +0.000 OA
ATOM     14  N   UNL     1      -0.490   9.294  22.108  0.00  0.00    +0.000 N 
ATOM     15  H   UNL     1      -1.288   9.495  21.515  0.00  0.00    +0.000 HD
BRANCH  14  16
ATOM     16  O   UNL     1      -0.705   9.365  23.504  0.00  0.00    +0.000 OA
ATOM     17  H   UNL     1       0.141   9.025  23.869  0.00  0.00    +0.000 HD
ENDBRANCH  14  16
ENDBRANCH  11  12
ENDBRANCH   9  11
ENDBRANCH   4   7
BRANCH   1  19
ATOM     18  C   UNL     1       6.324   4.123  15.859  0.00  0.00    +0.000 C 
ATOM     19  O   UNL     1       5.312   3.806  16.826  0.00  0.00    +0.000 OA
ENDBRANCH   1  19
BRANCH   6  20
ATOM     20  O   UNL     1       2.530   3.459  17.889  0.00  0.00    +0.000 OA
BRANCH  20  21
ATOM     21  C   UNL     1       2.273   2.804  19.120  0.00  0.00    +0.000 C 
ATOM     22  C   UNL     1       3.371   2.912  20.165  0.00  0.00    +0.000 C 
ATOM     23  C   UNL     1       2.684   2.615  21.489  0.00  0.00    +0.000 C 
ATOM     24  C   UNL     1       1.197   2.901  21.297  0.00  0.00    +0.000 C 
ATOM     25  C   UNL     1       0.937   3.053  19.802  0.00  0.00    +0.000 C 
ENDBRANCH  20  21
ENDBRANCH   6  20
TORSDOF 7
ENDMDL
MODEL 5
REMARK VINA RESULT:      -7.3      0.980      1.019
REMARK  Name = 
REMARK  8 active torsions:
REMARK  status: ('A' for Active; 'I' for Inactive)
REMARK    1  A    between atoms: C_1  and  O_2
REMARK    2  A    between atoms: O_2  and  C_3
REMARK    3  A    between atoms: C_6  and  C_7
REMARK    4  A    between atoms: N_9  and  C_10
REMARK    5  A    between atoms: C_10  and  C_11
REMARK    6  A    between atoms: N_13  and  O_14
REMARK    7  A    between atoms: C_16  and  O_17
REMARK    8  A    between atoms: O_17  and  C_18
REMARK                            x       y       z     vdW  Elec       q    Type
REMARK                         _______ _______ _______ _____ _____    ______ ____
ROOT
ATOM      1  C   UNL     1       3.731   6.329  18.226  0.00  0.00    +0.000 A 
ATOM      2  C   UNL     1       4.105   7.111  17.118  0.00  0.00    +0.000 A 
ATOM      3  C   UNL     1       5.009   6.641  16.170  0.00  0.00    +0.000 A 
ATOM      4  C   UNL     1       5.596   5.386  16.325  0.00  0.00    +0.000 A 
ATOM      5  C   UNL     1       5.314   4.647  17.475  0.00  0.00    +0.000 A 
ATOM      6  C   UNL     1       4.385   5.108  18.441  0.00  0.00    +0.000 A 
ENDROOT
BRANCH   4   7
ATOM      7  C   UNL     1       6.485   4.919  15.220  0.00  0.00    +0.000 C 
ATOM      8  O   UNL     1       7.706   4.950  15.359  0.00  0.00    +0.000 OA
ATOM      9  N   UNL     1       5.913   4.468  14.053  0.00  0.00    +0.000 N 
ATOM     10  H   UNL     1       4.912   4.406  13.912  0.00  0.00    +0.000 HD
BRANCH   9  11
ATOM     11  C   UNL     1       6.768   3.991  12.986  0.00  0.00    +0.000 C 
BRANCH  11  12
ATOM     12  C   UNL     1       6.039   3.029  12.066  0.00  0.00    +0.000 C 
ATOM     13  O   UNL     1       4.862   3.160  11.730  0.00  0.00    +0.000 OA
ATOM     14  N   UNL     1       6.811   1.970  11.647  0.00  0.00    +0.000 N 
ATOM     15  H   UNL     1       7.825   1.973  11.672  0.00  0.00    +0.000 HD
BRANCH  14  16
ATOM     16  O   UNL     1       6.203   1.093  10.719  0.00  0.00    +0.000 OA
ATOM     17  H   UNL     1       6.439   1.496   9.855  0.00  0.00    +0.000 HD
ENDBRANCH  14  16
ENDBRANCH  11  12
ENDBRANCH   9  11
ENDBRANCH   4   7
BRANCH   1  19
ATOM     18  C   UNL     1       2.057   7.935  18.635  0.00  0.00    +0.000 C 
ATOM     19  O   UNL     1       2.758   6.767  19.084  0.00  0.00    +0.000 OA
ENDBRANCH   1  19
BRANCH   6  20
ATOM     20  O   UNL     1       4.319   4.238  19.489  0.00  0.00    +0.000 OA
BRANCH  20  21
ATOM     21  C   UNL     1       3.266   3.348  19.818  0.00  0.00    +0.000 C 
ATOM     22  C   UNL     1       2.320   3.823  20.909  0.00  0.00    +0.000 C 
ATOM     23  C   UNL     1       1.054   3.001  20.716  0.00  0.00    +0.000 C 
ATOM     24  C   UNL     1       1.048   2.519  19.269  0.00  0.00    +0.000 C 
ATOM     25  C   UNL     1       2.435   2.766  18.684  0.00  0.00    +0.000 C 
ENDBRANCH  20  21
ENDBRANCH   6  20
TORSDOF 7
ENDMDL
MODEL 6
REMARK VINA RESULT:      -7.3      2.931      6.749
REMARK  Name = 
REMARK  8 active torsions:
REMARK  status: ('A' for Active; 'I' for Inactive)
REMARK    1  A    between atoms: C_1  and  O_2
REMARK    2  A    between atoms: O_2  and  C_3
REMARK    3  A    between atoms: C_6  and  C_7
REMARK    4  A    between atoms: N_9  and  C_10
REMARK    5  A    between atoms: C_10  and  C_11
REMARK    6  A    between atoms: N_13  and  O_14
REMARK    7  A    between atoms: C_16  and  O_17
REMARK    8  A    between atoms: O_17  and  C_18
REMARK                            x       y       z     vdW  Elec       q    Type
REMARK                         _______ _______ _______ _____ _____    ______ ____
ROOT
ATOM      1  C   UNL     1       6.967   6.632  17.136  0.00  0.00    +0.000 A 
ATOM      2  C   UNL     1       6.105   6.732  18.245  0.00  0.00    +0.000 A 
ATOM      3  C   UNL     1       5.346   5.648  18.673  0.00  0.00    +0.000 A 
ATOM      4  C   UNL     1       5.397   4.440  17.980  0.00  0.00    +0.000 A 
ATOM      5  C   UNL     1       6.166   4.362  16.817  0.00  0.00    +0.000 A 
ATOM      6  C   UNL     1       6.955   5.454  16.377  0.00  0.00    +0.000 A 
ENDROOT
BRANCH   4   7
ATOM      7  C   UNL     1       4.622   3.301  18.556  0.00  0.00    +0.000 C 
ATOM      8  O   UNL     1       4.906   2.865  19.669  0.00  0.00    +0.000 OA
ATOM      9  N   UNL     1       3.601   2.752  17.816  0.00  0.00    +0.000 N 
ATOM     10  H   UNL     1       3.324   3.100  16.906  0.00  0.00    +0.000 HD
BRANCH   9  11
ATOM     11  C   UNL     1       2.829   1.662  18.378  0.00  0.00    +0.000 C 
BRANCH  11  12
ATOM     12  C   UNL     1       1.560   2.157  19.049  0.00  0.00    +0.000 C 
ATOM     13  O   UNL     1       0.458   2.176  18.502  0.00  0.00    +0.000 OA
ATOM     14  N   UNL     1       1.753   2.609  20.334  0.00  0.00    +0.000 N 
ATOM     15  H   UNL     1       2.559   2.362  20.898  0.00  0.00    +0.000 HD
BRANCH  14  16
ATOM     16  O   UNL     1       0.587   3.000  21.031  0.00  0.00    +0.000 OA
ATOM     17  H   UNL     1       0.043   2.182  21.016  0.00  0.00    +0.000 HD
ENDBRANCH  14  16
ENDBRANCH  11  12
ENDBRANCH   9  11
ENDBRANCH   4   7
BRANCH   1  19
ATOM     18  C   UNL     1       7.984   8.632  17.853  0.00  0.00    +0.000 C 
ATOM     19  O   UNL     1       7.786   7.677  16.801  0.00  0.00    +0.000 OA
ENDBRANCH   1  19
BRANCH   6  20
ATOM     20  O   UNL     1       7.571   5.150  15.200  0.00  0.00    +0.000 OA
BRANCH  20  21
ATOM     21  C   UNL     1       6.977   4.968  13.926  0.00  0.00    +0.000 C 
ATOM     22  C   UNL     1       7.900   5.160  12.735  0.00  0.00    +0.000 C 
ATOM     23  C   UNL     1       7.218   4.432  11.587  0.00  0.00    +0.000 C 
ATOM     24  C   UNL     1       6.279   3.400  12.205  0.00  0.00    +0.000 C 
ATOM     25  C   UNL     1       6.148   3.714  13.691  0.00  0.00    +0.000 C 
ENDBRANCH  20  21
ENDBRANCH   6  20
TORSDOF 7
ENDMDL
MODEL 7
REMARK VINA RESULT:      -7.2      1.246      1.637
REMARK  Name = 
REMARK  8 active torsions:
REMARK  status: ('A' for Active; 'I' for Inactive)
REMARK    1  A    between atoms: C_1  and  O_2
REMARK    2  A    between atoms: O_2  and  C_3
REMARK    3  A    between atoms: C_6  and  C_7
REMARK    4  A    between atoms: N_9  and  C_10
REMARK    5  A    between atoms: C_10  and  C_11
REMARK    6  A    between atoms: N_13  and  O_14
REMARK    7  A    between atoms: C_16  and  O_17
REMARK    8  A    between atoms: O_17  and  C_18
REMARK                            x       y       z     vdW  Elec       q    Type
REMARK                         _______ _______ _______ _____ _____    ______ ____
ROOT
ATOM      1  C   UNL     1       4.034   5.790  18.544  0.00  0.00    +0.000 A 
ATOM      2  C   UNL     1       5.262   6.381  18.191  0.00  0.00    +0.000 A 
ATOM      3  C   UNL     1       5.949   5.994  17.045  0.00  0.00    +0.000 A 
ATOM      4  C   UNL     1       5.446   4.976  16.236  0.00  0.00    +0.000 A 
ATOM      5  C   UNL     1       4.285   4.311  16.634  0.00  0.00    +0.000 A 
ATOM      6  C   UNL     1       3.567   4.703  17.792  0.00  0.00    +0.000 A 
ENDROOT
BRANCH   4   7
ATOM      7  C   UNL     1       6.197   4.683  14.980  0.00  0.00    +0.000 C 
ATOM      8  O   UNL     1       7.329   5.134  14.821  0.00  0.00    +0.000 OA
ATOM      9  N   UNL     1       5.595   3.914  14.011  0.00  0.00    +0.000 N 
ATOM     10  H   UNL     1       4.674   3.506  14.117  0.00  0.00    +0.000 HD
BRANCH   9  11
ATOM     11  C   UNL     1       6.326   3.606  12.799  0.00  0.00    +0.000 C 
BRANCH  11  12
ATOM     12  C   UNL     1       5.466   2.857  11.796  0.00  0.00    +0.000 C 
ATOM     13  O   UNL     1       5.765   1.762  11.320  0.00  0.00    +0.000 OA
ATOM     14  N   UNL     1       4.316   3.525  11.444  0.00  0.00    +0.000 N 
ATOM     15  H   UNL     1       3.910   4.269  12.000  0.00  0.00    +0.000 HD
BRANCH  14  16
ATOM     16  O   UNL     1       3.440   2.829  10.579  0.00  0.00    +0.000 OA
ATOM     17  H   UNL     1       3.847   2.975   9.697  0.00  0.00    +0.000 HD
ENDBRANCH  14  16
ENDBRANCH  11  12
ENDBRANCH   9  11
ENDBRANCH   4   7
BRANCH   1  19
ATOM     18  C   UNL     1       2.327   7.239  19.276  0.00  0.00    +0.000 C 
ATOM     19  O   UNL     1       3.322   6.263  19.614  0.00  0.00    +0.000 OA
ENDBRANCH   1  19
BRANCH   6  20
ATOM     20  O   UNL     1       2.504   3.875  17.994  0.00  0.00    +0.000 OA
BRANCH  20  21
ATOM     21  C   UNL     1       2.195   3.121  19.154  0.00  0.00    +0.000 C 
ATOM     22  C   UNL     1       3.369   2.798  20.062  0.00  0.00    +0.000 C 
ATOM     23  C   UNL     1       2.745   2.477  21.413  0.00  0.00    +0.000 C 
ATOM     24  C   UNL     1       1.371   3.141  21.441  0.00  0.00    +0.000 C 
ATOM     25  C   UNL     1       1.031   3.579  20.020  0.00  0.00    +0.000 C 
ENDBRANCH  20  21
ENDBRANCH   6  20
TORSDOF 7
ENDMDL
MODEL 8
REMARK VINA RESULT:      -7.1      4.288      7.226
REMARK  Name = 
REMARK  8 active torsions:
REMARK  status: ('A' for Active; 'I' for Inactive)
REMARK    1  A    between atoms: C_1  and  O_2
REMARK    2  A    between atoms: O_2  and  C_3
REMARK    3  A    between atoms: C_6  and  C_7
REMARK    4  A    between atoms: N_9  and  C_10
REMARK    5  A    between atoms: C_10  and  C_11
REMARK    6  A    between atoms: N_13  and  O_14
REMARK    7  A    between atoms: C_16  and  O_17
REMARK    8  A    between atoms: O_17  and  C_18
REMARK                            x       y       z     vdW  Elec       q    Type
REMARK                         _______ _______ _______ _____ _____    ______ ____
ROOT
ATOM      1  C   UNL     1       4.359   5.007  17.043  0.00  0.00    +0.000 A 
ATOM      2  C   UNL     1       4.666   6.369  16.866  0.00  0.00    +0.000 A 
ATOM      3  C   UNL     1       3.885   7.369  17.437  0.00  0.00    +0.000 A 
ATOM      4  C   UNL     1       2.748   7.035  18.172  0.00  0.00    +0.000 A 
ATOM      5  C   UNL     1       2.374   5.693  18.264  0.00  0.00    +0.000 A 
ATOM      6  C   UNL     1       3.168   4.664  17.699  0.00  0.00    +0.000 A 
ENDROOT
BRANCH   4   7
ATOM      7  C   UNL     1       2.016   8.160  18.825  0.00  0.00    +0.000 C 
ATOM      8  O   UNL     1       1.831   8.150  20.040  0.00  0.00    +0.000 OA
ATOM      9  N   UNL     1       1.551   9.192  18.043  0.00  0.00    +0.000 N 
ATOM     10  H   UNL     1       1.706   9.247  17.044  0.00  0.00    +0.000 HD
BRANCH   9  11
ATOM     11  C   UNL     1       0.861  10.299  18.673  0.00  0.00    +0.000 C 
BRANCH  11  12
ATOM     12  C   UNL     1      -0.472  10.586  18.006  0.00  0.00    +0.000 C 
ATOM     13  O   UNL     1      -1.182   9.722  17.491  0.00  0.00    +0.000 OA
ATOM     14  N   UNL     1      -0.817  11.918  18.007  0.00  0.00    +0.000 N 
ATOM     15  H   UNL     1      -0.414  12.599  18.640  0.00  0.00    +0.000 HD
BRANCH  14  16
ATOM     16  O   UNL     1      -2.091  12.225  17.474  0.00  0.00    +0.000 OA
ATOM     17  H   UNL     1      -2.618  12.427  18.278  0.00  0.00    +0.000 HD
ENDBRANCH  14  16
ENDBRANCH  11  12
ENDBRANCH   9  11
ENDBRANCH   4   7
BRANCH   1  19
ATOM     18  C   UNL     1       6.581   4.434  16.514  0.00  0.00    +0.000 C 
ATOM     19  O   UNL     1       5.203   4.041  16.566  0.00  0.00    +0.000 OA
ENDBRANCH   1  19
BRANCH   6  20
ATOM     20  O   UNL     1       2.572   3.452  17.879  0.00  0.00    +0.000 OA
BRANCH  20  21
ATOM     21  C   UNL     1       2.310   2.782  19.101  0.00  0.00    +0.000 C 
ATOM     22  C   UNL     1       3.387   2.908  20.165  0.00  0.00    +0.000 C 
ATOM     23  C   UNL     1       2.685   2.585  21.476  0.00  0.00    +0.000 C 
ATOM     24  C   UNL     1       1.196   2.836  21.261  0.00  0.00    +0.000 C 
ATOM     25  C   UNL     1       0.957   2.994  19.763  0.00  0.00    +0.000 C 
ENDBRANCH  20  21
ENDBRANCH   6  20
TORSDOF 7
ENDMDL
MODEL 9
REMARK VINA RESULT:      -7.1      4.231      7.207
REMARK  Name = 
REMARK  8 active torsions:
REMARK  status: ('A' for Active; 'I' for Inactive)
REMARK    1  A    between atoms: C_1  and  O_2
REMARK    2  A    between atoms: O_2  and  C_3
REMARK    3  A    between atoms: C_6  and  C_7
REMARK    4  A    between atoms: N_9  and  C_10
REMARK    5  A    between atoms: C_10  and  C_11
REMARK    6  A    between atoms: N_13  and  O_14
REMARK    7  A    between atoms: C_16  and  O_17
REMARK    8  A    between atoms: O_17  and  C_18
REMARK                            x       y       z     vdW  Elec       q    Type
REMARK                         _______ _______ _______ _____ _____    ______ ____
ROOT
ATOM      1  C   UNL     1       4.313   5.216  17.138  0.00  0.00    +0.000 A 
ATOM      2  C   UNL     1       4.641   6.573  16.953  0.00  0.00    +0.000 A 
ATOM      3  C   UNL     1       3.831   7.588  17.452  0.00  0.00    +0.000 A 
ATOM      4  C   UNL     1       2.647   7.276  18.119  0.00  0.00    +0.000 A 
ATOM      5  C   UNL     1       2.259   5.938  18.214  0.00  0.00    +0.000 A 
ATOM      6  C   UNL     1       3.081   4.893  17.722  0.00  0.00    +0.000 A 
ENDROOT
BRANCH   4   7
ATOM      7  C   UNL     1       1.882   8.418  18.701  0.00  0.00    +0.000 C 
ATOM      8  O   UNL     1       1.572   8.408  19.890  0.00  0.00    +0.000 OA
ATOM      9  N   UNL     1       1.528   9.466  17.882  0.00  0.00    +0.000 N 
ATOM     10  H   UNL     1       1.786   9.520  16.905  0.00  0.00    +0.000 HD
BRANCH   9  11
ATOM     11  C   UNL     1       0.806  10.589  18.445  0.00  0.00    +0.000 C 
BRANCH  11  12
ATOM     12  C   UNL     1       1.715  11.781  18.683  0.00  0.00    +0.000 C 
ATOM     13  O   UNL     1       1.779  12.391  19.751  0.00  0.00    +0.000 OA
ATOM     14  N   UNL     1       2.459  12.141  17.583  0.00  0.00    +0.000 N 
ATOM     15  H   UNL     1       2.637  11.519  16.802  0.00  0.00    +0.000 HD
BRANCH  14  16
ATOM     16  O   UNL     1       3.384  13.191  17.781  0.00  0.00    +0.000 OA
ATOM     17  H   UNL     1       2.840  13.877  18.227  0.00  0.00    +0.000 HD
ENDBRANCH  14  16
ENDBRANCH  11  12
ENDBRANCH   9  11
ENDBRANCH   4   7
BRANCH   1  19
ATOM     18  C   UNL     1       6.535   4.434  17.164  0.00  0.00    +0.000 C 
ATOM     19  O   UNL     1       5.180   4.236  16.736  0.00  0.00    +0.000 OA
ENDBRANCH   1  19
BRANCH   6  20
ATOM     20  O   UNL     1       2.466   3.689  17.888  0.00  0.00    +0.000 OA
BRANCH  20  21
ATOM     21  C   UNL     1       2.304   2.950  19.087  0.00  0.00    +0.000 C 
ATOM     22  C   UNL     1       3.411   3.112  20.115  0.00  0.00    +0.000 C 
ATOM     23  C   UNL     1       2.788   2.681  21.435  0.00  0.00    +0.000 C 
ATOM     24  C   UNL     1       1.276   2.830  21.287  0.00  0.00    +0.000 C 
ATOM     25  C   UNL     1       0.966   3.032  19.807  0.00  0.00    +0.000 C 
ENDBRANCH  20  21
ENDBRANCH   6  20
TORSDOF 7
ENDMDL
