MODEL 1
REMARK VINA RESULT:      -6.8      0.000      0.000
REMARK  Name = 
REMARK  15 active torsions:
REMARK  status: ('A' for Active; 'I' for Inactive)
REMARK    1  A    between atoms: C_1  and  C_2
REMARK    2  A    between atoms: C_2  and  C_3
REMARK    3  A    between atoms: C_3  and  C_4
REMARK    4  A    between atoms: C_4  and  C_5
REMARK    5  A    between atoms: C_5  and  C_6
REMARK    6  A    between atoms: C_6  and  C_7
REMARK    7  A    between atoms: C_7  and  C_8
REMARK    8  A    between atoms: C_8  and  C_9
REMARK    9  A    between atoms: C_9  and  C_10
REMARK   10  A    between atoms: C_10  and  C_11
REMARK   11  A    between atoms: C_11  and  C_12
REMARK   12  A    between atoms: C_12  and  O_14
REMARK   13  A    between atoms: O_14  and  C_15
REMARK   14  A    between atoms: C_27  and  C_28
REMARK   15  A    between atoms: C_28  and  O_29
REMARK                            x       y       z     vdW  Elec       q    Type
REMARK                         _______ _______ _______ _____ _____    ______ ____
ROOT
ATOM      1  C   UNL     1       6.975   5.975  17.170  0.00  0.00    +0.000 C 
ATOM      2  C   UNL     1       5.834   5.897  18.127  0.00  0.00    +0.000 C 
ATOM      3  O   UNL     1       5.694   4.670  18.753  0.00  0.00    +0.000 OA
ATOM      4  C   UNL     1       4.418   4.294  18.651  0.00  0.00    +0.000 A 
ATOM      5  N   UNL     1       3.858   3.275  19.347  0.00  0.00    +0.000 NA
ATOM      6  C   UNL     1       2.531   3.006  19.187  0.00  0.00    +0.000 A 
ATOM      7  N   UNL     1       1.983   2.059  19.855  0.00  0.00    +0.000 NA
ATOM      8  C   UNL     1       1.760   3.772  18.287  0.00  0.00    +0.000 A 
ATOM      9  C   UNL     1       2.386   4.808  17.578  0.00  0.00    +0.000 A 
ATOM     10  N   UNL     1       3.704   5.038  17.810  0.00  0.00    +0.000 N 
ATOM     11  C   UNL     1       4.599   6.026  17.225  0.00  0.00    +0.000 C 
ATOM     12  O   UNL     1       4.958   5.634  15.907  0.00  0.00    +0.000 OA
ATOM     13  C   UNL     1       6.372   5.471  15.859  0.00  0.00    +0.000 C 
ATOM     14  H   UNL     1       2.527   1.491  20.522  0.00  0.00    +0.000 HD
ENDROOT
BRANCH   1  15
ATOM     15  O   UNL     1       7.342   7.299  16.997  0.00  0.00    +0.000 OA
BRANCH  15  16
ATOM     16  C   UNL     1       7.996   8.013  17.952  0.00  0.00    +0.000 C 
ATOM     17  O   UNL     1       8.586   7.453  18.867  0.00  0.00    +0.000 OA
BRANCH  16  18
ATOM     18  C   UNL     1       8.067   9.500  17.836  0.00  0.00    +0.000 C 
BRANCH  18  19
ATOM     19  C   UNL     1       9.099  10.012  18.840  0.00  0.00    +0.000 C 
BRANCH  19  20
ATOM     20  C   UNL     1       9.818  11.242  18.307  0.00  0.00    +0.000 C 
BRANCH  20  21
ATOM     21  C   UNL     1       8.813  12.186  17.652  0.00  0.00    +0.000 C 
BRANCH  21  22
ATOM     22  C   UNL     1       9.057  13.604  18.136  0.00  0.00    +0.000 C 
BRANCH  22  23
ATOM     23  C   UNL     1       8.506  13.810  19.546  0.00  0.00    +0.000 C 
BRANCH  23  24
ATOM     24  C   UNL     1       9.650  14.273  20.433  0.00  0.00    +0.000 C 
BRANCH  24  25
ATOM     25  C   UNL     1       9.862  13.364  21.645  0.00  0.00    +0.000 C 
BRANCH  25  26
ATOM     26  C   UNL     1       8.711  12.355  21.787  0.00  0.00    +0.000 C 
BRANCH  26  28
ATOM     27  C   UNL     1       8.051  11.643  24.121  0.00  0.00    +0.000 C 
ATOM     28  C   UNL     1       7.814  12.645  23.004  0.00  0.00    +0.000 C 
ENDBRANCH  26  28
ENDBRANCH  25  26
ENDBRANCH  24  25
ENDBRANCH  23  24
ENDBRANCH  22  23
ENDBRANCH  21  22
ENDBRANCH  20  21
ENDBRANCH  19  20
ENDBRANCH  18  19
ENDBRANCH  16  18
ENDBRANCH  15  16
ENDBRANCH   1  15
BRANCH  13  29
ATOM     29  C   UNL     1       6.760   4.013  15.579  0.00  0.00    +0.000 C 
BRANCH  29  30
ATOM     30  O   UNL     1       6.147   3.555  14.404  0.00  0.00    +0.000 OA
ATOM     31  H   UNL     1       5.948   4.357  13.856  0.00  0.00    +0.000 HD
ENDBRANCH  29  30
ENDBRANCH  13  29
TORSDOF 14
ENDMDL
MODEL 2
REMARK VINA RESULT:      -6.7      1.936      2.941
REMARK  Name = 
REMARK  15 active torsions:
REMARK  status: ('A' for Active; 'I' for Inactive)
REMARK    1  A    between atoms: C_1  and  C_2
REMARK    2  A    between atoms: C_2  and  C_3
REMARK    3  A    between atoms: C_3  and  C_4
REMARK    4  A    between atoms: C_4  and  C_5
REMARK    5  A    between atoms: C_5  and  C_6
REMARK    6  A    between atoms: C_6  and  C_7
REMARK    7  A    between atoms: C_7  and  C_8
REMARK    8  A    between atoms: C_8  and  C_9
REMARK    9  A    between atoms: C_9  and  C_10
REMARK   10  A    between atoms: C_10  and  C_11
REMARK   11  A    between atoms: C_11  and  C_12
REMARK   12  A    between atoms: C_12  and  O_14
REMARK   13  A    between atoms: O_14  and  C_15
REMARK   14  A    between atoms: C_27  and  C_28
REMARK   15  A    between atoms: C_28  and  O_29
REMARK                            x       y       z     vdW  Elec       q    Type
REMARK                         _______ _______ _______ _____ _____    ______ ____
ROOT
ATOM      1  C   UNL     1       5.597   5.800  16.909  0.00  0.00    +0.000 C 
ATOM      2  C   UNL     1       5.161   4.412  17.240  0.00  0.00    +0.000 C 
ATOM      3  O   UNL     1       3.931   4.058  16.713  0.00  0.00    +0.000 OA
ATOM      4  C   UNL     1       3.199   3.520  17.691  0.00  0.00    +0.000 A 
ATOM      5  N   UNL     1       2.041   2.842  17.501  0.00  0.00    +0.000 NA
ATOM      6  C   UNL     1       1.398   2.303  18.576  0.00  0.00    +0.000 A 
ATOM      7  N   UNL     1       0.314   1.639  18.409  0.00  0.00    +0.000 NA
ATOM      8  C   UNL     1       1.927   2.476  19.873  0.00  0.00    +0.000 A 
ATOM      9  C   UNL     1       3.119   3.199  20.022  0.00  0.00    +0.000 A 
ATOM     10  N   UNL     1       3.721   3.680  18.904  0.00  0.00    +0.000 N 
ATOM     11  C   UNL     1       4.944   4.457  18.759  0.00  0.00    +0.000 C 
ATOM     12  O   UNL     1       4.711   5.805  19.143  0.00  0.00    +0.000 OA
ATOM     13  C   UNL     1       4.973   6.641  18.022  0.00  0.00    +0.000 C 
ATOM     14  H   UNL     1      -0.087   1.497  17.470  0.00  0.00    +0.000 HD
ENDROOT
BRANCH   1  15
ATOM     15  O   UNL     1       6.974   5.888  17.019  0.00  0.00    +0.000 OA
BRANCH  15  16
ATOM     16  C   UNL     1       7.593   6.740  17.882  0.00  0.00    +0.000 C 
ATOM     17  O   UNL     1       8.054   6.339  18.943  0.00  0.00    +0.000 OA
BRANCH  16  18
ATOM     18  C   UNL     1       7.787   8.167  17.491  0.00  0.00    +0.000 C 
BRANCH  18  19
ATOM     19  C   UNL     1       8.666   8.839  18.545  0.00  0.00    +0.000 C 
BRANCH  19  20
ATOM     20  C   UNL     1       8.796  10.331  18.279  0.00  0.00    +0.000 C 
BRANCH  20  21
ATOM     21  C   UNL     1       9.581  10.992  19.409  0.00  0.00    +0.000 C 
BRANCH  21  22
ATOM     22  C   UNL     1      10.974  11.348  18.919  0.00  0.00    +0.000 C 
BRANCH  22  23
ATOM     23  C   UNL     1      11.124  12.856  18.724  0.00  0.00    +0.000 C 
BRANCH  23  24
ATOM     24  C   UNL     1      11.231  13.499  20.096  0.00  0.00    +0.000 C 
BRANCH  24  25
ATOM     25  C   UNL     1      10.067  14.444  20.397  0.00  0.00    +0.000 C 
BRANCH  25  26
ATOM     26  C   UNL     1       9.435  14.974  19.100  0.00  0.00    +0.000 C 
BRANCH  26  28
ATOM     27  C   UNL     1       7.597  13.825  17.798  0.00  0.00    +0.000 C 
ATOM     28  C   UNL     1       7.926  14.679  19.011  0.00  0.00    +0.000 C 
ENDBRANCH  26  28
ENDBRANCH  25  26
ENDBRANCH  24  25
ENDBRANCH  23  24
ENDBRANCH  22  23
ENDBRANCH  21  22
ENDBRANCH  20  21
ENDBRANCH  19  20
ENDBRANCH  18  19
ENDBRANCH  16  18
ENDBRANCH  15  16
ENDBRANCH   1  15
BRANCH  13  29
ATOM     29  C   UNL     1       3.703   7.358  17.547  0.00  0.00    +0.000 C 
BRANCH  29  30
ATOM     30  O   UNL     1       2.562   6.767  18.109  0.00  0.00    +0.000 OA
ATOM     31  H   UNL     1       2.186   6.163  17.419  0.00  0.00    +0.000 HD
ENDBRANCH  29  30
ENDBRANCH  13  29
TORSDOF 14
ENDMDL
MODEL 3
REMARK VINA RESULT:      -6.7      0.871      1.293
REMARK  Name = 
REMARK  15 active torsions:
REMARK  status: ('A' for Active; 'I' for Inactive)
REMARK    1  A    between atoms: C_1  and  C_2
REMARK    2  A    between atoms: C_2  and  C_3
REMARK    3  A    between atoms: C_3  and  C_4
REMARK    4  A    between atoms: C_4  and  C_5
REMARK    5  A    between atoms: C_5  and  C_6
REMARK    6  A    between atoms: C_6  and  C_7
REMARK    7  A    between atoms: C_7  and  C_8
REMARK    8  A    between atoms: C_8  and  C_9
REMARK    9  A    between atoms: C_9  and  C_10
REMARK   10  A    between atoms: C_10  and  C_11
REMARK   11  A    between atoms: C_11  and  C_12
REMARK   12  A    between atoms: C_12  and  O_14
REMARK   13  A    between atoms: O_14  and  C_15
REMARK   14  A    between atoms: C_27  and  C_28
REMARK   15  A    between atoms: C_28  and  O_29
REMARK                            x       y       z     vdW  Elec       q    Type
REMARK                         _______ _______ _______ _____ _____    ______ ____
ROOT
ATOM      1  C   UNL     1       6.801   6.170  17.420  0.00  0.00    +0.000 C 
ATOM      2  C   UNL     1       5.639   6.102  18.353  0.00  0.00    +0.000 C 
ATOM      3  O   UNL     1       5.509   4.894  19.018  0.00  0.00    +0.000 OA
ATOM      4  C   UNL     1       4.242   4.489  18.899  0.00  0.00    +0.000 A 
ATOM      5  N   UNL     1       3.687   3.482  19.616  0.00  0.00    +0.000 NA
ATOM      6  C   UNL     1       2.370   3.180  19.436  0.00  0.00    +0.000 A 
ATOM      7  N   UNL     1       1.825   2.245  20.123  0.00  0.00    +0.000 NA
ATOM      8  C   UNL     1       1.606   3.899  18.491  0.00  0.00    +0.000 A 
ATOM      9  C   UNL     1       2.227   4.922  17.761  0.00  0.00    +0.000 A 
ATOM     10  N   UNL     1       3.534   5.187  18.016  0.00  0.00    +0.000 N 
ATOM     11  C   UNL     1       4.423   6.173  17.417  0.00  0.00    +0.000 C 
ATOM     12  O   UNL     1       4.823   5.744  16.123  0.00  0.00    +0.000 OA
ATOM     13  C   UNL     1       6.239   5.609  16.114  0.00  0.00    +0.000 C 
ATOM     14  H   UNL     1       2.364   1.712  20.822  0.00  0.00    +0.000 HD
ENDROOT
BRANCH   1  15
ATOM     15  O   UNL     1       7.145   7.495  17.210  0.00  0.00    +0.000 OA
BRANCH  15  16
ATOM     16  C   UNL     1       8.005   8.171  18.018  0.00  0.00    +0.000 C 
ATOM     17  O   UNL     1       8.628   7.594  18.900  0.00  0.00    +0.000 OA
BRANCH  16  18
ATOM     18  C   UNL     1       8.257   9.621  17.772  0.00  0.00    +0.000 C 
BRANCH  18  19
ATOM     19  C   UNL     1       9.119  10.160  18.913  0.00  0.00    +0.000 C 
BRANCH  19  20
ATOM     20  C   UNL     1      10.036  11.272  18.429  0.00  0.00    +0.000 C 
BRANCH  20  21
ATOM     21  C   UNL     1      11.098  11.566  19.485  0.00  0.00    +0.000 C 
BRANCH  21  22
ATOM     22  C   UNL     1      10.955  12.999  19.965  0.00  0.00    +0.000 C 
BRANCH  22  23
ATOM     23  C   UNL     1       9.624  13.214  20.683  0.00  0.00    +0.000 C 
BRANCH  23  24
ATOM     24  C   UNL     1       9.594  12.303  21.899  0.00  0.00    +0.000 C 
BRANCH  24  25
ATOM     25  C   UNL     1       8.715  12.851  23.024  0.00  0.00    +0.000 C 
BRANCH  25  26
ATOM     26  C   UNL     1       7.979  11.716  23.753  0.00  0.00    +0.000 C 
BRANCH  26  28
ATOM     27  C   UNL     1       6.082  11.183  25.337  0.00  0.00    +0.000 C 
ATOM     28  C   UNL     1       7.105  12.224  24.914  0.00  0.00    +0.000 C 
ENDBRANCH  26  28
ENDBRANCH  25  26
ENDBRANCH  24  25
ENDBRANCH  23  24
ENDBRANCH  22  23
ENDBRANCH  21  22
ENDBRANCH  20  21
ENDBRANCH  19  20
ENDBRANCH  18  19
ENDBRANCH  16  18
ENDBRANCH  15  16
ENDBRANCH   1  15
BRANCH  13  29
ATOM     29  C   UNL     1       6.663   4.151  15.894  0.00  0.00    +0.000 C 
BRANCH  29  30
ATOM     30  O   UNL     1       5.573   3.287  16.069  0.00  0.00    +0.000 OA
ATOM     31  H   UNL     1       5.579   2.663  15.298  0.00  0.00    +0.000 HD
ENDBRANCH  29  30
ENDBRANCH  13  29
TORSDOF 14
ENDMDL
MODEL 4
REMARK VINA RESULT:      -6.6      6.708     10.464
REMARK  Name = 
REMARK  15 active torsions:
REMARK  status: ('A' for Active; 'I' for Inactive)
REMARK    1  A    between atoms: C_1  and  C_2
REMARK    2  A    between atoms: C_2  and  C_3
REMARK    3  A    between atoms: C_3  and  C_4
REMARK    4  A    between atoms: C_4  and  C_5
REMARK    5  A    between atoms: C_5  and  C_6
REMARK    6  A    between atoms: C_6  and  C_7
REMARK    7  A    between atoms: C_7  and  C_8
REMARK    8  A    between atoms: C_8  and  C_9
REMARK    9  A    between atoms: C_9  and  C_10
REMARK   10  A    between atoms: C_10  and  C_11
REMARK   11  A    between atoms: C_11  and  C_12
REMARK   12  A    between atoms: C_12  and  O_14
REMARK   13  A    between atoms: O_14  and  C_15
REMARK   14  A    between atoms: C_27  and  C_28
REMARK   15  A    between atoms: C_28  and  O_29
REMARK                            x       y       z     vdW  Elec       q    Type
REMARK                         _______ _______ _______ _____ _____    ______ ____
ROOT
ATOM      1  C   UNL     1       0.950  10.249  20.191  0.00  0.00    +0.000 C 
ATOM      2  C   UNL     1       1.041  11.726  20.001  0.00  0.00    +0.000 C 
ATOM      3  O   UNL     1       1.703  12.394  21.017  0.00  0.00    +0.000 OA
ATOM      4  C   UNL     1       0.949  13.430  21.393  0.00  0.00    +0.000 A 
ATOM      5  N   UNL     1       1.374  14.442  22.187  0.00  0.00    +0.000 NA
ATOM      6  C   UNL     1       0.523  15.469  22.475  0.00  0.00    +0.000 A 
ATOM      7  N   UNL     1       0.918  16.445  23.206  0.00  0.00    +0.000 NA
ATOM      8  C   UNL     1      -0.793  15.456  21.966  0.00  0.00    +0.000 A 
ATOM      9  C   UNL     1      -1.194  14.379  21.161  0.00  0.00    +0.000 A 
ATOM     10  N   UNL     1      -0.283  13.408  20.892  0.00  0.00    +0.000 N 
ATOM     11  C   UNL     1      -0.418  12.192  20.103  0.00  0.00    +0.000 C 
ATOM     12  O   UNL     1      -1.153  11.219  20.833  0.00  0.00    +0.000 OA
ATOM     13  C   UNL     1      -0.324  10.077  21.018  0.00  0.00    +0.000 C 
ATOM     14  H   UNL     1       1.877  16.476  23.583  0.00  0.00    +0.000 HD
ENDROOT
BRANCH   1  15
ATOM     15  O   UNL     1       0.757   9.638  18.964  0.00  0.00    +0.000 OA
BRANCH  15  16
ATOM     16  C   UNL     1       1.704   8.866  18.366  0.00  0.00    +0.000 C 
ATOM     17  O   UNL     1       2.182   9.179  17.284  0.00  0.00    +0.000 OA
BRANCH  16  18
ATOM     18  C   UNL     1       2.229   7.665  19.080  0.00  0.00    +0.000 C 
BRANCH  18  19
ATOM     19  C   UNL     1       2.652   6.632  18.037  0.00  0.00    +0.000 C 
BRANCH  19  20
ATOM     20  C   UNL     1       3.974   5.982  18.414  0.00  0.00    +0.000 C 
BRANCH  20  21
ATOM     21  C   UNL     1       4.586   5.304  17.191  0.00  0.00    +0.000 C 
BRANCH  21  22
ATOM     22  C   UNL     1       3.922   3.957  16.970  0.00  0.00    +0.000 C 
BRANCH  22  23
ATOM     23  C   UNL     1       3.888   3.137  18.258  0.00  0.00    +0.000 C 
BRANCH  23  24
ATOM     24  C   UNL     1       2.907   1.993  18.061  0.00  0.00    +0.000 C 
BRANCH  24  25
ATOM     25  C   UNL     1       1.770   2.009  19.082  0.00  0.00    +0.000 C 
BRANCH  25  26
ATOM     26  C   UNL     1       1.103   3.393  19.148  0.00  0.00    +0.000 C 
BRANCH  26  28
ATOM     27  C   UNL     1       1.869   3.098  21.539  0.00  0.00    +0.000 C 
ATOM     28  C   UNL     1       1.162   4.015  20.555  0.00  0.00    +0.000 C 
ENDBRANCH  26  28
ENDBRANCH  25  26
ENDBRANCH  24  25
ENDBRANCH  23  24
ENDBRANCH  22  23
ENDBRANCH  21  22
ENDBRANCH  20  21
ENDBRANCH  19  20
ENDBRANCH  18  19
ENDBRANCH  16  18
ENDBRANCH  15  16
ENDBRANCH   1  15
BRANCH  13  29
ATOM     29  C   UNL     1      -0.011   9.844  22.501  0.00  0.00    +0.000 C 
BRANCH  29  30
ATOM     30  O   UNL     1      -0.517  10.891  23.284  0.00  0.00    +0.000 OA
ATOM     31  H   UNL     1      -0.988  10.471  24.049  0.00  0.00    +0.000 HD
ENDBRANCH  29  30
ENDBRANCH  13  29
TORSDOF 14
ENDMDL
MODEL 5
REMARK VINA RESULT:      -6.5      1.398      2.597
REMARK  Name = 
REMARK  15 active torsions:
REMARK  status: ('A' for Active; 'I' for Inactive)
REMARK    1  A    between atoms: C_1  and  C_2
REMARK    2  A    between atoms: C_2  and  C_3
REMARK    3  A    between atoms: C_3  and  C_4
REMARK    4  A    between atoms: C_4  and  C_5
REMARK    5  A    between atoms: C_5  and  C_6
REMARK    6  A    between atoms: C_6  and  C_7
REMARK    7  A    between atoms: C_7  and  C_8
REMARK    8  A    between atoms: C_8  and  C_9
REMARK    9  A    between atoms: C_9  and  C_10
REMARK   10  A    between atoms: C_10  and  C_11
REMARK   11  A    between atoms: C_11  and  C_12
REMARK   12  A    between atoms: C_12  and  O_14
REMARK   13  A    between atoms: O_14  and  C_15
REMARK   14  A    between atoms: C_27  and  C_28
REMARK   15  A    between atoms: C_28  and  O_29
REMARK                            x       y       z     vdW  Elec       q    Type
REMARK                         _______ _______ _______ _____ _____    ______ ____
ROOT
ATOM      1  C   UNL     1       6.690   6.125  17.519  0.00  0.00    +0.000 C 
ATOM      2  C   UNL     1       5.507   5.775  18.357  0.00  0.00    +0.000 C 
ATOM      3  O   UNL     1       5.508   4.476  18.836  0.00  0.00    +0.000 OA
ATOM      4  C   UNL     1       4.314   3.937  18.581  0.00  0.00    +0.000 A 
ATOM      5  N   UNL     1       3.865   2.774  19.112  0.00  0.00    +0.000 NA
ATOM      6  C   UNL     1       2.609   2.341  18.807  0.00  0.00    +0.000 A 
ATOM      7  N   UNL     1       2.162   1.254  19.320  0.00  0.00    +0.000 NA
ATOM      8  C   UNL     1       1.800   3.090  17.926  0.00  0.00    +0.000 A 
ATOM      9  C   UNL     1       2.312   4.279  17.388  0.00  0.00    +0.000 A 
ATOM     10  N   UNL     1       3.560   4.665  17.761  0.00  0.00    +0.000 N 
ATOM     11  C   UNL     1       4.336   5.832  17.365  0.00  0.00    +0.000 C 
ATOM     12  O   UNL     1       4.847   5.651  16.052  0.00  0.00    +0.000 OA
ATOM     13  C   UNL     1       6.268   5.697  16.114  0.00  0.00    +0.000 C 
ATOM     14  H   UNL     1       2.735   0.695  19.970  0.00  0.00    +0.000 HD
ENDROOT
BRANCH   1  15
ATOM     15  O   UNL     1       6.865   7.498  17.520  0.00  0.00    +0.000 OA
BRANCH  15  16
ATOM     16  C   UNL     1       7.923   8.108  18.120  0.00  0.00    +0.000 C 
ATOM     17  O   UNL     1       8.656   7.492  18.884  0.00  0.00    +0.000 OA
BRANCH  16  18
ATOM     18  C   UNL     1       8.246   9.524  17.777  0.00  0.00    +0.000 C 
BRANCH  18  19
ATOM     19  C   UNL     1       9.096  10.110  18.903  0.00  0.00    +0.000 C 
BRANCH  19  20
ATOM     20  C   UNL     1       9.199  11.623  18.782  0.00  0.00    +0.000 C 
BRANCH  20  21
ATOM     21  C   UNL     1       9.354  12.244  20.167  0.00  0.00    +0.000 C 
BRANCH  21  22
ATOM     22  C   UNL     1      10.761  11.998  20.680  0.00  0.00    +0.000 C 
BRANCH  22  23
ATOM     23  C   UNL     1      11.809  12.420  19.651  0.00  0.00    +0.000 C 
BRANCH  23  24
ATOM     24  C   UNL     1      12.063  13.908  19.824  0.00  0.00    +0.000 C 
BRANCH  24  25
ATOM     25  C   UNL     1      12.333  14.618  18.496  0.00  0.00    +0.000 C 
BRANCH  25  26
ATOM     26  C   UNL     1      11.194  14.370  17.494  0.00  0.00    +0.000 C 
BRANCH  26  28
ATOM     27  C   UNL     1      10.240  16.665  17.953  0.00  0.00    +0.000 C 
ATOM     28  C   UNL     1       9.929  15.184  17.819  0.00  0.00    +0.000 C 
ENDBRANCH  26  28
ENDBRANCH  25  26
ENDBRANCH  24  25
ENDBRANCH  23  24
ENDBRANCH  22  23
ENDBRANCH  21  22
ENDBRANCH  20  21
ENDBRANCH  19  20
ENDBRANCH  18  19
ENDBRANCH  16  18
ENDBRANCH  15  16
ENDBRANCH   1  15
BRANCH  13  29
ATOM     29  C   UNL     1       6.891   4.352  15.720  0.00  0.00    +0.000 C 
BRANCH  29  30
ATOM     30  O   UNL     1       5.980   3.581  14.985  0.00  0.00    +0.000 OA
ATOM     31  H   UNL     1       5.183   4.151  14.833  0.00  0.00    +0.000 HD
ENDBRANCH  29  30
ENDBRANCH  13  29
TORSDOF 14
ENDMDL
MODEL 6
REMARK VINA RESULT:      -6.5      1.848      2.915
REMARK  Name = 
REMARK  15 active torsions:
REMARK  status: ('A' for Active; 'I' for Inactive)
REMARK    1  A    between atoms: C_1  and  C_2
REMARK    2  A    between atoms: C_2  and  C_3
REMARK    3  A    between atoms: C_3  and  C_4
REMARK    4  A    between atoms: C_4  and  C_5
REMARK    5  A    between atoms: C_5  and  C_6
REMARK    6  A    between atoms: C_6  and  C_7
REMARK    7  A    between atoms: C_7  and  C_8
REMARK    8  A    between atoms: C_8  and  C_9
REMARK    9  A    between atoms: C_9  and  C_10
REMARK   10  A    between atoms: C_10  and  C_11
REMARK   11  A    between atoms: C_11  and  C_12
REMARK   12  A    between atoms: C_12  and  O_14
REMARK   13  A    between atoms: O_14  and  C_15
REMARK   14  A    between atoms: C_27  and  C_28
REMARK   15  A    between atoms: C_28  and  O_29
REMARK                            x       y       z     vdW  Elec       q    Type
REMARK                         _______ _______ _______ _____ _____    ______ ____
ROOT
ATOM      1  C   UNL     1       5.641   5.550  17.413  0.00  0.00    +0.000 C 
ATOM      2  C   UNL     1       5.136   4.215  17.845  0.00  0.00    +0.000 C 
ATOM      3  O   UNL     1       4.037   3.761  17.135  0.00  0.00    +0.000 OA
ATOM      4  C   UNL     1       3.116   3.354  18.011  0.00  0.00    +0.000 A 
ATOM      5  N   UNL     1       2.016   2.630  17.689  0.00  0.00    +0.000 NA
ATOM      6  C   UNL     1       1.161   2.238  18.677  0.00  0.00    +0.000 A 
ATOM      7  N   UNL     1       0.129   1.533  18.390  0.00  0.00    +0.000 NA
ATOM      8  C   UNL     1       1.415   2.608  20.015  0.00  0.00    +0.000 A 
ATOM      9  C   UNL     1       2.557   3.371  20.298  0.00  0.00    +0.000 A 
ATOM     10  N   UNL     1       3.379   3.699  19.268  0.00  0.00    +0.000 N 
ATOM     11  C   UNL     1       4.612   4.473  19.266  0.00  0.00    +0.000 C 
ATOM     12  O   UNL     1       4.316   5.857  19.394  0.00  0.00    +0.000 OA
ATOM     13  C   UNL     1       4.809   6.529  18.240  0.00  0.00    +0.000 C 
ATOM     14  H   UNL     1      -0.071   1.248  17.420  0.00  0.00    +0.000 HD
ENDROOT
BRANCH   1  15
ATOM     15  O   UNL     1       6.968   5.683  17.788  0.00  0.00    +0.000 OA
BRANCH  15  16
ATOM     16  C   UNL     1       7.713   6.781  17.488  0.00  0.00    +0.000 C 
ATOM     17  O   UNL     1       7.910   7.112  16.326  0.00  0.00    +0.000 OA
BRANCH  16  18
ATOM     18  C   UNL     1       8.227   7.644  18.592  0.00  0.00    +0.000 C 
BRANCH  18  19
ATOM     19  C   UNL     1       8.214   9.095  18.115  0.00  0.00    +0.000 C 
BRANCH  19  20
ATOM     20  C   UNL     1       9.168   9.950  18.936  0.00  0.00    +0.000 C 
BRANCH  20  21
ATOM     21  C   UNL     1       9.913  10.919  18.021  0.00  0.00    +0.000 C 
BRANCH  21  22
ATOM     22  C   UNL     1       9.342  12.316  18.187  0.00  0.00    +0.000 C 
BRANCH  22  23
ATOM     23  C   UNL     1      10.217  13.358  17.495  0.00  0.00    +0.000 C 
BRANCH  23  24
ATOM     24  C   UNL     1      11.647  13.160  17.969  0.00  0.00    +0.000 C 
BRANCH  24  25
ATOM     25  C   UNL     1      11.798  13.343  19.480  0.00  0.00    +0.000 C 
BRANCH  25  26
ATOM     26  C   UNL     1      11.810  14.832  19.859  0.00  0.00    +0.000 C 
BRANCH  26  28
ATOM     27  C   UNL     1      10.033  14.040  21.474  0.00  0.00    +0.000 C 
ATOM     28  C   UNL     1      10.603  15.234  20.727  0.00  0.00    +0.000 C 
ENDBRANCH  26  28
ENDBRANCH  25  26
ENDBRANCH  24  25
ENDBRANCH  23  24
ENDBRANCH  22  23
ENDBRANCH  21  22
ENDBRANCH  20  21
ENDBRANCH  19  20
ENDBRANCH  18  19
ENDBRANCH  16  18
ENDBRANCH  15  16
ENDBRANCH   1  15
BRANCH  13  29
ATOM     29  C   UNL     1       3.669   7.141  17.416  0.00  0.00    +0.000 C 
BRANCH  29  30
ATOM     30  O   UNL     1       2.446   7.007  18.088  0.00  0.00    +0.000 OA
ATOM     31  H   UNL     1       2.297   7.854  18.580  0.00  0.00    +0.000 HD
ENDBRANCH  29  30
ENDBRANCH  13  29
TORSDOF 14
ENDMDL
MODEL 7
REMARK VINA RESULT:      -6.4      6.507     10.033
REMARK  Name = 
REMARK  15 active torsions:
REMARK  status: ('A' for Active; 'I' for Inactive)
REMARK    1  A    between atoms: C_1  and  C_2
REMARK    2  A    between atoms: C_2  and  C_3
REMARK    3  A    between atoms: C_3  and  C_4
REMARK    4  A    between atoms: C_4  and  C_5
REMARK    5  A    between atoms: C_5  and  C_6
REMARK    6  A    between atoms: C_6  and  C_7
REMARK    7  A    between atoms: C_7  and  C_8
REMARK    8  A    between atoms: C_8  and  C_9
REMARK    9  A    between atoms: C_9  and  C_10
REMARK   10  A    between atoms: C_10  and  C_11
REMARK   11  A    between atoms: C_11  and  C_12
REMARK   12  A    between atoms: C_12  and  O_14
REMARK   13  A    between atoms: O_14  and  C_15
REMARK   14  A    between atoms: C_27  and  C_28
REMARK   15  A    between atoms: C_28  and  O_29
REMARK                            x       y       z     vdW  Elec       q    Type
REMARK                         _______ _______ _______ _____ _____    ______ ____
ROOT
ATOM      1  C   UNL     1       0.564   9.621  19.626  0.00  0.00    +0.000 C 
ATOM      2  C   UNL     1       0.587  10.292  20.957  0.00  0.00    +0.000 C 
ATOM      3  O   UNL     1      -0.630  10.296  21.618  0.00  0.00    +0.000 OA
ATOM      4  C   UNL     1      -0.872  11.540  22.038  0.00  0.00    +0.000 A 
ATOM      5  N   UNL     1      -1.841  11.878  22.922  0.00  0.00    +0.000 NA
ATOM      6  C   UNL     1      -1.970  13.180  23.307  0.00  0.00    +0.000 A 
ATOM      7  N   UNL     1      -2.867  13.512  24.160  0.00  0.00    +0.000 NA
ATOM      8  C   UNL     1      -1.114  14.162  22.765  0.00  0.00    +0.000 A 
ATOM      9  C   UNL     1      -0.135  13.768  21.841  0.00  0.00    +0.000 A 
ATOM     10  N   UNL     1      -0.045  12.449  21.528  0.00  0.00    +0.000 N 
ATOM     11  C   UNL     1       0.856  11.764  20.613  0.00  0.00    +0.000 C 
ATOM     12  O   UNL     1       0.452  11.995  19.270  0.00  0.00    +0.000 OA
ATOM     13  C   UNL     1       0.146  10.740  18.672  0.00  0.00    +0.000 C 
ATOM     14  H   UNL     1      -3.499  12.809  24.572  0.00  0.00    +0.000 HD
ENDROOT
BRANCH   1  15
ATOM     15  O   UNL     1       1.846   9.221  19.289  0.00  0.00    +0.000 OA
BRANCH  15  16
ATOM     16  C   UNL     1       2.112   8.405  18.234  0.00  0.00    +0.000 C 
ATOM     17  O   UNL     1       2.595   8.847  17.200  0.00  0.00    +0.000 OA
BRANCH  16  18
ATOM     18  C   UNL     1       1.889   6.935  18.369  0.00  0.00    +0.000 C 
BRANCH  18  19
ATOM     19  C   UNL     1       2.758   6.420  19.516  0.00  0.00    +0.000 C 
BRANCH  19  20
ATOM     20  C   UNL     1       3.927   5.600  18.991  0.00  0.00    +0.000 C 
BRANCH  20  21
ATOM     21  C   UNL     1       3.707   5.269  17.517  0.00  0.00    +0.000 C 
BRANCH  21  22
ATOM     22  C   UNL     1       4.028   3.806  17.271  0.00  0.00    +0.000 C 
BRANCH  22  23
ATOM     23  C   UNL     1       2.756   2.990  17.046  0.00  0.00    +0.000 C 
BRANCH  23  24
ATOM     24  C   UNL     1       2.401   2.303  18.354  0.00  0.00    +0.000 C 
BRANCH  24  25
ATOM     25  C   UNL     1       0.922   2.447  18.713  0.00  0.00    +0.000 C 
BRANCH  25  26
ATOM     26  C   UNL     1       0.732   3.398  19.906  0.00  0.00    +0.000 C 
BRANCH  26  28
ATOM     27  C   UNL     1       2.383   3.604  21.809  0.00  0.00    +0.000 C 
ATOM     28  C   UNL     1       1.232   2.797  21.231  0.00  0.00    +0.000 C 
ENDBRANCH  26  28
ENDBRANCH  25  26
ENDBRANCH  24  25
ENDBRANCH  23  24
ENDBRANCH  22  23
ENDBRANCH  21  22
ENDBRANCH  20  21
ENDBRANCH  19  20
ENDBRANCH  18  19
ENDBRANCH  16  18
ENDBRANCH  15  16
ENDBRANCH   1  15
BRANCH  13  29
ATOM     29  C   UNL     1      -1.338  10.643  18.298  0.00  0.00    +0.000 C 
BRANCH  29  30
ATOM     30  O   UNL     1      -1.526  10.927  16.938  0.00  0.00    +0.000 OA
ATOM     31  H   UNL     1      -1.546  11.914  16.855  0.00  0.00    +0.000 HD
ENDBRANCH  29  30
ENDBRANCH  13  29
TORSDOF 14
ENDMDL
MODEL 8
REMARK VINA RESULT:      -6.4      1.100      1.472
REMARK  Name = 
REMARK  15 active torsions:
REMARK  status: ('A' for Active; 'I' for Inactive)
REMARK    1  A    between atoms: C_1  and  C_2
REMARK    2  A    between atoms: C_2  and  C_3
REMARK    3  A    between atoms: C_3  and  C_4
REMARK    4  A    between atoms: C_4  and  C_5
REMARK    5  A    between atoms: C_5  and  C_6
REMARK    6  A    between atoms: C_6  and  C_7
REMARK    7  A    between atoms: C_7  and  C_8
REMARK    8  A    between atoms: C_8  and  C_9
REMARK    9  A    between atoms: C_9  and  C_10
REMARK   10  A    between atoms: C_10  and  C_11
REMARK   11  A    between atoms: C_11  and  C_12
REMARK   12  A    between atoms: C_12  and  O_14
REMARK   13  A    between atoms: O_14  and  C_15
REMARK   14  A    between atoms: C_27  and  C_28
REMARK   15  A    between atoms: C_28  and  O_29
REMARK                            x       y       z     vdW  Elec       q    Type
REMARK                         _______ _______ _______ _____ _____    ______ ____
ROOT
ATOM      1  C   UNL     1       7.030   5.533  18.247  0.00  0.00    +0.000 C 
ATOM      2  C   UNL     1       5.841   5.112  19.042  0.00  0.00    +0.000 C 
ATOM      3  O   UNL     1       5.499   3.778  18.898  0.00  0.00    +0.000 OA
ATOM      4  C   UNL     1       4.189   3.710  18.649  0.00  0.00    +0.000 A 
ATOM      5  N   UNL     1       3.457   2.570  18.690  0.00  0.00    +0.000 NA
ATOM      6  C   UNL     1       2.115   2.629  18.453  0.00  0.00    +0.000 A 
ATOM      7  N   UNL     1       1.406   1.562  18.511  0.00  0.00    +0.000 NA
ATOM      8  C   UNL     1       1.508   3.865  18.147  0.00  0.00    +0.000 A 
ATOM      9  C   UNL     1       2.308   5.016  18.100  0.00  0.00    +0.000 A 
ATOM     10  N   UNL     1       3.631   4.887  18.377  0.00  0.00    +0.000 N 
ATOM     11  C   UNL     1       4.685   5.892  18.399  0.00  0.00    +0.000 C 
ATOM     12  O   UNL     1       5.055   6.236  17.071  0.00  0.00    +0.000 OA
ATOM     13  C   UNL     1       6.432   5.922  16.895  0.00  0.00    +0.000 C 
ATOM     14  H   UNL     1       1.830   0.651  18.739  0.00  0.00    +0.000 HD
ENDROOT
BRANCH   1  15
ATOM     15  O   UNL     1       7.587   6.666  18.816  0.00  0.00    +0.000 OA
BRANCH  15  16
ATOM     16  C   UNL     1       8.049   7.712  18.078  0.00  0.00    +0.000 C 
ATOM     17  O   UNL     1       7.792   7.806  16.885  0.00  0.00    +0.000 OA
BRANCH  16  18
ATOM     18  C   UNL     1       8.811   8.805  18.752  0.00  0.00    +0.000 C 
BRANCH  18  19
ATOM     19  C   UNL     1       8.640  10.084  17.934  0.00  0.00    +0.000 C 
BRANCH  19  20
ATOM     20  C   UNL     1       9.699  11.114  18.300  0.00  0.00    +0.000 C 
BRANCH  20  21
ATOM     21  C   UNL     1       9.249  12.502  17.852  0.00  0.00    +0.000 C 
BRANCH  21  22
ATOM     22  C   UNL     1      10.410  13.226  17.196  0.00  0.00    +0.000 C 
BRANCH  22  23
ATOM     23  C   UNL     1      11.013  14.271  18.133  0.00  0.00    +0.000 C 
BRANCH  23  24
ATOM     24  C   UNL     1       9.995  14.567  19.222  0.00  0.00    +0.000 C 
BRANCH  24  25
ATOM     25  C   UNL     1      10.638  14.746  20.598  0.00  0.00    +0.000 C 
BRANCH  25  26
ATOM     26  C   UNL     1       9.830  14.020  21.685  0.00  0.00    +0.000 C 
BRANCH  26  28
ATOM     27  C   UNL     1       8.587  11.823  21.822  0.00  0.00    +0.000 C 
ATOM     28  C   UNL     1       9.931  12.488  21.577  0.00  0.00    +0.000 C 
ENDBRANCH  26  28
ENDBRANCH  25  26
ENDBRANCH  24  25
ENDBRANCH  23  24
ENDBRANCH  22  23
ENDBRANCH  21  22
ENDBRANCH  20  21
ENDBRANCH  19  20
ENDBRANCH  18  19
ENDBRANCH  16  18
ENDBRANCH  15  16
ENDBRANCH   1  15
BRANCH  13  29
ATOM     29  C   UNL     1       6.627   4.817  15.850  0.00  0.00    +0.000 C 
BRANCH  29  30
ATOM     30  O   UNL     1       6.893   5.369  14.589  0.00  0.00    +0.000 OA
ATOM     31  H   UNL     1       7.825   5.705  14.617  0.00  0.00    +0.000 HD
ENDBRANCH  29  30
ENDBRANCH  13  29
TORSDOF 14
ENDMDL
MODEL 9
REMARK VINA RESULT:      -6.4      5.365      7.747
REMARK  Name = 
REMARK  15 active torsions:
REMARK  status: ('A' for Active; 'I' for Inactive)
REMARK    1  A    between atoms: C_1  and  C_2
REMARK    2  A    between atoms: C_2  and  C_3
REMARK    3  A    between atoms: C_3  and  C_4
REMARK    4  A    between atoms: C_4  and  C_5
REMARK    5  A    between atoms: C_5  and  C_6
REMARK    6  A    between atoms: C_6  and  C_7
REMARK    7  A    between atoms: C_7  and  C_8
REMARK    8  A    between atoms: C_8  and  C_9
REMARK    9  A    between atoms: C_9  and  C_10
REMARK   10  A    between atoms: C_10  and  C_11
REMARK   11  A    between atoms: C_11  and  C_12
REMARK   12  A    between atoms: C_12  and  O_14
REMARK   13  A    between atoms: O_14  and  C_15
REMARK   14  A    between atoms: C_27  and  C_28
REMARK   15  A    between atoms: C_28  and  O_29
REMARK                            x       y       z     vdW  Elec       q    Type
REMARK                         _______ _______ _______ _____ _____    ______ ____
ROOT
ATOM      1  C   UNL     1       3.097   3.767  19.296  0.00  0.00    +0.000 C 
ATOM      2  C   UNL     1       3.719   4.676  18.290  0.00  0.00    +0.000 C 
ATOM      3  O   UNL     1       3.626   4.230  16.982  0.00  0.00    +0.000 OA
ATOM      4  C   UNL     1       4.838   4.316  16.428  0.00  0.00    +0.000 A 
ATOM      5  N   UNL     1       5.086   4.198  15.101  0.00  0.00    +0.000 NA
ATOM      6  C   UNL     1       6.363   4.341  14.644  0.00  0.00    +0.000 A 
ATOM      7  N   UNL     1       6.610   4.255  13.389  0.00  0.00    +0.000 NA
ATOM      8  C   UNL     1       7.413   4.584  15.555  0.00  0.00    +0.000 A 
ATOM      9  C   UNL     1       7.111   4.682  16.921  0.00  0.00    +0.000 A 
ATOM     10  N   UNL     1       5.812   4.560  17.300  0.00  0.00    +0.000 N 
ATOM     11  C   UNL     1       5.215   4.613  18.627  0.00  0.00    +0.000 C 
ATOM     12  O   UNL     1       5.472   3.401  19.322  0.00  0.00    +0.000 OA
ATOM     13  C   UNL     1       4.224   2.793  19.638  0.00  0.00    +0.000 C 
ATOM     14  H   UNL     1       5.856   4.084  12.707  0.00  0.00    +0.000 HD
ENDROOT
BRANCH   1  15
ATOM     15  O   UNL     1       2.785   4.488  20.437  0.00  0.00    +0.000 OA
BRANCH  15  16
ATOM     16  C   UNL     1       1.829   5.455  20.460  0.00  0.00    +0.000 C 
ATOM     17  O   UNL     1       0.652   5.175  20.646  0.00  0.00    +0.000 OA
BRANCH  16  18
ATOM     18  C   UNL     1       2.232   6.888  20.343  0.00  0.00    +0.000 C 
BRANCH  18  19
ATOM     19  C   UNL     1       1.139   7.748  20.976  0.00  0.00    +0.000 C 
BRANCH  19  20
ATOM     20  C   UNL     1       1.008   9.082  20.258  0.00  0.00    +0.000 C 
BRANCH  20  21
ATOM     21  C   UNL     1       0.114  10.020  21.066  0.00  0.00    +0.000 C 
BRANCH  21  22
ATOM     22  C   UNL     1       0.645  11.438  20.969  0.00  0.00    +0.000 C 
BRANCH  22  23
ATOM     23  C   UNL     1      -0.213  12.290  20.036  0.00  0.00    +0.000 C 
BRANCH  23  24
ATOM     24  C   UNL     1      -1.486  11.517  19.734  0.00  0.00    +0.000 C 
BRANCH  24  25
ATOM     25  C   UNL     1      -1.826  11.499  18.243  0.00  0.00    +0.000 C 
BRANCH  25  26
ATOM     26  C   UNL     1      -1.875  10.060  17.705  0.00  0.00    +0.000 C 
BRANCH  26  28
ATOM     27  C   UNL     1      -2.767  10.251  15.347  0.00  0.00    +0.000 C 
ATOM     28  C   UNL     1      -3.074   9.816  16.770  0.00  0.00    +0.000 C 
ENDBRANCH  26  28
ENDBRANCH  25  26
ENDBRANCH  24  25
ENDBRANCH  23  24
ENDBRANCH  22  23
ENDBRANCH  21  22
ENDBRANCH  20  21
ENDBRANCH  19  20
ENDBRANCH  18  19
ENDBRANCH  16  18
ENDBRANCH  15  16
ENDBRANCH   1  15
BRANCH  13  29
ATOM     29  C   UNL     1       4.053   1.451  18.915  0.00  0.00    +0.000 C 
BRANCH  29  30
ATOM     30  O   UNL     1       2.859   1.434  18.179  0.00  0.00    +0.000 OA
ATOM     31  H   UNL     1       3.106   1.227  17.242  0.00  0.00    +0.000 HD
ENDBRANCH  29  30
ENDBRANCH  13  29
TORSDOF 14
ENDMDL
