MODEL 1
REMARK VINA RESULT:      -7.6      0.000      0.000
REMARK  Name = 
REMARK  4 active torsions:
REMARK  status: ('A' for Active; 'I' for Inactive)
REMARK    1  A    between atoms: C_2  and  C_3
REMARK    2  A    between atoms: C_2  and  C_15
REMARK    3  A    between atoms: C_4  and  C_5
REMARK    4  A    between atoms: C_7  and  N_8
REMARK                            x       y       z     vdW  Elec       q    Type
REMARK                         _______ _______ _______ _____ _____    ______ ____
ROOT
ATOM      1  C   UNL     1       3.783   5.273  18.830  0.00  0.00    +0.000 A 
ATOM      2  C   UNL     1       3.493   4.169  19.650  0.00  0.00    +0.000 A 
ATOM      3  C   UNL     1       2.444   4.239  20.578  0.00  0.00    +0.000 A 
ATOM      4  C   UNL     1       1.684   5.407  20.706  0.00  0.00    +0.000 A 
ATOM      5  C   UNL     1       1.968   6.503  19.887  0.00  0.00    +0.000 A 
ATOM      6  C   UNL     1       3.007   6.437  18.948  0.00  0.00    +0.000 A 
ATOM      7 CL   UNL     1       3.288   7.822  17.956  0.00  0.00    +0.000 Cl
ENDROOT
BRANCH   3   8
ATOM      8  N   UNL     1       2.135   3.070  21.412  0.00  0.00    +0.000 N 
ATOM      9  O   UNL     1       3.082   2.466  21.932  0.00  0.00    +0.000 OA
ATOM     10  O   UNL     1       0.942   2.756  21.540  0.00  0.00    +0.000 OA
ENDBRANCH   3   8
BRANCH   1  12
ATOM     11  C   UNL     1       5.994   4.410  18.195  0.00  0.00    +0.000 C 
ATOM     12  C   UNL     1       4.899   5.124  17.889  0.00  0.00    +0.000 C 
BRANCH  11  14
ATOM     13  O   UNL     1       8.314   4.366  17.745  0.00  0.00    +0.000 OA
ATOM     14  C   UNL     1       7.177   4.409  17.277  0.00  0.00    +0.000 C 
BRANCH  14  15
ATOM     15  C   UNL     1       6.917   4.411  15.851  0.00  0.00    +0.000 A 
ATOM     16  C   UNL     1       6.039   3.652  15.098  0.00  0.00    +0.000 A 
ATOM     17  C   UNL     1       6.192   4.060  13.751  0.00  0.00    +0.000 A 
ATOM     18  C   UNL     1       7.153   5.041  13.759  0.00  0.00    +0.000 A 
ATOM     19  O   UNL     1       7.595   5.267  15.023  0.00  0.00    +0.000 OA
ENDBRANCH  14  15
ENDBRANCH  11  14
ENDBRANCH   1  12
TORSDOF 4
ENDMDL
MODEL 2
REMARK VINA RESULT:      -7.4      1.102      1.138
REMARK  Name = 
REMARK  4 active torsions:
REMARK  status: ('A' for Active; 'I' for Inactive)
REMARK    1  A    between atoms: C_2  and  C_3
REMARK    2  A    between atoms: C_2  and  C_15
REMARK    3  A    between atoms: C_4  and  C_5
REMARK    4  A    between atoms: C_7  and  N_8
REMARK                            x       y       z     vdW  Elec       q    Type
REMARK                         _______ _______ _______ _____ _____    ______ ____
ROOT
ATOM      1  C   UNL     1       3.478   6.020  18.714  0.00  0.00    +0.000 A 
ATOM      2  C   UNL     1       3.570   4.787  19.383  0.00  0.00    +0.000 A 
ATOM      3  C   UNL     1       2.692   4.489  20.434  0.00  0.00    +0.000 A 
ATOM      4  C   UNL     1       1.724   5.417  20.836  0.00  0.00    +0.000 A 
ATOM      5  C   UNL     1       1.627   6.640  20.168  0.00  0.00    +0.000 A 
ATOM      6  C   UNL     1       2.493   6.940  19.107  0.00  0.00    +0.000 A 
ATOM      7 CL   UNL     1       2.301   8.462  18.315  0.00  0.00    +0.000 Cl
ENDROOT
BRANCH   3   8
ATOM      8  N   UNL     1       2.783   3.189  21.110  0.00  0.00    +0.000 N 
ATOM      9  O   UNL     1       3.581   2.358  20.657  0.00  0.00    +0.000 OA
ATOM     10  O   UNL     1       2.049   2.999  22.091  0.00  0.00    +0.000 OA
ENDBRANCH   3   8
BRANCH   1  12
ATOM     11  C   UNL     1       5.536   5.504  17.476  0.00  0.00    +0.000 C 
ATOM     12  C   UNL     1       4.436   6.258  17.630  0.00  0.00    +0.000 C 
BRANCH  11  14
ATOM     13  O   UNL     1       7.405   6.737  16.720  0.00  0.00    +0.000 OA
ATOM     14  C   UNL     1       6.570   5.873  16.458  0.00  0.00    +0.000 C 
BRANCH  14  15
ATOM     15  C   UNL     1       6.566   5.143  15.205  0.00  0.00    +0.000 A 
ATOM     16  C   UNL     1       5.722   4.146  14.750  0.00  0.00    +0.000 A 
ATOM     17  C   UNL     1       6.171   3.784  13.457  0.00  0.00    +0.000 A 
ATOM     18  C   UNL     1       7.261   4.578  13.198  0.00  0.00    +0.000 A 
ATOM     19  O   UNL     1       7.507   5.408  14.245  0.00  0.00    +0.000 OA
ENDBRANCH  14  15
ENDBRANCH  11  14
ENDBRANCH   1  12
TORSDOF 4
ENDMDL
MODEL 3
REMARK VINA RESULT:      -7.3      2.583      2.869
REMARK  Name = 
REMARK  4 active torsions:
REMARK  status: ('A' for Active; 'I' for Inactive)
REMARK    1  A    between atoms: C_2  and  C_3
REMARK    2  A    between atoms: C_2  and  C_15
REMARK    3  A    between atoms: C_4  and  C_5
REMARK    4  A    between atoms: C_7  and  N_8
REMARK                            x       y       z     vdW  Elec       q    Type
REMARK                         _______ _______ _______ _____ _____    ______ ____
ROOT
ATOM      1  C   UNL     1       4.000   4.304  18.837  0.00  0.00    +0.000 A 
ATOM      2  C   UNL     1       3.580   5.609  19.149  0.00  0.00    +0.000 A 
ATOM      3  C   UNL     1       2.324   5.823  19.735  0.00  0.00    +0.000 A 
ATOM      4  C   UNL     1       1.473   4.745  20.006  0.00  0.00    +0.000 A 
ATOM      5  C   UNL     1       1.892   3.447  19.702  0.00  0.00    +0.000 A 
ATOM      6  C   UNL     1       3.151   3.223  19.128  0.00  0.00    +0.000 A 
ATOM      7 CL   UNL     1       3.610   1.592  18.799  0.00  0.00    +0.000 Cl
ENDROOT
BRANCH   3   8
ATOM      8  N   UNL     1       1.907   7.188  20.078  0.00  0.00    +0.000 N 
ATOM      9  O   UNL     1       1.333   7.361  21.161  0.00  0.00    +0.000 OA
ATOM     10  O   UNL     1       2.149   8.086  19.257  0.00  0.00    +0.000 OA
ENDBRANCH   3   8
BRANCH   1  12
ATOM     11  C   UNL     1       5.690   4.894  17.155  0.00  0.00    +0.000 C 
ATOM     12  C   UNL     1       5.323   4.164  18.220  0.00  0.00    +0.000 C 
BRANCH  11  14
ATOM     13  O   UNL     1       8.002   4.408  17.115  0.00  0.00    +0.000 OA
ATOM     14  C   UNL     1       6.984   4.614  16.456  0.00  0.00    +0.000 C 
BRANCH  14  15
ATOM     15  C   UNL     1       6.962   4.551  15.007  0.00  0.00    +0.000 A 
ATOM     16  C   UNL     1       6.184   3.790  14.155  0.00  0.00    +0.000 A 
ATOM     17  C   UNL     1       6.576   4.120  12.835  0.00  0.00    +0.000 A 
ATOM     18  C   UNL     1       7.569   5.060  12.958  0.00  0.00    +0.000 A 
ATOM     19  O   UNL     1       7.808   5.334  14.266  0.00  0.00    +0.000 OA
ENDBRANCH  14  15
ENDBRANCH  11  14
ENDBRANCH   1  12
TORSDOF 4
ENDMDL
MODEL 4
REMARK VINA RESULT:      -7.3      3.306      7.138
REMARK  Name = 
REMARK  4 active torsions:
REMARK  status: ('A' for Active; 'I' for Inactive)
REMARK    1  A    between atoms: C_2  and  C_3
REMARK    2  A    between atoms: C_2  and  C_15
REMARK    3  A    between atoms: C_4  and  C_5
REMARK    4  A    between atoms: C_7  and  N_8
REMARK                            x       y       z     vdW  Elec       q    Type
REMARK                         _______ _______ _______ _____ _____    ______ ____
ROOT
ATOM      1  C   UNL     1       5.090   4.677  16.173  0.00  0.00    +0.000 A 
ATOM      2  C   UNL     1       4.927   4.170  14.873  0.00  0.00    +0.000 A 
ATOM      3  C   UNL     1       6.014   4.144  13.987  0.00  0.00    +0.000 A 
ATOM      4  C   UNL     1       7.265   4.631  14.382  0.00  0.00    +0.000 A 
ATOM      5  C   UNL     1       7.430   5.130  15.676  0.00  0.00    +0.000 A 
ATOM      6  C   UNL     1       6.352   5.148  16.573  0.00  0.00    +0.000 A 
ATOM      7 CL   UNL     1       6.633   5.760  18.162  0.00  0.00    +0.000 Cl
ENDROOT
BRANCH   3   8
ATOM      8  N   UNL     1       5.837   3.590  12.639  0.00  0.00    +0.000 N 
ATOM      9  O   UNL     1       4.682   3.477  12.208  0.00  0.00    +0.000 OA
ATOM     10  O   UNL     1       6.858   3.262  12.015  0.00  0.00    +0.000 OA
ENDBRANCH   3   8
BRANCH   1  12
ATOM     11  C   UNL     1       3.221   3.552  17.303  0.00  0.00    +0.000 C 
ATOM     12  C   UNL     1       3.905   4.677  17.037  0.00  0.00    +0.000 C 
BRANCH  11  14
ATOM     13  O   UNL     1       0.889   3.903  17.467  0.00  0.00    +0.000 OA
ATOM     14  C   UNL     1       1.929   3.613  18.057  0.00  0.00    +0.000 C 
BRANCH  14  15
ATOM     15  C   UNL     1       1.961   3.272  19.466  0.00  0.00    +0.000 A 
ATOM     16  C   UNL     1       0.978   3.368  20.435  0.00  0.00    +0.000 A 
ATOM     17  C   UNL     1       1.546   2.899  21.644  0.00  0.00    +0.000 A 
ATOM     18  C   UNL     1       2.840   2.547  21.346  0.00  0.00    +0.000 A 
ATOM     19  O   UNL     1       3.101   2.762  20.031  0.00  0.00    +0.000 OA
ENDBRANCH  14  15
ENDBRANCH  11  14
ENDBRANCH   1  12
TORSDOF 4
ENDMDL
MODEL 5
REMARK VINA RESULT:      -7.2      3.017      7.152
REMARK  Name = 
REMARK  4 active torsions:
REMARK  status: ('A' for Active; 'I' for Inactive)
REMARK    1  A    between atoms: C_2  and  C_3
REMARK    2  A    between atoms: C_2  and  C_15
REMARK    3  A    between atoms: C_4  and  C_5
REMARK    4  A    between atoms: C_7  and  N_8
REMARK                            x       y       z     vdW  Elec       q    Type
REMARK                         _______ _______ _______ _____ _____    ______ ____
ROOT
ATOM      1  C   UNL     1       5.137   4.228  16.647  0.00  0.00    +0.000 A 
ATOM      2  C   UNL     1       5.352   4.058  15.268  0.00  0.00    +0.000 A 
ATOM      3  C   UNL     1       6.535   4.524  14.678  0.00  0.00    +0.000 A 
ATOM      4  C   UNL     1       7.508   5.172  15.449  0.00  0.00    +0.000 A 
ATOM      5  C   UNL     1       7.297   5.337  16.821  0.00  0.00    +0.000 A 
ATOM      6  C   UNL     1       6.123   4.862  17.421  0.00  0.00    +0.000 A 
ATOM      7 CL   UNL     1       5.940   5.082  19.124  0.00  0.00    +0.000 Cl
ENDROOT
BRANCH   3   8
ATOM      8  N   UNL     1       6.759   4.319  13.241  0.00  0.00    +0.000 N 
ATOM      9  O   UNL     1       6.053   3.485  12.661  0.00  0.00    +0.000 OA
ATOM     10  O   UNL     1       7.648   4.991  12.697  0.00  0.00    +0.000 OA
ENDBRANCH   3   8
BRANCH   1  12
ATOM     11  C   UNL     1       2.847   4.534  17.481  0.00  0.00    +0.000 C 
ATOM     12  C   UNL     1       3.872   3.719  17.187  0.00  0.00    +0.000 C 
BRANCH  11  14
ATOM     13  O   UNL     1       0.605   3.789  17.535  0.00  0.00    +0.000 OA
ATOM     14  C   UNL     1       1.633   4.001  18.177  0.00  0.00    +0.000 C 
BRANCH  14  15
ATOM     15  C   UNL     1       1.747   3.710  19.593  0.00  0.00    +0.000 A 
ATOM     16  C   UNL     1       2.464   4.351  20.586  0.00  0.00    +0.000 A 
ATOM     17  C   UNL     1       2.220   3.648  21.790  0.00  0.00    +0.000 A 
ATOM     18  C   UNL     1       1.370   2.620  21.463  0.00  0.00    +0.000 A 
ATOM     19  O   UNL     1       1.072   2.650  20.139  0.00  0.00    +0.000 OA
ENDBRANCH  14  15
ENDBRANCH  11  14
ENDBRANCH   1  12
TORSDOF 4
ENDMDL
MODEL 6
REMARK VINA RESULT:      -7.2      3.114      7.103
REMARK  Name = 
REMARK  4 active torsions:
REMARK  status: ('A' for Active; 'I' for Inactive)
REMARK    1  A    between atoms: C_2  and  C_3
REMARK    2  A    between atoms: C_2  and  C_15
REMARK    3  A    between atoms: C_4  and  C_5
REMARK    4  A    between atoms: C_7  and  N_8
REMARK                            x       y       z     vdW  Elec       q    Type
REMARK                         _______ _______ _______ _____ _____    ______ ____
ROOT
ATOM      1  C   UNL     1       5.156   4.230  16.611  0.00  0.00    +0.000 A 
ATOM      2  C   UNL     1       5.443   4.184  15.236  0.00  0.00    +0.000 A 
ATOM      3  C   UNL     1       6.681   4.638  14.760  0.00  0.00    +0.000 A 
ATOM      4  C   UNL     1       7.639   5.149  15.644  0.00  0.00    +0.000 A 
ATOM      5  C   UNL     1       7.357   5.190  17.012  0.00  0.00    +0.000 A 
ATOM      6  C   UNL     1       6.126   4.727  17.497  0.00  0.00    +0.000 A 
ATOM      7 CL   UNL     1       5.855   4.788  19.201  0.00  0.00    +0.000 Cl
ENDROOT
BRANCH   3   8
ATOM      8  N   UNL     1       6.979   4.563  13.324  0.00  0.00    +0.000 N 
ATOM      9  O   UNL     1       7.780   5.383  12.857  0.00  0.00    +0.000 OA
ATOM     10  O   UNL     1       6.403   3.684  12.664  0.00  0.00    +0.000 OA
ENDBRANCH   3   8
BRANCH   1  12
ATOM     11  C   UNL     1       2.930   4.553  17.599  0.00  0.00    +0.000 C 
ATOM     12  C   UNL     1       3.837   3.743  17.029  0.00  0.00    +0.000 C 
BRANCH  11  14
ATOM     13  O   UNL     1       0.676   3.864  17.425  0.00  0.00    +0.000 OA
ATOM     14  C   UNL     1       1.659   3.991  18.155  0.00  0.00    +0.000 C 
BRANCH  14  15
ATOM     15  C   UNL     1       1.664   3.569  19.542  0.00  0.00    +0.000 A 
ATOM     16  C   UNL     1       0.864   2.656  20.205  0.00  0.00    +0.000 A 
ATOM     17  C   UNL     1       1.299   2.631  21.552  0.00  0.00    +0.000 A 
ATOM     18  C   UNL     1       2.336   3.528  21.634  0.00  0.00    +0.000 A 
ATOM     19  O   UNL     1       2.570   4.098  20.424  0.00  0.00    +0.000 OA
ENDBRANCH  14  15
ENDBRANCH  11  14
ENDBRANCH   1  12
TORSDOF 4
ENDMDL
MODEL 7
REMARK VINA RESULT:      -7.2      4.117      5.812
REMARK  Name = 
REMARK  4 active torsions:
REMARK  status: ('A' for Active; 'I' for Inactive)
REMARK    1  A    between atoms: C_2  and  C_3
REMARK    2  A    between atoms: C_2  and  C_15
REMARK    3  A    between atoms: C_4  and  C_5
REMARK    4  A    between atoms: C_7  and  N_8
REMARK                            x       y       z     vdW  Elec       q    Type
REMARK                         _______ _______ _______ _____ _____    ______ ____
ROOT
ATOM      1  C   UNL     1       1.679   7.740  20.266  0.00  0.00    +0.000 A 
ATOM      2  C   UNL     1       1.076   8.224  21.440  0.00  0.00    +0.000 A 
ATOM      3  C   UNL     1       0.570   9.530  21.484  0.00  0.00    +0.000 A 
ATOM      4  C   UNL     1       0.667  10.369  20.368  0.00  0.00    +0.000 A 
ATOM      5  C   UNL     1       1.260   9.887  19.198  0.00  0.00    +0.000 A 
ATOM      6  C   UNL     1       1.758   8.578  19.141  0.00  0.00    +0.000 A 
ATOM      7 CL   UNL     1       2.459   8.044  17.657  0.00  0.00    +0.000 Cl
ENDROOT
BRANCH   3   8
ATOM      8  N   UNL     1      -0.079  10.016  22.709  0.00  0.00    +0.000 N 
ATOM      9  O   UNL     1      -1.053  10.769  22.586  0.00  0.00    +0.000 OA
ATOM     10  O   UNL     1       0.394   9.646  23.794  0.00  0.00    +0.000 OA
ENDBRANCH   3   8
BRANCH   1  12
ATOM     11  C   UNL     1       1.447   5.344  20.756  0.00  0.00    +0.000 C 
ATOM     12  C   UNL     1       2.190   6.366  20.302  0.00  0.00    +0.000 C 
BRANCH  11  14
ATOM     13  O   UNL     1       2.233   3.533  22.055  0.00  0.00    +0.000 OA
ATOM     14  C   UNL     1       2.053   3.985  20.925  0.00  0.00    +0.000 C 
BRANCH  14  15
ATOM     15  C   UNL     1       2.359   3.235  19.723  0.00  0.00    +0.000 A 
ATOM     16  C   UNL     1       1.714   3.198  18.500  0.00  0.00    +0.000 A 
ATOM     17  C   UNL     1       2.435   2.295  17.682  0.00  0.00    +0.000 A 
ATOM     18  C   UNL     1       3.475   1.833  18.451  0.00  0.00    +0.000 A 
ATOM     19  O   UNL     1       3.444   2.398  19.686  0.00  0.00    +0.000 OA
ENDBRANCH  14  15
ENDBRANCH  11  14
ENDBRANCH   1  12
TORSDOF 4
ENDMDL
MODEL 8
REMARK VINA RESULT:      -7.1      2.582      3.631
REMARK  Name = 
REMARK  4 active torsions:
REMARK  status: ('A' for Active; 'I' for Inactive)
REMARK    1  A    between atoms: C_2  and  C_3
REMARK    2  A    between atoms: C_2  and  C_15
REMARK    3  A    between atoms: C_4  and  C_5
REMARK    4  A    between atoms: C_7  and  N_8
REMARK                            x       y       z     vdW  Elec       q    Type
REMARK                         _______ _______ _______ _____ _____    ______ ____
ROOT
ATOM      1  C   UNL     1       5.510   4.314  16.968  0.00  0.00    +0.000 A 
ATOM      2  C   UNL     1       4.192   3.832  16.897  0.00  0.00    +0.000 A 
ATOM      3  C   UNL     1       3.354   3.907  18.019  0.00  0.00    +0.000 A 
ATOM      4  C   UNL     1       3.821   4.452  19.221  0.00  0.00    +0.000 A 
ATOM      5  C   UNL     1       5.130   4.937  19.291  0.00  0.00    +0.000 A 
ATOM      6  C   UNL     1       5.970   4.877  18.170  0.00  0.00    +0.000 A 
ATOM      7 CL   UNL     1       7.568   5.514  18.323  0.00  0.00    +0.000 Cl
ENDROOT
BRANCH   3   8
ATOM      8  N   UNL     1       1.971   3.422  17.925  0.00  0.00    +0.000 N 
ATOM      9  O   UNL     1       1.712   2.319  18.425  0.00  0.00    +0.000 OA
ATOM     10  O   UNL     1       1.147   4.145  17.346  0.00  0.00    +0.000 OA
ENDBRANCH   3   8
BRANCH   1  12
ATOM     11  C   UNL     1       6.165   5.017  14.707  0.00  0.00    +0.000 C 
ATOM     12  C   UNL     1       6.326   4.193  15.755  0.00  0.00    +0.000 C 
BRANCH  11  14
ATOM     13  O   UNL     1       7.915   5.415  13.170  0.00  0.00    +0.000 OA
ATOM     14  C   UNL     1       6.902   4.766  13.428  0.00  0.00    +0.000 C 
BRANCH  14  15
ATOM     15  C   UNL     1       6.403   3.716  12.563  0.00  0.00    +0.000 A 
ATOM     16  C   UNL     1       7.081   2.749  11.843  0.00  0.00    +0.000 A 
ATOM     17  C   UNL     1       6.105   1.979  11.166  0.00  0.00    +0.000 A 
ATOM     18  C   UNL     1       4.890   2.521  11.509  0.00  0.00    +0.000 A 
ATOM     19  O   UNL     1       5.057   3.567  12.358  0.00  0.00    +0.000 OA
ENDBRANCH  14  15
ENDBRANCH  11  14
ENDBRANCH   1  12
TORSDOF 4
ENDMDL
MODEL 9
REMARK VINA RESULT:      -7.1      2.540      3.608
REMARK  Name = 
REMARK  4 active torsions:
REMARK  status: ('A' for Active; 'I' for Inactive)
REMARK    1  A    between atoms: C_2  and  C_3
REMARK    2  A    between atoms: C_2  and  C_15
REMARK    3  A    between atoms: C_4  and  C_5
REMARK    4  A    between atoms: C_7  and  N_8
REMARK                            x       y       z     vdW  Elec       q    Type
REMARK                         _______ _______ _______ _____ _____    ______ ____
ROOT
ATOM      1  C   UNL     1       5.370   4.316  16.939  0.00  0.00    +0.000 A 
ATOM      2  C   UNL     1       3.984   4.093  16.984  0.00  0.00    +0.000 A 
ATOM      3  C   UNL     1       3.277   4.293  18.178  0.00  0.00    +0.000 A 
ATOM      4  C   UNL     1       3.944   4.706  19.338  0.00  0.00    +0.000 A 
ATOM      5  C   UNL     1       5.322   4.934  19.293  0.00  0.00    +0.000 A 
ATOM      6  C   UNL     1       6.033   4.748  18.100  0.00  0.00    +0.000 A 
ATOM      7 CL   UNL     1       7.730   5.068  18.112  0.00  0.00    +0.000 Cl
ENDROOT
BRANCH   3   8
ATOM      8  N   UNL     1       1.825   4.079  18.207  0.00  0.00    +0.000 N 
ATOM      9  O   UNL     1       1.293   3.875  19.306  0.00  0.00    +0.000 OA
ATOM     10  O   UNL     1       1.219   4.111  17.126  0.00  0.00    +0.000 OA
ENDBRANCH   3   8
BRANCH   1  12
ATOM     11  C   UNL     1       6.320   5.078  14.806  0.00  0.00    +0.000 C 
ATOM     12  C   UNL     1       6.038   4.077  15.655  0.00  0.00    +0.000 C 
BRANCH  11  14
ATOM     13  O   UNL     1       7.902   5.314  13.065  0.00  0.00    +0.000 OA
ATOM     14  C   UNL     1       6.857   4.782  13.440  0.00  0.00    +0.000 C 
BRANCH  14  15
ATOM     15  C   UNL     1       6.130   3.826  12.628  0.00  0.00    +0.000 A 
ATOM     16  C   UNL     1       4.792   3.779  12.280  0.00  0.00    +0.000 A 
ATOM     17  C   UNL     1       4.618   2.630  11.471  0.00  0.00    +0.000 A 
ATOM     18  C   UNL     1       5.856   2.043  11.373  0.00  0.00    +0.000 A 
ATOM     19  O   UNL     1       6.780   2.761  12.063  0.00  0.00    +0.000 OA
ENDBRANCH  14  15
ENDBRANCH  11  14
ENDBRANCH   1  12
TORSDOF 4
ENDMDL
