MODEL 1
REMARK VINA RESULT:      -8.8      0.000      0.000
REMARK  Name = 
REMARK  6 active torsions:
REMARK  status: ('A' for Active; 'I' for Inactive)
REMARK    1  A    between atoms: C_1  and  O_2
REMARK    2  A    between atoms: O_2  and  C_3
REMARK    3  A    between atoms: C_6  and  C_7
REMARK    4  A    between atoms: C_11  and  N_12
REMARK    5  A    between atoms: C_14  and  C_15
REMARK    6  A    between atoms: C_19  and  C_20
REMARK                            x       y       z     vdW  Elec       q    Type
REMARK                         _______ _______ _______ _____ _____    ______ ____
ROOT
ATOM      1  N   UNL     1       4.833   5.054  17.822  0.00  0.00    +0.000 N 
ATOM      2  C   UNL     1       4.754   4.997  16.448  0.00  0.00    +0.000 A 
ATOM      3  C   UNL     1       6.042   4.784  16.019  0.00  0.00    +0.000 A 
ATOM      4  N   UNL     1       6.875   4.761  17.098  0.00  0.00    +0.000 NA
ATOM      5  N   UNL     1       6.140   4.930  18.186  0.00  0.00    +0.000 NA
ENDROOT
BRANCH   1  11
ATOM      6  C   UNL     1       3.095   6.396  19.009  0.00  0.00    +0.000 A 
ATOM      7  C   UNL     1       2.080   6.430  19.979  0.00  0.00    +0.000 A 
ATOM      8  C   UNL     1       1.814   5.320  20.783  0.00  0.00    +0.000 A 
ATOM      9  C   UNL     1       2.552   4.151  20.621  0.00  0.00    +0.000 A 
ATOM     10  C   UNL     1       3.534   4.085  19.628  0.00  0.00    +0.000 A 
ATOM     11  C   UNL     1       3.815   5.203  18.810  0.00  0.00    +0.000 A 
BRANCH   9  12
ATOM     12  C   UNL     1       2.296   2.975  21.496  0.00  0.00    +0.000 C 
ATOM     13  N   UNL     1       3.230   2.150  21.849  0.00  0.00    +0.000 NA
ATOM     14  N   UNL     1       1.044   2.719  21.965  0.00  0.00    +0.000 N 
ATOM     15  H   UNL     1       4.123   2.382  21.407  0.00  0.00    +0.000 HD
ATOM     16  H   UNL     1       0.465   3.518  22.195  0.00  0.00    +0.000 HD
ATOM     17  H   UNL     1       1.061   2.016  22.698  0.00  0.00    +0.000 HD
ENDBRANCH   9  12
BRANCH   6  19
ATOM     18  C   UNL     1       2.209   8.286  17.878  0.00  0.00    +0.000 C 
ATOM     19  O   UNL     1       3.340   7.483  18.213  0.00  0.00    +0.000 OA
ENDBRANCH   6  19
ENDBRANCH   1  11
BRANCH   3  20
ATOM     20  C   UNL     1       6.483   4.599  14.653  0.00  0.00    +0.000 A 
ATOM     21  C   UNL     1       7.532   5.356  14.109  0.00  0.00    +0.000 A 
ATOM     22  C   UNL     1       7.907   5.194  12.774  0.00  0.00    +0.000 A 
ATOM     23  C   UNL     1       7.237   4.272  11.966  0.00  0.00    +0.000 A 
ATOM     24  C   UNL     1       6.198   3.504  12.499  0.00  0.00    +0.000 A 
ATOM     25  C   UNL     1       5.824   3.669  13.838  0.00  0.00    +0.000 A 
BRANCH  24  26
ATOM     26  C   UNL     1       5.454   2.531  11.652  0.00  0.00    +0.000 C 
ATOM     27  N   UNL     1       5.922   1.365  11.337  0.00  0.00    +0.000 NA
ATOM     28  N   UNL     1       4.223   2.848  11.161  0.00  0.00    +0.000 N 
ATOM     29  H   UNL     1       6.824   1.188  11.785  0.00  0.00    +0.000 HD
ATOM     30  H   UNL     1       4.068   3.818  10.911  0.00  0.00    +0.000 HD
ATOM     31  H   UNL     1       3.935   2.198  10.436  0.00  0.00    +0.000 HD
ENDBRANCH  24  26
ENDBRANCH   3  20
TORSDOF 5
ENDMDL
MODEL 2
REMARK VINA RESULT:      -8.7      1.919      2.827
REMARK  Name = 
REMARK  6 active torsions:
REMARK  status: ('A' for Active; 'I' for Inactive)
REMARK    1  A    between atoms: C_1  and  O_2
REMARK    2  A    between atoms: O_2  and  C_3
REMARK    3  A    between atoms: C_6  and  C_7
REMARK    4  A    between atoms: C_11  and  N_12
REMARK    5  A    between atoms: C_14  and  C_15
REMARK    6  A    between atoms: C_19  and  C_20
REMARK                            x       y       z     vdW  Elec       q    Type
REMARK                         _______ _______ _______ _____ _____    ______ ____
ROOT
ATOM      1  N   UNL     1       4.821   4.857  17.869  0.00  0.00    +0.000 N 
ATOM      2  C   UNL     1       4.736   4.839  16.494  0.00  0.00    +0.000 A 
ATOM      3  C   UNL     1       6.023   4.647  16.053  0.00  0.00    +0.000 A 
ATOM      4  N   UNL     1       6.862   4.599  17.126  0.00  0.00    +0.000 NA
ATOM      5  N   UNL     1       6.130   4.731  18.223  0.00  0.00    +0.000 NA
ENDROOT
BRANCH   1  11
ATOM      6  C   UNL     1       3.289   3.870  19.574  0.00  0.00    +0.000 A 
ATOM      7  C   UNL     1       2.322   4.091  20.568  0.00  0.00    +0.000 A 
ATOM      8  C   UNL     1       1.830   5.372  20.826  0.00  0.00    +0.000 A 
ATOM      9  C   UNL     1       2.308   6.458  20.099  0.00  0.00    +0.000 A 
ATOM     10  C   UNL     1       3.304   6.263  19.137  0.00  0.00    +0.000 A 
ATOM     11  C   UNL     1       3.807   4.970  18.865  0.00  0.00    +0.000 A 
BRANCH   9  12
ATOM     12  C   UNL     1       1.765   7.822  20.345  0.00  0.00    +0.000 C 
ATOM     13  N   UNL     1       1.495   8.262  21.533  0.00  0.00    +0.000 NA
ATOM     14  N   UNL     1       1.526   8.671  19.308  0.00  0.00    +0.000 N 
ATOM     15  H   UNL     1       1.648   7.543  22.244  0.00  0.00    +0.000 HD
ATOM     16  H   UNL     1       2.169   8.635  18.525  0.00  0.00    +0.000 HD
ATOM     17  H   UNL     1       1.352   9.616  19.637  0.00  0.00    +0.000 HD
ENDBRANCH   9  12
BRANCH   6  19
ATOM     18  C   UNL     1       3.052   1.822  18.399  0.00  0.00    +0.000 C 
ATOM     19  O   UNL     1       3.778   2.614  19.338  0.00  0.00    +0.000 OA
ENDBRANCH   6  19
ENDBRANCH   1  11
BRANCH   3  20
ATOM     20  C   UNL     1       6.458   4.505  14.679  0.00  0.00    +0.000 A 
ATOM     21  C   UNL     1       7.494   5.290  14.151  0.00  0.00    +0.000 A 
ATOM     22  C   UNL     1       7.863   5.169  12.810  0.00  0.00    +0.000 A 
ATOM     23  C   UNL     1       7.201   4.260  11.981  0.00  0.00    +0.000 A 
ATOM     24  C   UNL     1       6.174   3.464  12.498  0.00  0.00    +0.000 A 
ATOM     25  C   UNL     1       5.807   3.588  13.844  0.00  0.00    +0.000 A 
BRANCH  24  26
ATOM     26  C   UNL     1       5.438   2.505  11.630  0.00  0.00    +0.000 C 
ATOM     27  N   UNL     1       5.898   1.333  11.323  0.00  0.00    +0.000 NA
ATOM     28  N   UNL     1       4.225   2.842  11.109  0.00  0.00    +0.000 N 
ATOM     29  H   UNL     1       6.785   1.142  11.794  0.00  0.00    +0.000 HD
ATOM     30  H   UNL     1       4.091   3.814  10.858  0.00  0.00    +0.000 HD
ATOM     31  H   UNL     1       3.947   2.198  10.375  0.00  0.00    +0.000 HD
ENDBRANCH  24  26
ENDBRANCH   3  20
TORSDOF 5
ENDMDL
MODEL 3
REMARK VINA RESULT:      -8.6      1.916      2.944
REMARK  Name = 
REMARK  6 active torsions:
REMARK  status: ('A' for Active; 'I' for Inactive)
REMARK    1  A    between atoms: C_1  and  O_2
REMARK    2  A    between atoms: O_2  and  C_3
REMARK    3  A    between atoms: C_6  and  C_7
REMARK    4  A    between atoms: C_11  and  N_12
REMARK    5  A    between atoms: C_14  and  C_15
REMARK    6  A    between atoms: C_19  and  C_20
REMARK                            x       y       z     vdW  Elec       q    Type
REMARK                         _______ _______ _______ _____ _____    ______ ____
ROOT
ATOM      1  N   UNL     1       4.733   4.966  17.826  0.00  0.00    +0.000 N 
ATOM      2  C   UNL     1       4.662   4.886  16.453  0.00  0.00    +0.000 A 
ATOM      3  C   UNL     1       5.961   4.741  16.029  0.00  0.00    +0.000 A 
ATOM      4  N   UNL     1       6.791   4.780  17.109  0.00  0.00    +0.000 NA
ATOM      5  N   UNL     1       6.044   4.920  18.194  0.00  0.00    +0.000 NA
ENDROOT
BRANCH   1  11
ATOM      6  C   UNL     1       3.141   3.958  19.463  0.00  0.00    +0.000 A 
ATOM      7  C   UNL     1       2.164   4.168  20.450  0.00  0.00    +0.000 A 
ATOM      8  C   UNL     1       1.708   5.453  20.753  0.00  0.00    +0.000 A 
ATOM      9  C   UNL     1       2.232   6.553  20.080  0.00  0.00    +0.000 A 
ATOM     10  C   UNL     1       3.238   6.366  19.128  0.00  0.00    +0.000 A 
ATOM     11  C   UNL     1       3.706   5.070  18.810  0.00  0.00    +0.000 A 
BRANCH   9  12
ATOM     12  C   UNL     1       1.728   7.921  20.374  0.00  0.00    +0.000 C 
ATOM     13  N   UNL     1       1.454   8.780  19.443  0.00  0.00    +0.000 NA
ATOM     14  N   UNL     1       1.533   8.328  21.658  0.00  0.00    +0.000 N 
ATOM     15  H   UNL     1       1.682   8.414  18.515  0.00  0.00    +0.000 HD
ATOM     16  H   UNL     1       1.202   7.633  22.317  0.00  0.00    +0.000 HD
ATOM     17  H   UNL     1       1.006   9.195  21.695  0.00  0.00    +0.000 HD
ENDBRANCH   9  12
BRANCH   6  19
ATOM     18  C   UNL     1       4.428   2.094  20.172  0.00  0.00    +0.000 C 
ATOM     19  O   UNL     1       3.595   2.698  19.182  0.00  0.00    +0.000 OA
ENDBRANCH   6  19
ENDBRANCH   1  11
BRANCH   3  20
ATOM     20  C   UNL     1       6.415   4.564  14.666  0.00  0.00    +0.000 A 
ATOM     21  C   UNL     1       7.478   5.314  14.141  0.00  0.00    +0.000 A 
ATOM     22  C   UNL     1       7.865   5.160  12.808  0.00  0.00    +0.000 A 
ATOM     23  C   UNL     1       7.196   4.252  11.985  0.00  0.00    +0.000 A 
ATOM     24  C   UNL     1       6.142   3.490  12.499  0.00  0.00    +0.000 A 
ATOM     25  C   UNL     1       5.756   3.647  13.836  0.00  0.00    +0.000 A 
BRANCH  24  26
ATOM     26  C   UNL     1       5.398   2.532  11.636  0.00  0.00    +0.000 C 
ATOM     27  N   UNL     1       4.239   2.798  11.122  0.00  0.00    +0.000 NA
ATOM     28  N   UNL     1       5.924   1.307  11.357  0.00  0.00    +0.000 N 
ATOM     29  H   UNL     1       3.940   3.751  11.339  0.00  0.00    +0.000 HD
ATOM     30  H   UNL     1       6.469   0.867  12.090  0.00  0.00    +0.000 HD
ATOM     31  H   UNL     1       5.228   0.689  10.952  0.00  0.00    +0.000 HD
ENDBRANCH  24  26
ENDBRANCH   3  20
TORSDOF 5
ENDMDL
MODEL 4
REMARK VINA RESULT:      -8.5      4.135      8.400
REMARK  Name = 
REMARK  6 active torsions:
REMARK  status: ('A' for Active; 'I' for Inactive)
REMARK    1  A    between atoms: C_1  and  O_2
REMARK    2  A    between atoms: O_2  and  C_3
REMARK    3  A    between atoms: C_6  and  C_7
REMARK    4  A    between atoms: C_11  and  N_12
REMARK    5  A    between atoms: C_14  and  C_15
REMARK    6  A    between atoms: C_19  and  C_20
REMARK                            x       y       z     vdW  Elec       q    Type
REMARK                         _______ _______ _______ _____ _____    ______ ____
ROOT
ATOM      1  N   UNL     1       2.608   6.981  18.576  0.00  0.00    +0.000 N 
ATOM      2  C   UNL     1       2.038   8.100  18.008  0.00  0.00    +0.000 A 
ATOM      3  C   UNL     1       1.500   8.806  19.058  0.00  0.00    +0.000 A 
ATOM      4  N   UNL     1       1.699   8.111  20.213  0.00  0.00    +0.000 NA
ATOM      5  N   UNL     1       2.366   7.006  19.916  0.00  0.00    +0.000 NA
ENDROOT
BRANCH   1  11
ATOM      6  C   UNL     1       2.794   4.665  17.667  0.00  0.00    +0.000 A 
ATOM      7  C   UNL     1       3.602   3.692  17.054  0.00  0.00    +0.000 A 
ATOM      8  C   UNL     1       4.957   3.927  16.813  0.00  0.00    +0.000 A 
ATOM      9  C   UNL     1       5.525   5.146  17.172  0.00  0.00    +0.000 A 
ATOM     10  C   UNL     1       4.726   6.142  17.740  0.00  0.00    +0.000 A 
ATOM     11  C   UNL     1       3.353   5.915  17.992  0.00  0.00    +0.000 A 
BRANCH   9  12
ATOM     12  C   UNL     1       6.976   5.391  16.949  0.00  0.00    +0.000 C 
ATOM     13  N   UNL     1       7.446   6.554  16.624  0.00  0.00    +0.000 NA
ATOM     14  N   UNL     1       7.878   4.380  17.079  0.00  0.00    +0.000 N 
ATOM     15  H   UNL     1       6.697   7.238  16.491  0.00  0.00    +0.000 HD
ATOM     16  H   UNL     1       7.699   3.692  17.800  0.00  0.00    +0.000 HD
ATOM     17  H   UNL     1       8.830   4.735  17.094  0.00  0.00    +0.000 HD
ENDBRANCH   9  12
BRANCH   6  19
ATOM     18  C   UNL     1       1.148   3.417  18.835  0.00  0.00    +0.000 C 
ATOM     19  O   UNL     1       1.463   4.434  17.885  0.00  0.00    +0.000 OA
ENDBRANCH   6  19
ENDBRANCH   1  11
BRANCH   3  20
ATOM     20  C   UNL     1       0.831  10.088  18.989  0.00  0.00    +0.000 A 
ATOM     21  C   UNL     1       1.302  11.203  19.698  0.00  0.00    +0.000 A 
ATOM     22  C   UNL     1       0.612  12.416  19.654  0.00  0.00    +0.000 A 
ATOM     23  C   UNL     1      -0.558  12.528  18.900  0.00  0.00    +0.000 A 
ATOM     24  C   UNL     1      -1.033  11.427  18.180  0.00  0.00    +0.000 A 
ATOM     25  C   UNL     1      -0.338  10.212  18.226  0.00  0.00    +0.000 A 
BRANCH  24  26
ATOM     26  C   UNL     1      -2.290  11.515  17.388  0.00  0.00    +0.000 C 
ATOM     27  N   UNL     1      -2.341  11.278  16.115  0.00  0.00    +0.000 NA
ATOM     28  N   UNL     1      -3.460  11.865  17.992  0.00  0.00    +0.000 N 
ATOM     29  H   UNL     1      -1.435  10.975  15.752  0.00  0.00    +0.000 HD
ATOM     30  H   UNL     1      -3.400  12.537  18.748  0.00  0.00    +0.000 HD
ATOM     31  H   UNL     1      -4.174  12.097  17.308  0.00  0.00    +0.000 HD
ENDBRANCH  24  26
ENDBRANCH   3  20
TORSDOF 5
ENDMDL
MODEL 5
REMARK VINA RESULT:      -8.4      4.320      9.134
REMARK  Name = 
REMARK  6 active torsions:
REMARK  status: ('A' for Active; 'I' for Inactive)
REMARK    1  A    between atoms: C_1  and  O_2
REMARK    2  A    between atoms: O_2  and  C_3
REMARK    3  A    between atoms: C_6  and  C_7
REMARK    4  A    between atoms: C_11  and  N_12
REMARK    5  A    between atoms: C_14  and  C_15
REMARK    6  A    between atoms: C_19  and  C_20
REMARK                            x       y       z     vdW  Elec       q    Type
REMARK                         _______ _______ _______ _____ _____    ______ ____
ROOT
ATOM      1  N   UNL     1       2.748   7.077  18.452  0.00  0.00    +0.000 N 
ATOM      2  C   UNL     1       2.230   7.325  19.704  0.00  0.00    +0.000 A 
ATOM      3  C   UNL     1       1.622   8.554  19.608  0.00  0.00    +0.000 A 
ATOM      4  N   UNL     1       1.809   9.050  18.353  0.00  0.00    +0.000 NA
ATOM      5  N   UNL     1       2.494   8.155  17.658  0.00  0.00    +0.000 NA
ENDROOT
BRANCH   1  11
ATOM      6  C   UNL     1       2.824   4.693  17.717  0.00  0.00    +0.000 A 
ATOM      7  C   UNL     1       3.579   3.647  17.163  0.00  0.00    +0.000 A 
ATOM      8  C   UNL     1       4.936   3.808  16.879  0.00  0.00    +0.000 A 
ATOM      9  C   UNL     1       5.559   5.027  17.132  0.00  0.00    +0.000 A 
ATOM     10  C   UNL     1       4.812   6.093  17.640  0.00  0.00    +0.000 A 
ATOM     11  C   UNL     1       3.438   5.941  17.935  0.00  0.00    +0.000 A 
BRANCH   9  12
ATOM     12  C   UNL     1       7.013   5.196  16.862  0.00  0.00    +0.000 C 
ATOM     13  N   UNL     1       7.877   4.253  17.071  0.00  0.00    +0.000 NA
ATOM     14  N   UNL     1       7.496   6.373  16.378  0.00  0.00    +0.000 N 
ATOM     15  H   UNL     1       7.439   3.428  17.487  0.00  0.00    +0.000 HD
ATOM     16  H   UNL     1       6.910   6.878  15.724  0.00  0.00    +0.000 HD
ATOM     17  H   UNL     1       8.455   6.275  16.059  0.00  0.00    +0.000 HD
ENDBRANCH   9  12
BRANCH   6  19
ATOM     18  C   UNL     1       1.161   3.672  19.069  0.00  0.00    +0.000 C 
ATOM     19  O   UNL     1       1.490   4.533  17.979  0.00  0.00    +0.000 OA
ENDBRANCH   6  19
ENDBRANCH   1  11
BRANCH   3  20
ATOM     20  C   UNL     1       0.884   9.241  20.648  0.00  0.00    +0.000 A 
ATOM     21  C   UNL     1       0.888   8.787  21.975  0.00  0.00    +0.000 A 
ATOM     22  C   UNL     1       0.130   9.438  22.951  0.00  0.00    +0.000 A 
ATOM     23  C   UNL     1      -0.640  10.552  22.610  0.00  0.00    +0.000 A 
ATOM     24  C   UNL     1      -0.644  11.022  21.293  0.00  0.00    +0.000 A 
ATOM     25  C   UNL     1       0.117  10.366  20.318  0.00  0.00    +0.000 A 
BRANCH  24  26
ATOM     26  C   UNL     1      -1.474  12.193  20.900  0.00  0.00    +0.000 C 
ATOM     27  N   UNL     1      -1.453  13.320  21.539  0.00  0.00    +0.000 NA
ATOM     28  N   UNL     1      -2.312  12.113  19.829  0.00  0.00    +0.000 N 
ATOM     29  H   UNL     1      -0.765  13.312  22.295  0.00  0.00    +0.000 HD
ATOM     30  H   UNL     1      -2.756  11.217  19.664  0.00  0.00    +0.000 HD
ATOM     31  H   UNL     1      -2.965  12.890  19.811  0.00  0.00    +0.000 HD
ENDBRANCH  24  26
ENDBRANCH   3  20
TORSDOF 5
ENDMDL
MODEL 6
REMARK VINA RESULT:      -8.3      4.319      8.858
REMARK  Name = 
REMARK  6 active torsions:
REMARK  status: ('A' for Active; 'I' for Inactive)
REMARK    1  A    between atoms: C_1  and  O_2
REMARK    2  A    between atoms: O_2  and  C_3
REMARK    3  A    between atoms: C_6  and  C_7
REMARK    4  A    between atoms: C_11  and  N_12
REMARK    5  A    between atoms: C_14  and  C_15
REMARK    6  A    between atoms: C_19  and  C_20
REMARK                            x       y       z     vdW  Elec       q    Type
REMARK                         _______ _______ _______ _____ _____    ______ ____
ROOT
ATOM      1  N   UNL     1       2.819   7.364  18.120  0.00  0.00    +0.000 N 
ATOM      2  C   UNL     1       2.078   7.787  19.202  0.00  0.00    +0.000 A 
ATOM      3  C   UNL     1       1.594   9.024  18.848  0.00  0.00    +0.000 A 
ATOM      4  N   UNL     1       2.067   9.354  17.614  0.00  0.00    +0.000 NA
ATOM      5  N   UNL     1       2.811   8.349  17.179  0.00  0.00    +0.000 NA
ENDROOT
BRANCH   1  11
ATOM      6  C   UNL     1       2.930   4.872  18.054  0.00  0.00    +0.000 A 
ATOM      7  C   UNL     1       3.685   3.726  17.756  0.00  0.00    +0.000 A 
ATOM      8  C   UNL     1       5.017   3.825  17.350  0.00  0.00    +0.000 A 
ATOM      9  C   UNL     1       5.614   5.076  17.223  0.00  0.00    +0.000 A 
ATOM     10  C   UNL     1       4.863   6.229  17.471  0.00  0.00    +0.000 A 
ATOM     11  C   UNL     1       3.514   6.142  17.886  0.00  0.00    +0.000 A 
BRANCH   9  12
ATOM     12  C   UNL     1       7.043   5.188  16.822  0.00  0.00    +0.000 C 
ATOM     13  N   UNL     1       7.900   4.236  17.019  0.00  0.00    +0.000 NA
ATOM     14  N   UNL     1       7.509   6.319  16.225  0.00  0.00    +0.000 N 
ATOM     15  H   UNL     1       7.481   3.451  17.523  0.00  0.00    +0.000 HD
ATOM     16  H   UNL     1       6.881   6.798  15.591  0.00  0.00    +0.000 HD
ATOM     17  H   UNL     1       8.435   6.174  15.834  0.00  0.00    +0.000 HD
ENDBRANCH   9  12
BRANCH   6  19
ATOM     18  C   UNL     1       1.234   3.530  19.032  0.00  0.00    +0.000 C 
ATOM     19  O   UNL     1       1.620   4.768  18.436  0.00  0.00    +0.000 OA
ENDBRANCH   6  19
ENDBRANCH   1  11
BRANCH   3  20
ATOM     20  C   UNL     1       0.713   9.867  19.630  0.00  0.00    +0.000 A 
ATOM     21  C   UNL     1       0.835   9.966  21.024  0.00  0.00    +0.000 A 
ATOM     22  C   UNL     1      -0.057  10.748  21.761  0.00  0.00    +0.000 A 
ATOM     23  C   UNL     1      -1.080  11.442  21.112  0.00  0.00    +0.000 A 
ATOM     24  C   UNL     1      -1.206  11.361  19.721  0.00  0.00    +0.000 A 
ATOM     25  C   UNL     1      -0.310  10.576  18.986  0.00  0.00    +0.000 A 
BRANCH  24  26
ATOM     26  C   UNL     1      -2.302  12.073  19.009  0.00  0.00    +0.000 C 
ATOM     27  N   UNL     1      -3.292  12.640  19.622  0.00  0.00    +0.000 NA
ATOM     28  N   UNL     1      -2.303  12.145  17.648  0.00  0.00    +0.000 N 
ATOM     29  H   UNL     1      -3.189  12.582  20.637  0.00  0.00    +0.000 HD
ATOM     30  H   UNL     1      -1.936  11.344  17.148  0.00  0.00    +0.000 HD
ATOM     31  H   UNL     1      -3.202  12.458  17.295  0.00  0.00    +0.000 HD
ENDBRANCH  24  26
ENDBRANCH   3  20
TORSDOF 5
ENDMDL
MODEL 7
REMARK VINA RESULT:      -8.2      3.875      9.015
REMARK  Name = 
REMARK  6 active torsions:
REMARK  status: ('A' for Active; 'I' for Inactive)
REMARK    1  A    between atoms: C_1  and  O_2
REMARK    2  A    between atoms: O_2  and  C_3
REMARK    3  A    between atoms: C_6  and  C_7
REMARK    4  A    between atoms: C_11  and  N_12
REMARK    5  A    between atoms: C_14  and  C_15
REMARK    6  A    between atoms: C_19  and  C_20
REMARK                            x       y       z     vdW  Elec       q    Type
REMARK                         _______ _______ _______ _____ _____    ______ ____
ROOT
ATOM      1  N   UNL     1       2.833   7.403  18.347  0.00  0.00    +0.000 N 
ATOM      2  C   UNL     1       2.033   7.955  19.324  0.00  0.00    +0.000 A 
ATOM      3  C   UNL     1       1.509   9.095  18.763  0.00  0.00    +0.000 A 
ATOM      4  N   UNL     1       2.014   9.249  17.507  0.00  0.00    +0.000 NA
ATOM      5  N   UNL     1       2.817   8.225  17.261  0.00  0.00    +0.000 NA
ENDROOT
BRANCH   1  11
ATOM      6  C   UNL     1       3.126   4.983  18.880  0.00  0.00    +0.000 A 
ATOM      7  C   UNL     1       3.929   3.834  18.777  0.00  0.00    +0.000 A 
ATOM      8  C   UNL     1       5.195   3.889  18.191  0.00  0.00    +0.000 A 
ATOM      9  C   UNL     1       5.676   5.094  17.686  0.00  0.00    +0.000 A 
ATOM     10  C   UNL     1       4.871   6.236  17.739  0.00  0.00    +0.000 A 
ATOM     11  C   UNL     1       3.589   6.194  18.333  0.00  0.00    +0.000 A 
BRANCH   9  12
ATOM     12  C   UNL     1       7.037   5.167  17.090  0.00  0.00    +0.000 C 
ATOM     13  N   UNL     1       7.915   4.225  17.236  0.00  0.00    +0.000 NA
ATOM     14  N   UNL     1       7.416   6.249  16.356  0.00  0.00    +0.000 N 
ATOM     15  H   UNL     1       7.570   3.481  17.847  0.00  0.00    +0.000 HD
ATOM     16  H   UNL     1       6.707   6.687  15.781  0.00  0.00    +0.000 HD
ATOM     17  H   UNL     1       8.281   6.070  15.856  0.00  0.00    +0.000 HD
ENDBRANCH   9  12
BRANCH   6  19
ATOM     18  C   UNL     1       1.818   4.440  20.785  0.00  0.00    +0.000 C 
ATOM     19  O   UNL     1       1.880   4.918  19.441  0.00  0.00    +0.000 OA
ENDBRANCH   6  19
ENDBRANCH   1  11
BRANCH   3  20
ATOM     20  C   UNL     1       0.564  10.007  19.373  0.00  0.00    +0.000 A 
ATOM     21  C   UNL     1      -0.025  11.052  18.645  0.00  0.00    +0.000 A 
ATOM     22  C   UNL     1      -0.896  11.948  19.267  0.00  0.00    +0.000 A 
ATOM     23  C   UNL     1      -1.190  11.809  20.625  0.00  0.00    +0.000 A 
ATOM     24  C   UNL     1      -0.619  10.765  21.359  0.00  0.00    +0.000 A 
ATOM     25  C   UNL     1       0.254   9.868  20.732  0.00  0.00    +0.000 A 
BRANCH  24  26
ATOM     26  C   UNL     1      -0.899  10.609  22.813  0.00  0.00    +0.000 C 
ATOM     27  N   UNL     1      -0.261   9.773  23.570  0.00  0.00    +0.000 NA
ATOM     28  N   UNL     1      -1.869  11.356  23.410  0.00  0.00    +0.000 N 
ATOM     29  H   UNL     1       0.480   9.290  23.057  0.00  0.00    +0.000 HD
ATOM     30  H   UNL     1      -2.687  11.571  22.852  0.00  0.00    +0.000 HD
ATOM     31  H   UNL     1      -2.099  10.996  24.331  0.00  0.00    +0.000 HD
ENDBRANCH  24  26
ENDBRANCH   3  20
TORSDOF 5
ENDMDL
MODEL 8
REMARK VINA RESULT:      -8.2      4.198      8.505
REMARK  Name = 
REMARK  6 active torsions:
REMARK  status: ('A' for Active; 'I' for Inactive)
REMARK    1  A    between atoms: C_1  and  O_2
REMARK    2  A    between atoms: O_2  and  C_3
REMARK    3  A    between atoms: C_6  and  C_7
REMARK    4  A    between atoms: C_11  and  N_12
REMARK    5  A    between atoms: C_14  and  C_15
REMARK    6  A    between atoms: C_19  and  C_20
REMARK                            x       y       z     vdW  Elec       q    Type
REMARK                         _______ _______ _______ _____ _____    ______ ____
ROOT
ATOM      1  N   UNL     1       2.941   7.302  18.401  0.00  0.00    +0.000 N 
ATOM      2  C   UNL     1       2.044   7.884  19.269  0.00  0.00    +0.000 A 
ATOM      3  C   UNL     1       1.566   8.991  18.608  0.00  0.00    +0.000 A 
ATOM      4  N   UNL     1       2.190   9.096  17.401  0.00  0.00    +0.000 NA
ATOM      5  N   UNL     1       3.025   8.074  17.282  0.00  0.00    +0.000 NA
ENDROOT
BRANCH   1  11
ATOM      6  C   UNL     1       3.286   4.981  19.251  0.00  0.00    +0.000 A 
ATOM      7  C   UNL     1       4.093   3.831  19.267  0.00  0.00    +0.000 A 
ATOM      8  C   UNL     1       5.327   3.807  18.613  0.00  0.00    +0.000 A 
ATOM      9  C   UNL     1       5.769   4.930  17.920  0.00  0.00    +0.000 A 
ATOM     10  C   UNL     1       4.957   6.066  17.855  0.00  0.00    +0.000 A 
ATOM     11  C   UNL     1       3.707   6.105  18.516  0.00  0.00    +0.000 A 
BRANCH   9  12
ATOM     12  C   UNL     1       7.097   4.922  17.249  0.00  0.00    +0.000 C 
ATOM     13  N   UNL     1       8.072   4.162  17.638  0.00  0.00    +0.000 NA
ATOM     14  N   UNL     1       7.339   5.730  16.181  0.00  0.00    +0.000 N 
ATOM     15  H   UNL     1       7.824   3.633  18.477  0.00  0.00    +0.000 HD
ATOM     16  H   UNL     1       6.571   5.890  15.539  0.00  0.00    +0.000 HD
ATOM     17  H   UNL     1       8.202   5.474  15.712  0.00  0.00    +0.000 HD
ENDBRANCH   9  12
BRANCH   6  19
ATOM     18  C   UNL     1       1.464   3.720  20.101  0.00  0.00    +0.000 C 
ATOM     19  O   UNL     1       2.071   4.992  19.880  0.00  0.00    +0.000 OA
ENDBRANCH   6  19
ENDBRANCH   1  11
BRANCH   3  20
ATOM     20  C   UNL     1       0.556   9.915  19.080  0.00  0.00    +0.000 A 
ATOM     21  C   UNL     1       0.533  10.364  20.408  0.00  0.00    +0.000 A 
ATOM     22  C   UNL     1      -0.479  11.217  20.852  0.00  0.00    +0.000 A 
ATOM     23  C   UNL     1      -1.481  11.632  19.972  0.00  0.00    +0.000 A 
ATOM     24  C   UNL     1      -1.463  11.200  18.642  0.00  0.00    +0.000 A 
ATOM     25  C   UNL     1      -0.447  10.344  18.200  0.00  0.00    +0.000 A 
BRANCH  24  26
ATOM     26  C   UNL     1      -2.532  11.609  17.690  0.00  0.00    +0.000 C 
ATOM     27  N   UNL     1      -2.375  11.601  16.404  0.00  0.00    +0.000 NA
ATOM     28  N   UNL     1      -3.744  12.025  18.155  0.00  0.00    +0.000 N 
ATOM     29  H   UNL     1      -1.459  11.230  16.140  0.00  0.00    +0.000 HD
ATOM     30  H   UNL     1      -3.745  12.543  19.026  0.00  0.00    +0.000 HD
ATOM     31  H   UNL     1      -4.286  12.474  17.423  0.00  0.00    +0.000 HD
ENDBRANCH  24  26
ENDBRANCH   3  20
TORSDOF 5
ENDMDL
MODEL 9
REMARK VINA RESULT:      -8.2      4.052      8.526
REMARK  Name = 
REMARK  6 active torsions:
REMARK  status: ('A' for Active; 'I' for Inactive)
REMARK    1  A    between atoms: C_1  and  O_2
REMARK    2  A    between atoms: O_2  and  C_3
REMARK    3  A    between atoms: C_6  and  C_7
REMARK    4  A    between atoms: C_11  and  N_12
REMARK    5  A    between atoms: C_14  and  C_15
REMARK    6  A    between atoms: C_19  and  C_20
REMARK                            x       y       z     vdW  Elec       q    Type
REMARK                         _______ _______ _______ _____ _____    ______ ____
ROOT
ATOM      1  N   UNL     1       2.612   7.100  18.464  0.00  0.00    +0.000 N 
ATOM      2  C   UNL     1       2.125   8.235  17.853  0.00  0.00    +0.000 A 
ATOM      3  C   UNL     1       1.553   8.973  18.861  0.00  0.00    +0.000 A 
ATOM      4  N   UNL     1       1.650   8.283  20.032  0.00  0.00    +0.000 NA
ATOM      5  N   UNL     1       2.288   7.148  19.786  0.00  0.00    +0.000 NA
ENDROOT
BRANCH   1  11
ATOM      6  C   UNL     1       2.781   4.733  17.693  0.00  0.00    +0.000 A 
ATOM      7  C   UNL     1       3.579   3.723  17.129  0.00  0.00    +0.000 A 
ATOM      8  C   UNL     1       4.932   3.939  16.860  0.00  0.00    +0.000 A 
ATOM      9  C   UNL     1       5.508   5.175  17.139  0.00  0.00    +0.000 A 
ATOM     10  C   UNL     1       4.718   6.205  17.656  0.00  0.00    +0.000 A 
ATOM     11  C   UNL     1       3.347   5.998  17.936  0.00  0.00    +0.000 A 
BRANCH   9  12
ATOM     12  C   UNL     1       6.957   5.401  16.884  0.00  0.00    +0.000 C 
ATOM     13  N   UNL     1       7.434   6.558  16.548  0.00  0.00    +0.000 NA
ATOM     14  N   UNL     1       7.849   4.379  16.997  0.00  0.00    +0.000 N 
ATOM     15  H   UNL     1       6.692   7.251  16.431  0.00  0.00    +0.000 HD
ATOM     16  H   UNL     1       7.676   3.694  17.722  0.00  0.00    +0.000 HD
ATOM     17  H   UNL     1       8.805   4.722  16.992  0.00  0.00    +0.000 HD
ENDBRANCH   9  12
BRANCH   6  19
ATOM     18  C   UNL     1       1.140   3.439  18.817  0.00  0.00    +0.000 C 
ATOM     19  O   UNL     1       1.453   4.520  17.939  0.00  0.00    +0.000 OA
ENDBRANCH   6  19
ENDBRANCH   1  11
BRANCH   3  20
ATOM     20  C   UNL     1       0.943  10.280  18.741  0.00  0.00    +0.000 A 
ATOM     21  C   UNL     1      -0.449  10.439  18.670  0.00  0.00    +0.000 A 
ATOM     22  C   UNL     1      -1.012  11.706  18.505  0.00  0.00    +0.000 A 
ATOM     23  C   UNL     1      -0.189  12.830  18.411  0.00  0.00    +0.000 A 
ATOM     24  C   UNL     1       1.199  12.687  18.492  0.00  0.00    +0.000 A 
ATOM     25  C   UNL     1       1.760  11.415  18.657  0.00  0.00    +0.000 A 
BRANCH  24  26
ATOM     26  C   UNL     1       2.099  13.867  18.371  0.00  0.00    +0.000 C 
ATOM     27  N   UNL     1       3.301  13.794  17.894  0.00  0.00    +0.000 NA
ATOM     28  N   UNL     1       1.677  15.097  18.779  0.00  0.00    +0.000 N 
ATOM     29  H   UNL     1       3.520  12.850  17.568  0.00  0.00    +0.000 HD
ATOM     30  H   UNL     1       1.063  15.125  19.585  0.00  0.00    +0.000 HD
ATOM     31  H   UNL     1       2.451  15.751  18.844  0.00  0.00    +0.000 HD
ENDBRANCH  24  26
ENDBRANCH   3  20
TORSDOF 5
ENDMDL
