MODEL 1
REMARK VINA RESULT:      -7.7      0.000      0.000
REMARK  Name = 
REMARK  2 active torsions:
REMARK  status: ('A' for Active; 'I' for Inactive)
REMARK    1  A    between atoms: C_1  and  C_2
REMARK    2  A    between atoms: C_8  and  N_9
REMARK                            x       y       z     vdW  Elec       q    Type
REMARK                         _______ _______ _______ _____ _____    ______ ____
ROOT
ATOM      1  C   UNL     1       5.731   3.608  12.548  0.00  0.00    +0.000 C 
ATOM      2  C   UNL     1       6.016   4.071  13.945  0.00  0.00    +0.000 A 
ATOM      3  C   UNL     1       7.164   4.807  14.240  0.00  0.00    +0.000 A 
ATOM      4  C   UNL     1       7.409   5.228  15.548  0.00  0.00    +0.000 A 
ATOM      5  C   UNL     1       6.520   4.924  16.590  0.00  0.00    +0.000 A 
ATOM      6  S   UNL     1       6.977   5.480  18.204  0.00  0.00    +0.000 S 
ATOM      7  C   UNL     1       5.646   4.972  19.148  0.00  0.00    +0.000 A 
ATOM      8  C   UNL     1       4.558   4.280  18.778  0.00  0.00    +0.000 A 
ATOM      9  C   UNL     1       4.383   3.817  17.344  0.00  0.00    +0.000 A 
ATOM     10  O   UNL     1       3.440   3.095  17.016  0.00  0.00    +0.000 OA
ATOM     11  C   UNL     1       5.366   4.199  16.303  0.00  0.00    +0.000 A 
ATOM     12  C   UNL     1       5.117   3.784  14.979  0.00  0.00    +0.000 A 
ENDROOT
BRANCH   8  13
ATOM     13  N   UNL     1       3.548   3.979  19.719  0.00  0.00    +0.000 N 
ATOM     14  C   UNL     1       3.516   2.712  20.466  0.00  0.00    +0.000 C 
ATOM     15  C   UNL     1       2.070   2.213  20.556  0.00  0.00    +0.000 C 
ATOM     16  C   UNL     1       1.129   3.275  21.117  0.00  0.00    +0.000 C 
ATOM     17  C   UNL     1       1.273   4.590  20.354  0.00  0.00    +0.000 C 
ATOM     18  C   UNL     1       2.730   5.038  20.330  0.00  0.00    +0.000 C 
ENDBRANCH   8  13
TORSDOF 1
ENDMDL
MODEL 2
REMARK VINA RESULT:      -7.3      0.574      1.267
REMARK  Name = 
REMARK  2 active torsions:
REMARK  status: ('A' for Active; 'I' for Inactive)
REMARK    1  A    between atoms: C_1  and  C_2
REMARK    2  A    between atoms: C_8  and  N_9
REMARK                            x       y       z     vdW  Elec       q    Type
REMARK                         _______ _______ _______ _____ _____    ______ ____
ROOT
ATOM      1  C   UNL     1       6.037   3.625  12.397  0.00  0.00    +0.000 C 
ATOM      2  C   UNL     1       6.162   4.083  13.819  0.00  0.00    +0.000 A 
ATOM      3  C   UNL     1       7.227   4.886  14.226  0.00  0.00    +0.000 A 
ATOM      4  C   UNL     1       7.324   5.301  15.555  0.00  0.00    +0.000 A 
ATOM      5  C   UNL     1       6.366   4.922  16.508  0.00  0.00    +0.000 A 
ATOM      6  S   UNL     1       6.636   5.480  18.162  0.00  0.00    +0.000 S 
ATOM      7  C   UNL     1       5.261   4.871  18.975  0.00  0.00    +0.000 A 
ATOM      8  C   UNL     1       4.259   4.116  18.499  0.00  0.00    +0.000 A 
ATOM      9  C   UNL     1       4.247   3.666  17.050  0.00  0.00    +0.000 A 
ATOM     10  O   UNL     1       3.388   2.890  16.630  0.00  0.00    +0.000 OA
ATOM     11  C   UNL     1       5.293   4.128  16.108  0.00  0.00    +0.000 A 
ATOM     12  C   UNL     1       5.193   3.721  14.763  0.00  0.00    +0.000 A 
ENDROOT
BRANCH   8  13
ATOM     13  N   UNL     1       3.190   3.734  19.340  0.00  0.00    +0.000 N 
ATOM     14  C   UNL     1       1.860   4.356  19.260  0.00  0.00    +0.000 C 
ATOM     15  C   UNL     1       1.313   4.566  20.675  0.00  0.00    +0.000 C 
ATOM     16  C   UNL     1       1.335   3.280  21.498  0.00  0.00    +0.000 C 
ATOM     17  C   UNL     1       2.720   2.638  21.469  0.00  0.00    +0.000 C 
ATOM     18  C   UNL     1       3.187   2.435  20.032  0.00  0.00    +0.000 C 
ENDBRANCH   8  13
TORSDOF 1
ENDMDL
MODEL 3
REMARK VINA RESULT:      -6.7      3.682      6.724
REMARK  Name = 
REMARK  2 active torsions:
REMARK  status: ('A' for Active; 'I' for Inactive)
REMARK    1  A    between atoms: C_1  and  C_2
REMARK    2  A    between atoms: C_8  and  N_9
REMARK                            x       y       z     vdW  Elec       q    Type
REMARK                         _______ _______ _______ _____ _____    ______ ____
ROOT
ATOM      1  C   UNL     1      -0.127   9.565  23.240  0.00  0.00    +0.000 C 
ATOM      2  C   UNL     1       0.498   9.291  21.905  0.00  0.00    +0.000 A 
ATOM      3  C   UNL     1       0.655  10.306  20.961  0.00  0.00    +0.000 A 
ATOM      4  C   UNL     1       1.239  10.029  19.724  0.00  0.00    +0.000 A 
ATOM      5  C   UNL     1       1.676   8.735  19.398  0.00  0.00    +0.000 A 
ATOM      6  S   UNL     1       2.354   8.516  17.782  0.00  0.00    +0.000 S 
ATOM      7  C   UNL     1       2.801   6.866  17.801  0.00  0.00    +0.000 A 
ATOM      8  C   UNL     1       2.633   5.953  18.769  0.00  0.00    +0.000 A 
ATOM      9  C   UNL     1       1.947   6.320  20.072  0.00  0.00    +0.000 A 
ATOM     10  O   UNL     1       1.696   5.467  20.924  0.00  0.00    +0.000 OA
ATOM     11  C   UNL     1       1.532   7.718  20.338  0.00  0.00    +0.000 A 
ATOM     12  C   UNL     1       0.952   8.004  21.590  0.00  0.00    +0.000 A 
ENDROOT
BRANCH   8  13
ATOM     13  N   UNL     1       3.101   4.632  18.595  0.00  0.00    +0.000 N 
ATOM     14  C   UNL     1       2.624   3.759  17.512  0.00  0.00    +0.000 C 
ATOM     15  C   UNL     1       2.434   2.338  18.051  0.00  0.00    +0.000 C 
ATOM     16  C   UNL     1       3.687   1.814  18.747  0.00  0.00    +0.000 C 
ATOM     17  C   UNL     1       4.182   2.804  19.799  0.00  0.00    +0.000 C 
ATOM     18  C   UNL     1       4.374   4.187  19.185  0.00  0.00    +0.000 C 
ENDBRANCH   8  13
TORSDOF 1
ENDMDL
MODEL 4
REMARK VINA RESULT:      -6.5      4.307      7.388
REMARK  Name = 
REMARK  2 active torsions:
REMARK  status: ('A' for Active; 'I' for Inactive)
REMARK    1  A    between atoms: C_1  and  C_2
REMARK    2  A    between atoms: C_8  and  N_9
REMARK                            x       y       z     vdW  Elec       q    Type
REMARK                         _______ _______ _______ _____ _____    ______ ____
ROOT
ATOM      1  C   UNL     1      -0.756  10.229  23.286  0.00  0.00    +0.000 C 
ATOM      2  C   UNL     1      -0.072  10.047  21.964  0.00  0.00    +0.000 A 
ATOM      3  C   UNL     1      -0.007  11.087  21.037  0.00  0.00    +0.000 A 
ATOM      4  C   UNL     1       0.634  10.896  19.813  0.00  0.00    +0.000 A 
ATOM      5  C   UNL     1       1.222   9.665  19.483  0.00  0.00    +0.000 A 
ATOM      6  S   UNL     1       1.960   9.547  17.882  0.00  0.00    +0.000 S 
ATOM      7  C   UNL     1       2.590   7.958  17.893  0.00  0.00    +0.000 A 
ATOM      8  C   UNL     1       2.502   7.018  18.845  0.00  0.00    +0.000 A 
ATOM      9  C   UNL     1       1.747   7.286  20.134  0.00  0.00    +0.000 A 
ATOM     10  O   UNL     1       1.574   6.397  20.969  0.00  0.00    +0.000 OA
ATOM     11  C   UNL     1       1.171   8.624  20.406  0.00  0.00    +0.000 A 
ATOM     12  C   UNL     1       0.532   8.824  21.646  0.00  0.00    +0.000 A 
ENDROOT
BRANCH   8  13
ATOM     13  N   UNL     1       3.121   5.760  18.668  0.00  0.00    +0.000 N 
ATOM     14  C   UNL     1       4.432   5.434  19.252  0.00  0.00    +0.000 C 
ATOM     15  C   UNL     1       5.254   4.635  18.237  0.00  0.00    +0.000 C 
ATOM     16  C   UNL     1       4.499   3.415  17.717  0.00  0.00    +0.000 C 
ATOM     17  C   UNL     1       3.115   3.807  17.205  0.00  0.00    +0.000 C 
ATOM     18  C   UNL     1       2.346   4.574  18.276  0.00  0.00    +0.000 C 
ENDBRANCH   8  13
TORSDOF 1
ENDMDL
MODEL 5
REMARK VINA RESULT:      -6.4      4.363      7.376
REMARK  Name = 
REMARK  2 active torsions:
REMARK  status: ('A' for Active; 'I' for Inactive)
REMARK    1  A    between atoms: C_1  and  C_2
REMARK    2  A    between atoms: C_8  and  N_9
REMARK                            x       y       z     vdW  Elec       q    Type
REMARK                         _______ _______ _______ _____ _____    ______ ____
ROOT
ATOM      1  C   UNL     1      -0.762  10.114  23.329  0.00  0.00    +0.000 C 
ATOM      2  C   UNL     1      -0.096  10.002  21.990  0.00  0.00    +0.000 A 
ATOM      3  C   UNL     1      -0.082  11.075  21.101  0.00  0.00    +0.000 A 
ATOM      4  C   UNL     1       0.544  10.949  19.859  0.00  0.00    +0.000 A 
ATOM      5  C   UNL     1       1.166   9.750  19.476  0.00  0.00    +0.000 A 
ATOM      6  S   UNL     1       1.880   9.714  17.861  0.00  0.00    +0.000 S 
ATOM      7  C   UNL     1       2.562   8.148  17.805  0.00  0.00    +0.000 A 
ATOM      8  C   UNL     1       2.522   7.172  18.725  0.00  0.00    +0.000 A 
ATOM      9  C   UNL     1       1.782   7.369  20.034  0.00  0.00    +0.000 A 
ATOM     10  O   UNL     1       1.652   6.446  20.840  0.00  0.00    +0.000 OA
ATOM     11  C   UNL     1       1.166   8.677  20.363  0.00  0.00    +0.000 A 
ATOM     12  C   UNL     1       0.542   8.812  21.619  0.00  0.00    +0.000 A 
ENDROOT
BRANCH   8  13
ATOM     13  N   UNL     1       3.179   5.943  18.492  0.00  0.00    +0.000 N 
ATOM     14  C   UNL     1       2.473   4.747  18.009  0.00  0.00    +0.000 C 
ATOM     15  C   UNL     1       3.003   3.513  18.744  0.00  0.00    +0.000 C 
ATOM     16  C   UNL     1       4.522   3.399  18.657  0.00  0.00    +0.000 C 
ATOM     17  C   UNL     1       5.193   4.700  19.090  0.00  0.00    +0.000 C 
ATOM     18  C   UNL     1       4.636   5.879  18.298  0.00  0.00    +0.000 C 
ENDBRANCH   8  13
TORSDOF 1
ENDMDL
MODEL 6
REMARK VINA RESULT:      -6.2      5.727      7.162
REMARK  Name = 
REMARK  2 active torsions:
REMARK  status: ('A' for Active; 'I' for Inactive)
REMARK    1  A    between atoms: C_1  and  C_2
REMARK    2  A    between atoms: C_8  and  N_9
REMARK                            x       y       z     vdW  Elec       q    Type
REMARK                         _______ _______ _______ _____ _____    ______ ____
ROOT
ATOM      1  C   UNL     1       4.900   5.709  16.444  0.00  0.00    +0.000 C 
ATOM      2  C   UNL     1       4.013   6.150  17.570  0.00  0.00    +0.000 A 
ATOM      3  C   UNL     1       3.814   5.342  18.688  0.00  0.00    +0.000 A 
ATOM      4  C   UNL     1       2.984   5.772  19.725  0.00  0.00    +0.000 A 
ATOM      5  C   UNL     1       2.332   7.014  19.669  0.00  0.00    +0.000 A 
ATOM      6  S   UNL     1       1.276   7.412  21.028  0.00  0.00    +0.000 S 
ATOM      7  C   UNL     1       0.734   8.979  20.614  0.00  0.00    +0.000 A 
ATOM      8  C   UNL     1       0.995   9.704  19.515  0.00  0.00    +0.000 A 
ATOM      9  C   UNL     1       1.872   9.149  18.408  0.00  0.00    +0.000 A 
ATOM     10  O   UNL     1       2.034   9.763  17.353  0.00  0.00    +0.000 OA
ATOM     11  C   UNL     1       2.534   7.832  18.560  0.00  0.00    +0.000 A 
ATOM     12  C   UNL     1       3.381   7.399  17.521  0.00  0.00    +0.000 A 
ENDROOT
BRANCH   8  13
ATOM     13  N   UNL     1       0.463  11.005  19.374  0.00  0.00    +0.000 N 
ATOM     14  C   UNL     1      -0.978  11.258  19.214  0.00  0.00    +0.000 C 
ATOM     15  C   UNL     1      -1.186  12.362  18.173  0.00  0.00    +0.000 C 
ATOM     16  C   UNL     1      -0.380  13.618  18.497  0.00  0.00    +0.000 C 
ATOM     17  C   UNL     1       1.088  13.276  18.737  0.00  0.00    +0.000 C 
ATOM     18  C   UNL     1       1.219  12.193  19.801  0.00  0.00    +0.000 C 
ENDBRANCH   8  13
TORSDOF 1
ENDMDL
MODEL 7
REMARK VINA RESULT:      -6.2      1.996      3.188
REMARK  Name = 
REMARK  2 active torsions:
REMARK  status: ('A' for Active; 'I' for Inactive)
REMARK    1  A    between atoms: C_1  and  C_2
REMARK    2  A    between atoms: C_8  and  N_9
REMARK                            x       y       z     vdW  Elec       q    Type
REMARK                         _______ _______ _______ _____ _____    ______ ____
ROOT
ATOM      1  C   UNL     1       8.130   8.476  17.885  0.00  0.00    +0.000 C 
ATOM      2  C   UNL     1       7.385   7.263  17.414  0.00  0.00    +0.000 A 
ATOM      3  C   UNL     1       7.667   6.678  16.181  0.00  0.00    +0.000 A 
ATOM      4  C   UNL     1       6.961   5.549  15.762  0.00  0.00    +0.000 A 
ATOM      5  C   UNL     1       5.956   4.981  16.561  0.00  0.00    +0.000 A 
ATOM      6  S   UNL     1       5.111   3.583  15.889  0.00  0.00    +0.000 S 
ATOM      7  C   UNL     1       4.038   3.170  17.153  0.00  0.00    +0.000 A 
ATOM      8  C   UNL     1       3.842   3.780  18.332  0.00  0.00    +0.000 A 
ATOM      9  C   UNL     1       4.618   5.032  18.698  0.00  0.00    +0.000 A 
ATOM     10  O   UNL     1       4.373   5.656  19.731  0.00  0.00    +0.000 OA
ATOM     11  C   UNL     1       5.674   5.553  17.799  0.00  0.00    +0.000 A 
ATOM     12  C   UNL     1       6.397   6.686  18.223  0.00  0.00    +0.000 A 
ENDROOT
BRANCH   8  13
ATOM     13  N   UNL     1       2.913   3.259  19.261  0.00  0.00    +0.000 N 
ATOM     14  C   UNL     1       1.465   3.233  19.002  0.00  0.00    +0.000 C 
ATOM     15  C   UNL     1       0.714   3.605  20.284  0.00  0.00    +0.000 C 
ATOM     16  C   UNL     1       1.136   2.741  21.469  0.00  0.00    +0.000 C 
ATOM     17  C   UNL     1       2.654   2.741  21.632  0.00  0.00    +0.000 C 
ATOM     18  C   UNL     1       3.332   2.336  20.327  0.00  0.00    +0.000 C 
ENDBRANCH   8  13
TORSDOF 1
ENDMDL
MODEL 8
REMARK VINA RESULT:      -6.1      2.738      6.484
REMARK  Name = 
REMARK  2 active torsions:
REMARK  status: ('A' for Active; 'I' for Inactive)
REMARK    1  A    between atoms: C_1  and  C_2
REMARK    2  A    between atoms: C_8  and  N_9
REMARK                            x       y       z     vdW  Elec       q    Type
REMARK                         _______ _______ _______ _____ _____    ______ ____
ROOT
ATOM      1  C   UNL     1       1.816   9.281  18.489  0.00  0.00    +0.000 C 
ATOM      2  C   UNL     1       2.551   7.975  18.480  0.00  0.00    +0.000 A 
ATOM      3  C   UNL     1       2.463   7.091  19.555  0.00  0.00    +0.000 A 
ATOM      4  C   UNL     1       3.156   5.880  19.526  0.00  0.00    +0.000 A 
ATOM      5  C   UNL     1       3.955   5.525  18.428  0.00  0.00    +0.000 A 
ATOM      6  S   UNL     1       4.813   3.984  18.544  0.00  0.00    +0.000 S 
ATOM      7  C   UNL     1       5.603   3.900  17.030  0.00  0.00    +0.000 A 
ATOM      8  C   UNL     1       5.619   4.794  16.030  0.00  0.00    +0.000 A 
ATOM      9  C   UNL     1       4.875   6.111  16.154  0.00  0.00    +0.000 A 
ATOM     10  O   UNL     1       4.967   6.980  15.286  0.00  0.00    +0.000 OA
ATOM     11  C   UNL     1       4.041   6.396  17.345  0.00  0.00    +0.000 A 
ATOM     12  C   UNL     1       3.331   7.613  17.374  0.00  0.00    +0.000 A 
ENDROOT
BRANCH   8  13
ATOM     13  N   UNL     1       6.322   4.519  14.836  0.00  0.00    +0.000 N 
ATOM     14  C   UNL     1       7.652   5.082  14.554  0.00  0.00    +0.000 C 
ATOM     15  C   UNL     1       7.724   5.498  13.081  0.00  0.00    +0.000 C 
ATOM     16  C   UNL     1       7.332   4.360  12.142  0.00  0.00    +0.000 C 
ATOM     17  C   UNL     1       5.985   3.763  12.540  0.00  0.00    +0.000 C 
ATOM     18  C   UNL     1       5.996   3.347  14.008  0.00  0.00    +0.000 C 
ENDBRANCH   8  13
TORSDOF 1
ENDMDL
MODEL 9
REMARK VINA RESULT:      -6.1      3.030      6.512
REMARK  Name = 
REMARK  2 active torsions:
REMARK  status: ('A' for Active; 'I' for Inactive)
REMARK    1  A    between atoms: C_1  and  C_2
REMARK    2  A    between atoms: C_8  and  N_9
REMARK                            x       y       z     vdW  Elec       q    Type
REMARK                         _______ _______ _______ _____ _____    ______ ____
ROOT
ATOM      1  C   UNL     1       0.559  10.455  19.618  0.00  0.00    +0.000 C 
ATOM      2  C   UNL     1       1.043   9.060  19.880  0.00  0.00    +0.000 A 
ATOM      3  C   UNL     1       0.533   8.307  20.937  0.00  0.00    +0.000 A 
ATOM      4  C   UNL     1       0.997   7.011  21.163  0.00  0.00    +0.000 A 
ATOM      5  C   UNL     1       1.982   6.438  20.343  0.00  0.00    +0.000 A 
ATOM      6  S   UNL     1       2.511   4.807  20.770  0.00  0.00    +0.000 S 
ATOM      7  C   UNL     1       3.641   4.461  19.535  0.00  0.00    +0.000 A 
ATOM      8  C   UNL     1       4.064   5.242  18.529  0.00  0.00    +0.000 A 
ATOM      9  C   UNL     1       3.545   6.660  18.376  0.00  0.00    +0.000 A 
ATOM     10  O   UNL     1       4.002   7.418  17.520  0.00  0.00    +0.000 OA
ATOM     11  C   UNL     1       2.490   7.178  19.279  0.00  0.00    +0.000 A 
ATOM     12  C   UNL     1       2.010   8.483  19.048  0.00  0.00    +0.000 A 
ENDROOT
BRANCH   8  13
ATOM     13  N   UNL     1       4.996   4.754  17.587  0.00  0.00    +0.000 N 
ATOM     14  C   UNL     1       6.420   4.564  17.908  0.00  0.00    +0.000 C 
ATOM     15  C   UNL     1       7.272   5.016  16.718  0.00  0.00    +0.000 C 
ATOM     16  C   UNL     1       6.846   4.342  15.416  0.00  0.00    +0.000 C 
ATOM     17  C   UNL     1       5.345   4.500  15.185  0.00  0.00    +0.000 C 
ATOM     18  C   UNL     1       4.562   4.006  16.397  0.00  0.00    +0.000 C 
ENDBRANCH   8  13
TORSDOF 1
ENDMDL
