MODEL 1
REMARK VINA RESULT:      -6.7      0.000      0.000
REMARK  Name = 
REMARK  13 active torsions:
REMARK  status: ('A' for Active; 'I' for Inactive)
REMARK    1  A    between atoms: C_1  and  O_2
REMARK    2  A    between atoms: O_2  and  C_3
REMARK    3  A    between atoms: C_3  and  C_5
REMARK    4  A    between atoms: C_5  and  C_6
REMARK    5  A    between atoms: C_6  and  C_7
REMARK    6  A    between atoms: C_7  and  C_8
REMARK    7  A    between atoms: C_7  and  C_9
REMARK    8  A    between atoms: C_18  and  O_19
REMARK    9  A    between atoms: O_19  and  C_20
REMARK   10  A    between atoms: C_20  and  C_22
REMARK   11  A    between atoms: C_22  and  N_23
REMARK   12  A    between atoms: C_26  and  C_27
REMARK   13  A    between atoms: C_31  and  C_32
REMARK                            x       y       z     vdW  Elec       q    Type
REMARK                         _______ _______ _______ _____ _____    ______ ____
ROOT
ATOM      1  C   UNL     1       1.164  10.853  19.755  0.00  0.00    +0.000 C 
ATOM      2  C   UNL     1       0.511  10.522  21.129  0.00  0.00    +0.000 C 
ATOM      3  C   UNL     1       0.602   8.988  21.288  0.00  0.00    +0.000 C 
ATOM      4  C   UNL     1       1.579   8.553  20.203  0.00  0.00    +0.000 C 
ATOM      5  C   UNL     1       1.567   7.064  19.786  0.00  0.00    +0.000 C 
ATOM      6  C   UNL     1       1.918   6.115  20.947  0.00  0.00    +0.000 C 
ATOM      7  C   UNL     1       1.822   4.652  20.476  0.00  0.00    +0.000 C 
ATOM      8  C   UNL     1       2.736   4.362  19.259  0.00  0.00    +0.000 C 
ATOM      9  C   UNL     1       4.232   4.375  19.677  0.00  0.00    +0.000 C 
ATOM     10  C   UNL     1       5.129   4.048  18.474  0.00  0.00    +0.000 C 
ATOM     11  C   UNL     1       4.918   5.085  17.366  0.00  0.00    +0.000 C 
ATOM     12  C   UNL     1       3.458   5.043  16.911  0.00  0.00    +0.000 C 
ATOM     13  C   UNL     1       2.452   5.347  18.063  0.00  0.00    +0.000 C 
ATOM     14  C   UNL     1       1.037   5.051  17.470  0.00  0.00    +0.000 C 
ATOM     15  C   UNL     1       2.562   6.839  18.587  0.00  0.00    +0.000 C 
ATOM     16  C   UNL     1       2.411   7.898  17.443  0.00  0.00    +0.000 C 
ATOM     17  C   UNL     1       2.349   9.343  17.975  0.00  0.00    +0.000 C 
ATOM     18  C   UNL     1       1.211   9.477  19.015  0.00  0.00    +0.000 C 
ATOM     19  C   UNL     1      -0.155   9.110  18.346  0.00  0.00    +0.000 C 
ENDROOT
BRANCH   1  20
ATOM     20  C   UNL     1       0.661  12.175  19.054  0.00  0.00    +0.000 C 
ATOM     21  C   UNL     1       1.825  13.182  18.975  0.00  0.00    +0.000 C 
BRANCH  20  22
ATOM     22  C   UNL     1      -0.554  12.835  19.772  0.00  0.00    +0.000 C 
BRANCH  22  23
ATOM     23  C   UNL     1      -1.949  12.288  19.446  0.00  0.00    +0.000 C 
BRANCH  23  24
ATOM     24  C   UNL     1      -2.896  12.760  20.525  0.00  0.00    +0.000 C 
ATOM     25  O   UNL     1      -2.470  13.398  21.477  0.00  0.00    +0.000 OA
BRANCH  24  27
ATOM     26  C   UNL     1      -4.925  12.313  19.272  0.00  0.00    +0.000 C 
ATOM     27  O   UNL     1      -4.212  12.419  20.448  0.00  0.00    +0.000 OA
ENDBRANCH  24  27
ENDBRANCH  23  24
ENDBRANCH  22  23
ENDBRANCH  20  22
ENDBRANCH   1  20
BRANCH  10  28
ATOM     28  O   UNL     1       6.457   4.052  18.863  0.00  0.00    +0.000 OA
BRANCH  28  29
ATOM     29  C   UNL     1       7.426   4.830  18.311  0.00  0.00    +0.000 C 
ATOM     30  O   UNL     1       7.819   4.640  17.169  0.00  0.00    +0.000 OA
BRANCH  29  31
ATOM     31  C   UNL     1       8.023   5.943  19.114  0.00  0.00    +0.000 C 
BRANCH  31  32
ATOM     32  N   UNL     1       8.096   5.568  20.521  0.00  0.00    +0.000 NA
ATOM     33  H   UNL     1       7.486   6.211  21.077  0.00  0.00    +0.000 HD
ATOM     34  H   UNL     1       9.082   5.703  20.846  0.00  0.00    +0.000 HD
ENDBRANCH  31  32
ENDBRANCH  29  31
ENDBRANCH  28  29
ENDBRANCH  10  28
TORSDOF 9
ENDMDL
MODEL 2
REMARK VINA RESULT:      -6.7      1.421      1.685
REMARK  Name = 
REMARK  13 active torsions:
REMARK  status: ('A' for Active; 'I' for Inactive)
REMARK    1  A    between atoms: C_1  and  O_2
REMARK    2  A    between atoms: O_2  and  C_3
REMARK    3  A    between atoms: C_3  and  C_5
REMARK    4  A    between atoms: C_5  and  C_6
REMARK    5  A    between atoms: C_6  and  C_7
REMARK    6  A    between atoms: C_7  and  C_8
REMARK    7  A    between atoms: C_7  and  C_9
REMARK    8  A    between atoms: C_18  and  O_19
REMARK    9  A    between atoms: O_19  and  C_20
REMARK   10  A    between atoms: C_20  and  C_22
REMARK   11  A    between atoms: C_22  and  N_23
REMARK   12  A    between atoms: C_26  and  C_27
REMARK   13  A    between atoms: C_31  and  C_32
REMARK                            x       y       z     vdW  Elec       q    Type
REMARK                         _______ _______ _______ _____ _____    ______ ____
ROOT
ATOM      1  C   UNL     1       1.031  10.522  20.097  0.00  0.00    +0.000 C 
ATOM      2  C   UNL     1       0.466  10.050  21.468  0.00  0.00    +0.000 C 
ATOM      3  C   UNL     1       0.718   8.529  21.535  0.00  0.00    +0.000 C 
ATOM      4  C   UNL     1       1.694   8.257  20.397  0.00  0.00    +0.000 C 
ATOM      5  C   UNL     1       1.820   6.801  19.895  0.00  0.00    +0.000 C 
ATOM      6  C   UNL     1       2.308   5.830  20.987  0.00  0.00    +0.000 C 
ATOM      7  C   UNL     1       2.344   4.394  20.435  0.00  0.00    +0.000 C 
ATOM      8  C   UNL     1       3.239   4.267  19.176  0.00  0.00    +0.000 C 
ATOM      9  C   UNL     1       4.740   4.413  19.548  0.00  0.00    +0.000 C 
ATOM     10  C   UNL     1       5.620   4.248  18.301  0.00  0.00    +0.000 C 
ATOM     11  C   UNL     1       5.265   5.316  17.262  0.00  0.00    +0.000 C 
ATOM     12  C   UNL     1       3.801   5.147  16.850  0.00  0.00    +0.000 C 
ATOM     13  C   UNL     1       2.811   5.281  18.049  0.00  0.00    +0.000 C 
ATOM     14  C   UNL     1       1.414   4.872  17.483  0.00  0.00    +0.000 C 
ATOM     15  C   UNL     1       2.788   6.746  18.655  0.00  0.00    +0.000 C 
ATOM     16  C   UNL     1       2.488   7.845  17.580  0.00  0.00    +0.000 C 
ATOM     17  C   UNL     1       2.298   9.244  18.196  0.00  0.00    +0.000 C 
ATOM     18  C   UNL     1       1.191   9.202  19.277  0.00  0.00    +0.000 C 
ATOM     19  C   UNL     1      -0.153   8.732  18.629  0.00  0.00    +0.000 C 
ENDROOT
BRANCH   1  20
ATOM     20  C   UNL     1       0.370  11.822  19.490  0.00  0.00    +0.000 C 
ATOM     21  C   UNL     1       0.659  13.019  20.417  0.00  0.00    +0.000 C 
BRANCH  20  22
ATOM     22  C   UNL     1      -1.166  11.691  19.267  0.00  0.00    +0.000 C 
BRANCH  22  23
ATOM     23  C   UNL     1      -1.704  11.986  17.862  0.00  0.00    +0.000 C 
BRANCH  23  24
ATOM     24  C   UNL     1      -3.153  11.559  17.820  0.00  0.00    +0.000 C 
ATOM     25  O   UNL     1      -3.905  11.857  18.737  0.00  0.00    +0.000 OA
BRANCH  24  27
ATOM     26  C   UNL     1      -2.797  10.375  15.733  0.00  0.00    +0.000 C 
ATOM     27  O   UNL     1      -3.590  10.797  16.780  0.00  0.00    +0.000 OA
ENDBRANCH  24  27
ENDBRANCH  23  24
ENDBRANCH  22  23
ENDBRANCH  20  22
ENDBRANCH   1  20
BRANCH  10  28
ATOM     28  O   UNL     1       6.955   4.368  18.648  0.00  0.00    +0.000 OA
BRANCH  28  29
ATOM     29  C   UNL     1       7.518   5.478  19.195  0.00  0.00    +0.000 C 
ATOM     30  O   UNL     1       7.811   5.523  20.381  0.00  0.00    +0.000 OA
BRANCH  29  31
ATOM     31  C   UNL     1       7.788   6.669  18.330  0.00  0.00    +0.000 C 
BRANCH  31  32
ATOM     32  N   UNL     1       8.624   7.630  19.040  0.00  0.00    +0.000 NA
ATOM     33  H   UNL     1       8.259   7.746  20.013  0.00  0.00    +0.000 HD
ATOM     34  H   UNL     1       8.544   8.554  18.556  0.00  0.00    +0.000 HD
ENDBRANCH  31  32
ENDBRANCH  29  31
ENDBRANCH  28  29
ENDBRANCH  10  28
TORSDOF 9
ENDMDL
MODEL 3
REMARK VINA RESULT:      -6.6      1.025      1.225
REMARK  Name = 
REMARK  13 active torsions:
REMARK  status: ('A' for Active; 'I' for Inactive)
REMARK    1  A    between atoms: C_1  and  O_2
REMARK    2  A    between atoms: O_2  and  C_3
REMARK    3  A    between atoms: C_3  and  C_5
REMARK    4  A    between atoms: C_5  and  C_6
REMARK    5  A    between atoms: C_6  and  C_7
REMARK    6  A    between atoms: C_7  and  C_8
REMARK    7  A    between atoms: C_7  and  C_9
REMARK    8  A    between atoms: C_18  and  O_19
REMARK    9  A    between atoms: O_19  and  C_20
REMARK   10  A    between atoms: C_20  and  C_22
REMARK   11  A    between atoms: C_22  and  N_23
REMARK   12  A    between atoms: C_26  and  C_27
REMARK   13  A    between atoms: C_31  and  C_32
REMARK                            x       y       z     vdW  Elec       q    Type
REMARK                         _______ _______ _______ _____ _____    ______ ____
ROOT
ATOM      1  C   UNL     1       1.275  10.615  20.007  0.00  0.00    +0.000 C 
ATOM      2  C   UNL     1       0.606  10.203  21.351  0.00  0.00    +0.000 C 
ATOM      3  C   UNL     1       0.700   8.663  21.422  0.00  0.00    +0.000 C 
ATOM      4  C   UNL     1       1.691   8.294  20.325  0.00  0.00    +0.000 C 
ATOM      5  C   UNL     1       1.688   6.832  19.822  0.00  0.00    +0.000 C 
ATOM      6  C   UNL     1       2.028   5.817  20.930  0.00  0.00    +0.000 C 
ATOM      7  C   UNL     1       1.942   4.385  20.374  0.00  0.00    +0.000 C 
ATOM      8  C   UNL     1       2.872   4.168  19.153  0.00  0.00    +0.000 C 
ATOM      9  C   UNL     1       4.363   4.160  19.589  0.00  0.00    +0.000 C 
ATOM     10  C   UNL     1       5.274   3.906  18.380  0.00  0.00    +0.000 C 
ATOM     11  C   UNL     1       5.074   5.004  17.332  0.00  0.00    +0.000 C 
ATOM     12  C   UNL     1       3.619   4.985  16.857  0.00  0.00    +0.000 C 
ATOM     13  C   UNL     1       2.598   5.219  18.014  0.00  0.00    +0.000 C 
ATOM     14  C   UNL     1       1.192   4.956  17.387  0.00  0.00    +0.000 C 
ATOM     15  C   UNL     1       2.698   6.680  18.624  0.00  0.00    +0.000 C 
ATOM     16  C   UNL     1       2.557   7.803  17.542  0.00  0.00    +0.000 C 
ATOM     17  C   UNL     1       2.485   9.214  18.157  0.00  0.00    +0.000 C 
ATOM     18  C   UNL     1       1.335   9.285  19.189  0.00  0.00    +0.000 C 
ATOM     19  C   UNL     1      -0.022   8.954  18.483  0.00  0.00    +0.000 C 
ENDROOT
BRANCH   1  20
ATOM     20  C   UNL     1       0.776  11.975  19.378  0.00  0.00    +0.000 C 
ATOM     21  C   UNL     1       1.893  13.030  19.500  0.00  0.00    +0.000 C 
BRANCH  20  22
ATOM     22  C   UNL     1      -0.531  12.518  20.030  0.00  0.00    +0.000 C 
BRANCH  22  23
ATOM     23  C   UNL     1      -1.623  13.043  19.091  0.00  0.00    +0.000 C 
BRANCH  23  24
ATOM     24  C   UNL     1      -2.410  11.856  18.584  0.00  0.00    +0.000 C 
ATOM     25  O   UNL     1      -2.756  10.976  19.359  0.00  0.00    +0.000 OA
BRANCH  24  27
ATOM     26  C   UNL     1      -2.447  10.632  16.490  0.00  0.00    +0.000 C 
ATOM     27  O   UNL     1      -2.678  11.758  17.253  0.00  0.00    +0.000 OA
ENDBRANCH  24  27
ENDBRANCH  23  24
ENDBRANCH  22  23
ENDBRANCH  20  22
ENDBRANCH   1  20
BRANCH  10  28
ATOM     28  O   UNL     1       6.598   3.889  18.785  0.00  0.00    +0.000 OA
BRANCH  28  29
ATOM     29  C   UNL     1       7.578   4.675  18.265  0.00  0.00    +0.000 C 
ATOM     30  O   UNL     1       8.088   4.423  17.183  0.00  0.00    +0.000 OA
BRANCH  29  31
ATOM     31  C   UNL     1       8.044   5.874  19.030  0.00  0.00    +0.000 C 
BRANCH  31  32
ATOM     32  N   UNL     1       8.044   5.593  20.461  0.00  0.00    +0.000 NA
ATOM     33  H   UNL     1       8.963   5.889  20.865  0.00  0.00    +0.000 HD
ATOM     34  H   UNL     1       7.957   4.558  20.591  0.00  0.00    +0.000 HD
ENDBRANCH  31  32
ENDBRANCH  29  31
ENDBRANCH  28  29
ENDBRANCH  10  28
TORSDOF 9
ENDMDL
MODEL 4
REMARK VINA RESULT:      -6.5      1.191      1.627
REMARK  Name = 
REMARK  13 active torsions:
REMARK  status: ('A' for Active; 'I' for Inactive)
REMARK    1  A    between atoms: C_1  and  O_2
REMARK    2  A    between atoms: O_2  and  C_3
REMARK    3  A    between atoms: C_3  and  C_5
REMARK    4  A    between atoms: C_5  and  C_6
REMARK    5  A    between atoms: C_6  and  C_7
REMARK    6  A    between atoms: C_7  and  C_8
REMARK    7  A    between atoms: C_7  and  C_9
REMARK    8  A    between atoms: C_18  and  O_19
REMARK    9  A    between atoms: O_19  and  C_20
REMARK   10  A    between atoms: C_20  and  C_22
REMARK   11  A    between atoms: C_22  and  N_23
REMARK   12  A    between atoms: C_26  and  C_27
REMARK   13  A    between atoms: C_31  and  C_32
REMARK                            x       y       z     vdW  Elec       q    Type
REMARK                         _______ _______ _______ _____ _____    ______ ____
ROOT
ATOM      1  C   UNL     1       1.016  10.615  20.503  0.00  0.00    +0.000 C 
ATOM      2  C   UNL     1       0.349  10.083  21.806  0.00  0.00    +0.000 C 
ATOM      3  C   UNL     1       0.477   8.545  21.755  0.00  0.00    +0.000 C 
ATOM      4  C   UNL     1       1.483   8.286  20.640  0.00  0.00    +0.000 C 
ATOM      5  C   UNL     1       1.517   6.869  20.023  0.00  0.00    +0.000 C 
ATOM      6  C   UNL     1       1.873   5.777  21.050  0.00  0.00    +0.000 C 
ATOM      7  C   UNL     1       1.823   4.391  20.382  0.00  0.00    +0.000 C 
ATOM      8  C   UNL     1       2.765   4.293  19.155  0.00  0.00    +0.000 C 
ATOM      9  C   UNL     1       4.253   4.283  19.600  0.00  0.00    +0.000 C 
ATOM     10  C   UNL     1       5.177   4.146  18.382  0.00  0.00    +0.000 C 
ATOM     11  C   UNL     1       4.958   5.319  17.422  0.00  0.00    +0.000 C 
ATOM     12  C   UNL     1       3.507   5.306  16.937  0.00  0.00    +0.000 C 
ATOM     13  C   UNL     1       2.474   5.425  18.100  0.00  0.00    +0.000 C 
ATOM     14  C   UNL     1       1.077   5.180  17.444  0.00  0.00    +0.000 C 
ATOM     15  C   UNL     1       2.537   6.834  18.825  0.00  0.00    +0.000 C 
ATOM     16  C   UNL     1       2.377   8.036  17.834  0.00  0.00    +0.000 C 
ATOM     17  C   UNL     1       2.269   9.392  18.557  0.00  0.00    +0.000 C 
ATOM     18  C   UNL     1       1.111   9.355  19.584  0.00  0.00    +0.000 C 
ATOM     19  C   UNL     1      -0.234   9.051  18.843  0.00  0.00    +0.000 C 
ENDROOT
BRANCH   1  20
ATOM     20  C   UNL     1       0.490  12.009  19.980  0.00  0.00    +0.000 C 
ATOM     21  C   UNL     1       1.414  13.128  20.500  0.00  0.00    +0.000 C 
BRANCH  20  22
ATOM     22  C   UNL     1      -0.982  12.311  20.392  0.00  0.00    +0.000 C 
BRANCH  22  23
ATOM     23  C   UNL     1      -1.228  13.527  21.292  0.00  0.00    +0.000 C 
BRANCH  23  24
ATOM     24  C   UNL     1      -1.773  13.027  22.610  0.00  0.00    +0.000 C 
ATOM     25  O   UNL     1      -2.501  12.046  22.637  0.00  0.00    +0.000 OA
BRANCH  24  27
ATOM     26  C   UNL     1      -1.129  15.044  23.792  0.00  0.00    +0.000 C 
ATOM     27  O   UNL     1      -1.485  13.713  23.750  0.00  0.00    +0.000 OA
ENDBRANCH  24  27
ENDBRANCH  23  24
ENDBRANCH  22  23
ENDBRANCH  20  22
ENDBRANCH   1  20
BRANCH  10  28
ATOM     28  O   UNL     1       6.498   4.127  18.794  0.00  0.00    +0.000 OA
BRANCH  28  29
ATOM     29  C   UNL     1       7.482   4.914  18.282  0.00  0.00    +0.000 C 
ATOM     30  O   UNL     1       7.903   4.746  17.147  0.00  0.00    +0.000 OA
BRANCH  29  31
ATOM     31  C   UNL     1       8.062   6.008  19.122  0.00  0.00    +0.000 C 
BRANCH  31  32
ATOM     32  N   UNL     1       8.023   5.638  20.532  0.00  0.00    +0.000 NA
ATOM     33  H   UNL     1       7.515   6.381  21.065  0.00  0.00    +0.000 HD
ATOM     34  H   UNL     1       9.006   5.605  20.889  0.00  0.00    +0.000 HD
ENDBRANCH  31  32
ENDBRANCH  29  31
ENDBRANCH  28  29
ENDBRANCH  10  28
TORSDOF 9
ENDMDL
MODEL 5
REMARK VINA RESULT:      -6.5      1.799      2.172
REMARK  Name = 
REMARK  13 active torsions:
REMARK  status: ('A' for Active; 'I' for Inactive)
REMARK    1  A    between atoms: C_1  and  O_2
REMARK    2  A    between atoms: O_2  and  C_3
REMARK    3  A    between atoms: C_3  and  C_5
REMARK    4  A    between atoms: C_5  and  C_6
REMARK    5  A    between atoms: C_6  and  C_7
REMARK    6  A    between atoms: C_7  and  C_8
REMARK    7  A    between atoms: C_7  and  C_9
REMARK    8  A    between atoms: C_18  and  O_19
REMARK    9  A    between atoms: O_19  and  C_20
REMARK   10  A    between atoms: C_20  and  C_22
REMARK   11  A    between atoms: C_22  and  N_23
REMARK   12  A    between atoms: C_26  and  C_27
REMARK   13  A    between atoms: C_31  and  C_32
REMARK                            x       y       z     vdW  Elec       q    Type
REMARK                         _______ _______ _______ _____ _____    ______ ____
ROOT
ATOM      1  C   UNL     1       1.179  10.770  20.056  0.00  0.00    +0.000 C 
ATOM      2  C   UNL     1       0.503  10.349  21.394  0.00  0.00    +0.000 C 
ATOM      3  C   UNL     1       0.587   8.808  21.450  0.00  0.00    +0.000 C 
ATOM      4  C   UNL     1       1.580   8.444  20.353  0.00  0.00    +0.000 C 
ATOM      5  C   UNL     1       1.571   6.987  19.836  0.00  0.00    +0.000 C 
ATOM      6  C   UNL     1       1.901   5.959  20.936  0.00  0.00    +0.000 C 
ATOM      7  C   UNL     1       1.808   4.532  20.365  0.00  0.00    +0.000 C 
ATOM      8  C   UNL     1       2.741   4.322  19.146  0.00  0.00    +0.000 C 
ATOM      9  C   UNL     1       4.230   4.300  19.587  0.00  0.00    +0.000 C 
ATOM     10  C   UNL     1       5.145   4.053  18.379  0.00  0.00    +0.000 C 
ATOM     11  C   UNL     1       4.955   5.162  17.341  0.00  0.00    +0.000 C 
ATOM     12  C   UNL     1       3.502   5.157  16.861  0.00  0.00    +0.000 C 
ATOM     13  C   UNL     1       2.478   5.386  18.015  0.00  0.00    +0.000 C 
ATOM     14  C   UNL     1       1.072   5.137  17.382  0.00  0.00    +0.000 C 
ATOM     15  C   UNL     1       2.584   6.840  18.641  0.00  0.00    +0.000 C 
ATOM     16  C   UNL     1       2.455   7.974  17.569  0.00  0.00    +0.000 C 
ATOM     17  C   UNL     1       2.388   9.380  18.197  0.00  0.00    +0.000 C 
ATOM     18  C   UNL     1       1.234   9.448  19.226  0.00  0.00    +0.000 C 
ATOM     19  C   UNL     1      -0.122   9.132  18.511  0.00  0.00    +0.000 C 
ENDROOT
BRANCH   1  20
ATOM     20  C   UNL     1       0.691  12.139  19.439  0.00  0.00    +0.000 C 
ATOM     21  C   UNL     1       1.881  12.840  18.753  0.00  0.00    +0.000 C 
BRANCH  20  22
ATOM     22  C   UNL     1       0.049  13.098  20.485  0.00  0.00    +0.000 C 
BRANCH  22  23
ATOM     23  C   UNL     1       0.347  14.595  20.346  0.00  0.00    +0.000 C 
BRANCH  23  24
ATOM     24  C   UNL     1       1.050  15.047  21.605  0.00  0.00    +0.000 C 
ATOM     25  O   UNL     1       1.883  14.325  22.133  0.00  0.00    +0.000 OA
BRANCH  24  27
ATOM     26  C   UNL     1      -0.237  16.389  23.163  0.00  0.00    +0.000 C 
ATOM     27  O   UNL     1       0.704  16.238  22.167  0.00  0.00    +0.000 OA
ENDBRANCH  24  27
ENDBRANCH  23  24
ENDBRANCH  22  23
ENDBRANCH  20  22
ENDBRANCH   1  20
BRANCH  10  28
ATOM     28  O   UNL     1       6.467   4.024  18.788  0.00  0.00    +0.000 OA
BRANCH  28  29
ATOM     29  C   UNL     1       7.461   4.783  18.255  0.00  0.00    +0.000 C 
ATOM     30  O   UNL     1       7.906   4.553  17.139  0.00  0.00    +0.000 OA
BRANCH  29  31
ATOM     31  C   UNL     1       8.024   5.923  19.045  0.00  0.00    +0.000 C 
BRANCH  31  32
ATOM     32  N   UNL     1       8.136   5.556  20.451  0.00  0.00    +0.000 NA
ATOM     33  H   UNL     1       8.678   4.665  20.529  0.00  0.00    +0.000 HD
ATOM     34  H   UNL     1       7.173   5.377  20.820  0.00  0.00    +0.000 HD
ENDBRANCH  31  32
ENDBRANCH  29  31
ENDBRANCH  28  29
ENDBRANCH  10  28
TORSDOF 9
ENDMDL
MODEL 6
REMARK VINA RESULT:      -6.5      1.071      1.117
REMARK  Name = 
REMARK  13 active torsions:
REMARK  status: ('A' for Active; 'I' for Inactive)
REMARK    1  A    between atoms: C_1  and  O_2
REMARK    2  A    between atoms: O_2  and  C_3
REMARK    3  A    between atoms: C_3  and  C_5
REMARK    4  A    between atoms: C_5  and  C_6
REMARK    5  A    between atoms: C_6  and  C_7
REMARK    6  A    between atoms: C_7  and  C_8
REMARK    7  A    between atoms: C_7  and  C_9
REMARK    8  A    between atoms: C_18  and  O_19
REMARK    9  A    between atoms: O_19  and  C_20
REMARK   10  A    between atoms: C_20  and  C_22
REMARK   11  A    between atoms: C_22  and  N_23
REMARK   12  A    between atoms: C_26  and  C_27
REMARK   13  A    between atoms: C_31  and  C_32
REMARK                            x       y       z     vdW  Elec       q    Type
REMARK                         _______ _______ _______ _____ _____    ______ ____
ROOT
ATOM      1  C   UNL     1       0.897  10.712  20.071  0.00  0.00    +0.000 C 
ATOM      2  C   UNL     1       0.299  10.294  21.447  0.00  0.00    +0.000 C 
ATOM      3  C   UNL     1       0.503   8.767  21.555  0.00  0.00    +0.000 C 
ATOM      4  C   UNL     1       1.484   8.436  20.438  0.00  0.00    +0.000 C 
ATOM      5  C   UNL     1       1.570   6.964  19.974  0.00  0.00    +0.000 C 
ATOM      6  C   UNL     1       2.013   6.007  21.097  0.00  0.00    +0.000 C 
ATOM      7  C   UNL     1       2.011   4.557  20.582  0.00  0.00    +0.000 C 
ATOM      8  C   UNL     1       2.917   4.370  19.339  0.00  0.00    +0.000 C 
ATOM      9  C   UNL     1       4.417   4.478  19.727  0.00  0.00    +0.000 C 
ATOM     10  C   UNL     1       5.308   4.253  18.496  0.00  0.00    +0.000 C 
ATOM     11  C   UNL     1       4.999   5.305  17.426  0.00  0.00    +0.000 C 
ATOM     12  C   UNL     1       3.536   5.171  16.999  0.00  0.00    +0.000 C 
ATOM     13  C   UNL     1       2.536   5.367  18.181  0.00  0.00    +0.000 C 
ATOM     14  C   UNL     1       1.133   4.988  17.607  0.00  0.00    +0.000 C 
ATOM     15  C   UNL     1       2.551   6.847  18.749  0.00  0.00    +0.000 C 
ATOM     16  C   UNL     1       2.299   7.926  17.643  0.00  0.00    +0.000 C 
ATOM     17  C   UNL     1       2.146   9.346  18.221  0.00  0.00    +0.000 C 
ATOM     18  C   UNL     1       1.025   9.367  19.288  0.00  0.00    +0.000 C 
ATOM     19  C   UNL     1      -0.326   8.922  18.634  0.00  0.00    +0.000 C 
ENDROOT
BRANCH   1  20
ATOM     20  C   UNL     1       0.284  12.015  19.423  0.00  0.00    +0.000 C 
ATOM     21  C   UNL     1       1.102  13.241  19.877  0.00  0.00    +0.000 C 
BRANCH  20  22
ATOM     22  C   UNL     1      -1.219  12.232  19.766  0.00  0.00    +0.000 C 
BRANCH  22  23
ATOM     23  C   UNL     1      -1.576  13.433  20.651  0.00  0.00    +0.000 C 
BRANCH  23  24
ATOM     24  C   UNL     1      -2.337  12.916  21.850  0.00  0.00    +0.000 C 
ATOM     25  O   UNL     1      -1.748  12.696  22.899  0.00  0.00    +0.000 OA
BRANCH  24  27
ATOM     26  C   UNL     1      -4.660  13.299  22.429  0.00  0.00    +0.000 C 
ATOM     27  O   UNL     1      -3.666  12.650  21.728  0.00  0.00    +0.000 OA
ENDBRANCH  24  27
ENDBRANCH  23  24
ENDBRANCH  22  23
ENDBRANCH  20  22
ENDBRANCH   1  20
BRANCH  10  28
ATOM     28  O   UNL     1       6.641   4.341  18.859  0.00  0.00    +0.000 OA
BRANCH  28  29
ATOM     29  C   UNL     1       7.600   4.983  18.140  0.00  0.00    +0.000 C 
ATOM     30  O   UNL     1       8.229   4.408  17.263  0.00  0.00    +0.000 OA
BRANCH  29  31
ATOM     31  C   UNL     1       7.893   6.423  18.425  0.00  0.00    +0.000 C 
BRANCH  31  32
ATOM     32  N   UNL     1       7.838   7.203  17.194  0.00  0.00    +0.000 NA
ATOM     33  H   UNL     1       7.350   8.108  17.387  0.00  0.00    +0.000 HD
ATOM     34  H   UNL     1       7.265   6.674  16.497  0.00  0.00    +0.000 HD
ENDBRANCH  31  32
ENDBRANCH  29  31
ENDBRANCH  28  29
ENDBRANCH  10  28
TORSDOF 9
ENDMDL
MODEL 7
REMARK VINA RESULT:      -6.4      3.908     10.476
REMARK  Name = 
REMARK  13 active torsions:
REMARK  status: ('A' for Active; 'I' for Inactive)
REMARK    1  A    between atoms: C_1  and  O_2
REMARK    2  A    between atoms: O_2  and  C_3
REMARK    3  A    between atoms: C_3  and  C_5
REMARK    4  A    between atoms: C_5  and  C_6
REMARK    5  A    between atoms: C_6  and  C_7
REMARK    6  A    between atoms: C_7  and  C_8
REMARK    7  A    between atoms: C_7  and  C_9
REMARK    8  A    between atoms: C_18  and  O_19
REMARK    9  A    between atoms: O_19  and  C_20
REMARK   10  A    between atoms: C_20  and  C_22
REMARK   11  A    between atoms: C_22  and  N_23
REMARK   12  A    between atoms: C_26  and  C_27
REMARK   13  A    between atoms: C_31  and  C_32
REMARK                            x       y       z     vdW  Elec       q    Type
REMARK                         _______ _______ _______ _____ _____    ______ ____
ROOT
ATOM      1  C   UNL     1       1.133   8.655  20.123  0.00  0.00    +0.000 C 
ATOM      2  C   UNL     1       1.719   8.550  21.562  0.00  0.00    +0.000 C 
ATOM      3  C   UNL     1       0.999   9.630  22.398  0.00  0.00    +0.000 C 
ATOM      4  C   UNL     1      -0.176  10.060  21.528  0.00  0.00    +0.000 C 
ATOM      5  C   UNL     1      -0.844  11.417  21.850  0.00  0.00    +0.000 C 
ATOM      6  C   UNL     1      -1.446  11.467  23.267  0.00  0.00    +0.000 C 
ATOM      7  C   UNL     1      -2.033  12.864  23.538  0.00  0.00    +0.000 C 
ATOM      8  C   UNL     1      -3.103  13.269  22.493  0.00  0.00    +0.000 C 
ATOM      9  C   UNL     1      -4.399  12.432  22.677  0.00  0.00    +0.000 C 
ATOM     10  C   UNL     1      -5.467  12.866  21.663  0.00  0.00    +0.000 C 
ATOM     11  C   UNL     1      -4.949  12.664  20.236  0.00  0.00    +0.000 C 
ATOM     12  C   UNL     1      -3.702  13.526  20.029  0.00  0.00    +0.000 C 
ATOM     13  C   UNL     1      -2.550  13.180  21.022  0.00  0.00    +0.000 C 
ATOM     14  C   UNL     1      -1.466  14.284  20.805  0.00  0.00    +0.000 C 
ATOM     15  C   UNL     1      -1.957  11.729  20.781  0.00  0.00    +0.000 C 
ATOM     16  C   UNL     1      -1.486  11.501  19.305  0.00  0.00    +0.000 C 
ATOM     17  C   UNL     1      -0.759  10.156  19.113  0.00  0.00    +0.000 C 
ATOM     18  C   UNL     1       0.427  10.049  20.102  0.00  0.00    +0.000 C 
ATOM     19  C   UNL     1       1.429  11.224  19.845  0.00  0.00    +0.000 C 
ENDROOT
BRANCH   1  20
ATOM     20  C   UNL     1       2.078   8.166  18.957  0.00  0.00    +0.000 C 
ATOM     21  C   UNL     1       1.603   8.781  17.626  0.00  0.00    +0.000 C 
BRANCH  20  22
ATOM     22  C   UNL     1       2.147   6.616  18.823  0.00  0.00    +0.000 C 
BRANCH  22  23
ATOM     23  C   UNL     1       3.451   5.927  19.243  0.00  0.00    +0.000 C 
BRANCH  23  24
ATOM     24  C   UNL     1       4.088   5.342  18.005  0.00  0.00    +0.000 C 
ATOM     25  O   UNL     1       3.549   4.413  17.421  0.00  0.00    +0.000 OA
BRANCH  24  27
ATOM     26  C   UNL     1       6.504   5.224  17.828  0.00  0.00    +0.000 C 
ATOM     27  O   UNL     1       5.289   5.827  17.584  0.00  0.00    +0.000 OA
ENDBRANCH  24  27
ENDBRANCH  23  24
ENDBRANCH  22  23
ENDBRANCH  20  22
ENDBRANCH   1  20
BRANCH  10  28
ATOM     28  O   UNL     1      -6.619  12.121  21.845  0.00  0.00    +0.000 OA
BRANCH  28  29
ATOM     29  C   UNL     1      -7.472  12.253  22.896  0.00  0.00    +0.000 C 
ATOM     30  O   UNL     1      -7.884  11.277  23.506  0.00  0.00    +0.000 OA
BRANCH  29  31
ATOM     31  C   UNL     1      -7.914  13.619  23.318  0.00  0.00    +0.000 C 
BRANCH  31  32
ATOM     32  N   UNL     1      -7.435  13.912  24.664  0.00  0.00    +0.000 NA
ATOM     33  H   UNL     1      -8.161  14.470  25.169  0.00  0.00    +0.000 HD
ATOM     34  H   UNL     1      -6.576  14.504  24.584  0.00  0.00    +0.000 HD
ENDBRANCH  31  32
ENDBRANCH  29  31
ENDBRANCH  28  29
ENDBRANCH  10  28
TORSDOF 9
ENDMDL
MODEL 8
REMARK VINA RESULT:      -6.4      1.445      1.723
REMARK  Name = 
REMARK  13 active torsions:
REMARK  status: ('A' for Active; 'I' for Inactive)
REMARK    1  A    between atoms: C_1  and  O_2
REMARK    2  A    between atoms: O_2  and  C_3
REMARK    3  A    between atoms: C_3  and  C_5
REMARK    4  A    between atoms: C_5  and  C_6
REMARK    5  A    between atoms: C_6  and  C_7
REMARK    6  A    between atoms: C_7  and  C_8
REMARK    7  A    between atoms: C_7  and  C_9
REMARK    8  A    between atoms: C_18  and  O_19
REMARK    9  A    between atoms: O_19  and  C_20
REMARK   10  A    between atoms: C_20  and  C_22
REMARK   11  A    between atoms: C_22  and  N_23
REMARK   12  A    between atoms: C_26  and  C_27
REMARK   13  A    between atoms: C_31  and  C_32
REMARK                            x       y       z     vdW  Elec       q    Type
REMARK                         _______ _______ _______ _____ _____    ______ ____
ROOT
ATOM      1  C   UNL     1       1.150  10.901  19.818  0.00  0.00    +0.000 C 
ATOM      2  C   UNL     1       0.440  10.532  21.154  0.00  0.00    +0.000 C 
ATOM      3  C   UNL     1       0.514   8.994  21.268  0.00  0.00    +0.000 C 
ATOM      4  C   UNL     1       1.529   8.585  20.209  0.00  0.00    +0.000 C 
ATOM      5  C   UNL     1       1.524   7.110  19.745  0.00  0.00    +0.000 C 
ATOM      6  C   UNL     1       1.821   6.121  20.889  0.00  0.00    +0.000 C 
ATOM      7  C   UNL     1       1.733   4.675  20.368  0.00  0.00    +0.000 C 
ATOM      8  C   UNL     1       2.693   4.416  19.180  0.00  0.00    +0.000 C 
ATOM      9  C   UNL     1       4.172   4.403  19.657  0.00  0.00    +0.000 C 
ATOM     10  C   UNL     1       5.112   4.106  18.480  0.00  0.00    +0.000 C 
ATOM     11  C   UNL     1       4.954   5.178  17.398  0.00  0.00    +0.000 C 
ATOM     12  C   UNL     1       3.512   5.163  16.884  0.00  0.00    +0.000 C 
ATOM     13  C   UNL     1       2.463   5.439  18.005  0.00  0.00    +0.000 C 
ATOM     14  C   UNL     1       1.071   5.174  17.348  0.00  0.00    +0.000 C 
ATOM     15  C   UNL     1       2.563   6.914  18.580  0.00  0.00    +0.000 C 
ATOM     16  C   UNL     1       2.466   8.009  17.465  0.00  0.00    +0.000 C 
ATOM     17  C   UNL     1       2.393   9.437  18.039  0.00  0.00    +0.000 C 
ATOM     18  C   UNL     1       1.216   9.549  19.038  0.00  0.00    +0.000 C 
ATOM     19  C   UNL     1      -0.125   9.214  18.304  0.00  0.00    +0.000 C 
ENDROOT
BRANCH   1  20
ATOM     20  C   UNL     1       0.684  12.249  19.140  0.00  0.00    +0.000 C 
ATOM     21  C   UNL     1       1.874  12.875  18.386  0.00  0.00    +0.000 C 
BRANCH  20  22
ATOM     22  C   UNL     1       0.100  13.282  20.148  0.00  0.00    +0.000 C 
BRANCH  22  23
ATOM     23  C   UNL     1       0.573  14.735  20.026  0.00  0.00    +0.000 C 
BRANCH  23  24
ATOM     24  C   UNL     1      -0.572  15.552  19.475  0.00  0.00    +0.000 C 
ATOM     25  O   UNL     1      -0.423  16.198  18.448  0.00  0.00    +0.000 OA
BRANCH  24  27
ATOM     26  C   UNL     1      -1.936  16.302  21.335  0.00  0.00    +0.000 C 
ATOM     27  O   UNL     1      -1.745  15.599  20.164  0.00  0.00    +0.000 OA
ENDBRANCH  24  27
ENDBRANCH  23  24
ENDBRANCH  22  23
ENDBRANCH  20  22
ENDBRANCH   1  20
BRANCH  10  28
ATOM     28  O   UNL     1       6.424   4.086  18.921  0.00  0.00    +0.000 OA
BRANCH  28  29
ATOM     29  C   UNL     1       7.437   4.815  18.380  0.00  0.00    +0.000 C 
ATOM     30  O   UNL     1       7.857   4.581  17.256  0.00  0.00    +0.000 OA
BRANCH  29  31
ATOM     31  C   UNL     1       8.048   5.927  19.172  0.00  0.00    +0.000 C 
BRANCH  31  32
ATOM     32  N   UNL     1       8.159   5.548  20.576  0.00  0.00    +0.000 NA
ATOM     33  H   UNL     1       7.454   6.086  21.130  0.00  0.00    +0.000 HD
ATOM     34  H   UNL     1       9.109   5.822  20.916  0.00  0.00    +0.000 HD
ENDBRANCH  31  32
ENDBRANCH  29  31
ENDBRANCH  28  29
ENDBRANCH  10  28
TORSDOF 9
ENDMDL
MODEL 9
REMARK VINA RESULT:      -6.3      1.835      2.988
REMARK  Name = 
REMARK  13 active torsions:
REMARK  status: ('A' for Active; 'I' for Inactive)
REMARK    1  A    between atoms: C_1  and  O_2
REMARK    2  A    between atoms: O_2  and  C_3
REMARK    3  A    between atoms: C_3  and  C_5
REMARK    4  A    between atoms: C_5  and  C_6
REMARK    5  A    between atoms: C_6  and  C_7
REMARK    6  A    between atoms: C_7  and  C_8
REMARK    7  A    between atoms: C_7  and  C_9
REMARK    8  A    between atoms: C_18  and  O_19
REMARK    9  A    between atoms: O_19  and  C_20
REMARK   10  A    between atoms: C_20  and  C_22
REMARK   11  A    between atoms: C_22  and  N_23
REMARK   12  A    between atoms: C_26  and  C_27
REMARK   13  A    between atoms: C_31  and  C_32
REMARK                            x       y       z     vdW  Elec       q    Type
REMARK                         _______ _______ _______ _____ _____    ______ ____
ROOT
ATOM      1  C   UNL     1       1.169  10.616  20.232  0.00  0.00    +0.000 C 
ATOM      2  C   UNL     1       0.529  10.156  21.575  0.00  0.00    +0.000 C 
ATOM      3  C   UNL     1       0.634   8.616  21.594  0.00  0.00    +0.000 C 
ATOM      4  C   UNL     1       1.606   8.290  20.467  0.00  0.00    +0.000 C 
ATOM      5  C   UNL     1       1.604   6.845  19.917  0.00  0.00    +0.000 C 
ATOM      6  C   UNL     1       1.972   5.797  20.984  0.00  0.00    +0.000 C 
ATOM      7  C   UNL     1       1.884   4.382  20.384  0.00  0.00    +0.000 C 
ATOM      8  C   UNL     1       2.791   4.212  19.139  0.00  0.00    +0.000 C 
ATOM      9  C   UNL     1       4.291   4.201  19.545  0.00  0.00    +0.000 C 
ATOM     10  C   UNL     1       5.180   3.992  18.311  0.00  0.00    +0.000 C 
ATOM     11  C   UNL     1       4.952   5.123  17.303  0.00  0.00    +0.000 C 
ATOM     12  C   UNL     1       3.488   5.109  16.857  0.00  0.00    +0.000 C 
ATOM     13  C   UNL     1       2.489   5.298  18.039  0.00  0.00    +0.000 C 
ATOM     14  C   UNL     1       1.072   5.044  17.432  0.00  0.00    +0.000 C 
ATOM     15  C   UNL     1       2.591   6.738  18.695  0.00  0.00    +0.000 C 
ATOM     16  C   UNL     1       2.421   7.895  17.653  0.00  0.00    +0.000 C 
ATOM     17  C   UNL     1       2.352   9.285  18.314  0.00  0.00    +0.000 C 
ATOM     18  C   UNL     1       1.221   9.314  19.371  0.00  0.00    +0.000 C 
ATOM     19  C   UNL     1      -0.147   8.996  18.681  0.00  0.00    +0.000 C 
ENDROOT
BRANCH   1  20
ATOM     20  C   UNL     1       0.648  11.992  19.658  0.00  0.00    +0.000 C 
ATOM     21  C   UNL     1      -0.883  11.925  19.488  0.00  0.00    +0.000 C 
BRANCH  20  22
ATOM     22  C   UNL     1       1.308  12.390  18.304  0.00  0.00    +0.000 C 
BRANCH  22  23
ATOM     23  C   UNL     1       2.780  12.818  18.335  0.00  0.00    +0.000 C 
BRANCH  23  24
ATOM     24  C   UNL     1       2.847  14.212  18.913  0.00  0.00    +0.000 C 
ATOM     25  O   UNL     1       1.990  15.035  18.624  0.00  0.00    +0.000 OA
BRANCH  24  27
ATOM     26  C   UNL     1       4.819  15.531  19.415  0.00  0.00    +0.000 C 
ATOM     27  O   UNL     1       3.896  14.550  19.711  0.00  0.00    +0.000 OA
ENDBRANCH  24  27
ENDBRANCH  23  24
ENDBRANCH  22  23
ENDBRANCH  20  22
ENDBRANCH   1  20
BRANCH  10  28
ATOM     28  O   UNL     1       6.512   3.973  18.689  0.00  0.00    +0.000 OA
BRANCH  28  29
ATOM     29  C   UNL     1       7.468   4.810  18.207  0.00  0.00    +0.000 C 
ATOM     30  O   UNL     1       7.942   4.655  17.090  0.00  0.00    +0.000 OA
BRANCH  29  31
ATOM     31  C   UNL     1       7.951   5.944  19.055  0.00  0.00    +0.000 C 
BRANCH  31  32
ATOM     32  N   UNL     1       8.160   5.497  20.426  0.00  0.00    +0.000 NA
ATOM     33  H   UNL     1       7.721   4.555  20.547  0.00  0.00    +0.000 HD
ATOM     34  H   UNL     1       7.668   6.162  21.067  0.00  0.00    +0.000 HD
ENDBRANCH  31  32
ENDBRANCH  29  31
ENDBRANCH  28  29
ENDBRANCH  10  28
TORSDOF 9
ENDMDL
