MODEL 1
REMARK VINA RESULT:      -6.7      0.000      0.000
REMARK  Name = 
REMARK  7 active torsions:
REMARK  status: ('A' for Active; 'I' for Inactive)
REMARK    1  A    between atoms: C_1  and  C_2
REMARK    2  A    between atoms: C_2  and  C_3
REMARK    3  A    between atoms: C_3  and  C_4
REMARK    4  A    between atoms: C_15  and  C_16
REMARK    5  A    between atoms: C_15  and  C_17
REMARK    6  A    between atoms: C_20  and  C_21
REMARK    7  A    between atoms: C_21  and  C_22
REMARK                            x       y       z     vdW  Elec       q    Type
REMARK                         _______ _______ _______ _____ _____    ______ ____
ROOT
ATOM      1  C   UNL     1       0.396  10.113  19.550  0.00  0.00    +0.000 A 
ATOM      2  N   UNL     1       1.068   9.088  18.916  0.00  0.00    +0.000 NA
ATOM      3  C   UNL     1       1.605   8.276  19.782  0.00  0.00    +0.000 A 
ATOM      4  N   UNL     1       2.398   7.181  19.535  0.00  0.00    +0.000 N 
ATOM      5  C   UNL     1       2.941   7.003  18.287  0.00  0.00    +0.000 C 
ATOM      6  O   UNL     1       2.835   7.816  17.369  0.00  0.00    +0.000 OA
ATOM      7  N   UNL     1       3.671   5.837  18.084  0.00  0.00    +0.000 N 
ATOM      8  C   UNL     1       3.937   4.753  19.030  0.00  0.00    +0.000 C 
ATOM      9  C   UNL     1       5.414   4.657  19.393  0.00  0.00    +0.000 C 
ATOM     10  S   UNL     1       6.463   4.382  17.929  0.00  0.00    +0.000 S 
ATOM     11  O   UNL     1       7.957   4.622  18.347  0.00  0.00    +0.000 OA
ATOM     12  C   UNL     1       5.886   5.829  16.927  0.00  0.00    +0.000 C 
ATOM     13  C   UNL     1       6.524   5.722  15.533  0.00  0.00    +0.000 C 
ATOM     14  C   UNL     1       6.316   7.161  17.559  0.00  0.00    +0.000 C 
ATOM     15  C   UNL     1       4.357   5.707  16.789  0.00  0.00    +0.000 C 
ATOM     16  S   UNL     1       1.280   8.621  21.418  0.00  0.00    +0.000 S 
ATOM     17  C   UNL     1       0.422  10.046  20.936  0.00  0.00    +0.000 A 
ATOM     18  H   UNL     1       2.734   6.686  20.341  0.00  0.00    +0.000 HD
ENDROOT
BRANCH  17  19
ATOM     19  C   UNL     1      -0.117  10.995  21.963  0.00  0.00    +0.000 C 
ATOM     20  C   UNL     1      -0.817  10.287  23.112  0.00  0.00    +0.000 C 
ENDBRANCH  17  19
BRANCH   1  21
ATOM     21  C   UNL     1      -0.216  11.151  18.660  0.00  0.00    +0.000 C 
BRANCH  21  23
ATOM     22  C   UNL     1      -1.956  10.091  17.167  0.00  0.00    +0.000 C 
ATOM     23  C   UNL     1      -1.708  10.895  18.434  0.00  0.00    +0.000 C 
ENDBRANCH  21  23
ENDBRANCH   1  21
TORSDOF 3
ENDMDL
MODEL 2
REMARK VINA RESULT:      -6.6      2.491      7.534
REMARK  Name = 
REMARK  7 active torsions:
REMARK  status: ('A' for Active; 'I' for Inactive)
REMARK    1  A    between atoms: C_1  and  C_2
REMARK    2  A    between atoms: C_2  and  C_3
REMARK    3  A    between atoms: C_3  and  C_4
REMARK    4  A    between atoms: C_15  and  C_16
REMARK    5  A    between atoms: C_15  and  C_17
REMARK    6  A    between atoms: C_20  and  C_21
REMARK    7  A    between atoms: C_21  and  C_22
REMARK                            x       y       z     vdW  Elec       q    Type
REMARK                         _______ _______ _______ _____ _____    ______ ____
ROOT
ATOM      1  C   UNL     1       3.105   5.130  18.528  0.00  0.00    +0.000 A 
ATOM      2  N   UNL     1       2.846   6.466  18.757  0.00  0.00    +0.000 NA
ATOM      3  C   UNL     1       2.181   6.629  19.866  0.00  0.00    +0.000 A 
ATOM      4  N   UNL     1       1.691   7.799  20.394  0.00  0.00    +0.000 N 
ATOM      5  C   UNL     1       1.625   8.923  19.609  0.00  0.00    +0.000 C 
ATOM      6  O   UNL     1       1.905   8.941  18.410  0.00  0.00    +0.000 OA
ATOM      7  N   UNL     1       1.189  10.091  20.225  0.00  0.00    +0.000 N 
ATOM      8  C   UNL     1       0.793  10.291  21.620  0.00  0.00    +0.000 C 
ATOM      9  C   UNL     1      -0.688  10.623  21.753  0.00  0.00    +0.000 C 
ATOM     10  S   UNL     1      -1.139  12.128  20.830  0.00  0.00    +0.000 S 
ATOM     11  O   UNL     1      -2.705  12.203  20.756  0.00  0.00    +0.000 OA
ATOM     12  C   UNL     1      -0.490  11.613  19.173  0.00  0.00    +0.000 C 
ATOM     13  C   UNL     1      -0.606  12.818  18.226  0.00  0.00    +0.000 C 
ATOM     14  C   UNL     1      -1.302  10.450  18.585  0.00  0.00    +0.000 C 
ATOM     15  C   UNL     1       0.999  11.261  19.356  0.00  0.00    +0.000 C 
ATOM     16  S   UNL     1       1.891   5.212  20.767  0.00  0.00    +0.000 S 
ATOM     17  C   UNL     1       2.633   4.275  19.514  0.00  0.00    +0.000 A 
ATOM     18  H   UNL     1       1.186   7.718  21.258  0.00  0.00    +0.000 HD
ENDROOT
BRANCH  17  19
ATOM     19  C   UNL     1       2.651   2.780  19.590  0.00  0.00    +0.000 C 
ATOM     20  C   UNL     1       1.451   2.139  18.911  0.00  0.00    +0.000 C 
ENDBRANCH  17  19
BRANCH   1  21
ATOM     21  C   UNL     1       3.813   4.806  17.247  0.00  0.00    +0.000 C 
BRANCH  21  23
ATOM     22  C   UNL     1       5.415   5.637  15.480  0.00  0.00    +0.000 C 
ATOM     23  C   UNL     1       4.722   5.952  16.796  0.00  0.00    +0.000 C 
ENDBRANCH  21  23
ENDBRANCH   1  21
TORSDOF 3
ENDMDL
MODEL 3
REMARK VINA RESULT:      -6.5      2.706      7.646
REMARK  Name = 
REMARK  7 active torsions:
REMARK  status: ('A' for Active; 'I' for Inactive)
REMARK    1  A    between atoms: C_1  and  C_2
REMARK    2  A    between atoms: C_2  and  C_3
REMARK    3  A    between atoms: C_3  and  C_4
REMARK    4  A    between atoms: C_15  and  C_16
REMARK    5  A    between atoms: C_15  and  C_17
REMARK    6  A    between atoms: C_20  and  C_21
REMARK    7  A    between atoms: C_21  and  C_22
REMARK                            x       y       z     vdW  Elec       q    Type
REMARK                         _______ _______ _______ _____ _____    ______ ____
ROOT
ATOM      1  C   UNL     1       2.783   4.763  18.500  0.00  0.00    +0.000 A 
ATOM      2  N   UNL     1       2.649   6.029  19.031  0.00  0.00    +0.000 NA
ATOM      3  C   UNL     1       1.963   6.001  20.139  0.00  0.00    +0.000 A 
ATOM      4  N   UNL     1       1.572   7.062  20.918  0.00  0.00    +0.000 N 
ATOM      5  C   UNL     1       1.647   8.337  20.416  0.00  0.00    +0.000 C 
ATOM      6  O   UNL     1       1.972   8.602  19.259  0.00  0.00    +0.000 OA
ATOM      7  N   UNL     1       1.307   9.371  21.283  0.00  0.00    +0.000 N 
ATOM      8  C   UNL     1       0.881   9.285  22.680  0.00  0.00    +0.000 C 
ATOM      9  C   UNL     1      -0.564   9.731  22.868  0.00  0.00    +0.000 C 
ATOM     10  S   UNL     1      -0.828  11.447  22.315  0.00  0.00    +0.000 S 
ATOM     11  O   UNL     1      -2.375  11.702  22.240  0.00  0.00    +0.000 OA
ATOM     12  C   UNL     1      -0.172  11.264  20.593  0.00  0.00    +0.000 C 
ATOM     13  C   UNL     1      -0.132  12.660  19.952  0.00  0.00    +0.000 C 
ATOM     14  C   UNL     1      -1.073  10.360  19.739  0.00  0.00    +0.000 C 
ATOM     15  C   UNL     1       1.266  10.724  20.709  0.00  0.00    +0.000 C 
ATOM     16  S   UNL     1       1.500   4.453  20.680  0.00  0.00    +0.000 S 
ATOM     17  C   UNL     1       2.191   3.758  19.253  0.00  0.00    +0.000 A 
ATOM     18  H   UNL     1       1.030   6.838  21.733  0.00  0.00    +0.000 HD
ENDROOT
BRANCH  17  19
ATOM     19  C   UNL     1       2.058   2.292  18.978  0.00  0.00    +0.000 C 
ATOM     20  C   UNL     1       3.393   1.618  18.705  0.00  0.00    +0.000 C 
ENDBRANCH  17  19
BRANCH   1  21
ATOM     21  C   UNL     1       3.502   4.670  17.188  0.00  0.00    +0.000 C 
BRANCH  21  23
ATOM     22  C   UNL     1       5.187   6.134  16.007  0.00  0.00    +0.000 C 
ATOM     23  C   UNL     1       4.887   5.319  17.255  0.00  0.00    +0.000 C 
ENDBRANCH  21  23
ENDBRANCH   1  21
TORSDOF 3
ENDMDL
MODEL 4
REMARK VINA RESULT:      -6.4      2.504      4.049
REMARK  Name = 
REMARK  7 active torsions:
REMARK  status: ('A' for Active; 'I' for Inactive)
REMARK    1  A    between atoms: C_1  and  C_2
REMARK    2  A    between atoms: C_2  and  C_3
REMARK    3  A    between atoms: C_3  and  C_4
REMARK    4  A    between atoms: C_15  and  C_16
REMARK    5  A    between atoms: C_15  and  C_17
REMARK    6  A    between atoms: C_20  and  C_21
REMARK    7  A    between atoms: C_21  and  C_22
REMARK                            x       y       z     vdW  Elec       q    Type
REMARK                         _______ _______ _______ _____ _____    ______ ____
ROOT
ATOM      1  C   UNL     1      -0.121  10.576  20.298  0.00  0.00    +0.000 A 
ATOM      2  N   UNL     1       0.696   9.472  20.436  0.00  0.00    +0.000 NA
ATOM      3  C   UNL     1       1.202   9.120  19.288  0.00  0.00    +0.000 A 
ATOM      4  N   UNL     1       2.006   8.039  19.015  0.00  0.00    +0.000 N 
ATOM      5  C   UNL     1       2.126   7.031  19.939  0.00  0.00    +0.000 C 
ATOM      6  O   UNL     1       1.487   6.982  20.989  0.00  0.00    +0.000 OA
ATOM      7  N   UNL     1       3.013   6.005  19.632  0.00  0.00    +0.000 N 
ATOM      8  C   UNL     1       3.855   5.854  18.444  0.00  0.00    +0.000 C 
ATOM      9  C   UNL     1       3.438   4.661  17.593  0.00  0.00    +0.000 C 
ATOM     10  S   UNL     1       3.510   3.096  18.523  0.00  0.00    +0.000 S 
ATOM     11  O   UNL     1       2.766   1.996  17.687  0.00  0.00    +0.000 OA
ATOM     12  C   UNL     1       2.431   3.595  19.944  0.00  0.00    +0.000 C 
ATOM     13  C   UNL     1       2.470   2.465  20.985  0.00  0.00    +0.000 C 
ATOM     14  C   UNL     1       0.975   3.802  19.502  0.00  0.00    +0.000 C 
ATOM     15  C   UNL     1       3.047   4.865  20.560  0.00  0.00    +0.000 C 
ATOM     16  S   UNL     1       0.816  10.128  17.970  0.00  0.00    +0.000 S 
ATOM     17  C   UNL     1      -0.205  11.070  19.004  0.00  0.00    +0.000 A 
ATOM     18  H   UNL     1       2.284   7.925  18.057  0.00  0.00    +0.000 HD
ENDROOT
BRANCH  17  19
ATOM     19  C   UNL     1      -1.031  12.188  18.445  0.00  0.00    +0.000 C 
ATOM     20  C   UNL     1      -0.290  13.515  18.421  0.00  0.00    +0.000 C 
ENDBRANCH  17  19
BRANCH   1  21
ATOM     21  C   UNL     1      -0.814  11.043  21.542  0.00  0.00    +0.000 C 
BRANCH  21  23
ATOM     22  C   UNL     1      -1.220  13.038  23.038  0.00  0.00    +0.000 C 
ATOM     23  C   UNL     1      -0.310  12.418  21.989  0.00  0.00    +0.000 C 
ENDBRANCH  21  23
ENDBRANCH   1  21
TORSDOF 3
ENDMDL
MODEL 5
REMARK VINA RESULT:      -6.4      2.579      4.130
REMARK  Name = 
REMARK  7 active torsions:
REMARK  status: ('A' for Active; 'I' for Inactive)
REMARK    1  A    between atoms: C_1  and  C_2
REMARK    2  A    between atoms: C_2  and  C_3
REMARK    3  A    between atoms: C_3  and  C_4
REMARK    4  A    between atoms: C_15  and  C_16
REMARK    5  A    between atoms: C_15  and  C_17
REMARK    6  A    between atoms: C_20  and  C_21
REMARK    7  A    between atoms: C_21  and  C_22
REMARK                            x       y       z     vdW  Elec       q    Type
REMARK                         _______ _______ _______ _____ _____    ______ ____
ROOT
ATOM      1  C   UNL     1       0.273  10.754  20.383  0.00  0.00    +0.000 A 
ATOM      2  N   UNL     1       1.059   9.620  20.426  0.00  0.00    +0.000 NA
ATOM      3  C   UNL     1       1.238   9.131  19.231  0.00  0.00    +0.000 A 
ATOM      4  N   UNL     1       1.906   7.983  18.879  0.00  0.00    +0.000 N 
ATOM      5  C   UNL     1       2.226   7.061  19.843  0.00  0.00    +0.000 C 
ATOM      6  O   UNL     1       1.879   7.149  21.021  0.00  0.00    +0.000 OA
ATOM      7  N   UNL     1       2.966   5.958  19.432  0.00  0.00    +0.000 N 
ATOM      8  C   UNL     1       3.466   5.645  18.092  0.00  0.00    +0.000 C 
ATOM      9  C   UNL     1       2.801   4.405  17.507  0.00  0.00    +0.000 C 
ATOM     10  S   UNL     1       3.058   2.933  18.549  0.00  0.00    +0.000 S 
ATOM     11  O   UNL     1       2.084   1.807  18.051  0.00  0.00    +0.000 OA
ATOM     12  C   UNL     1       2.402   3.628  20.136  0.00  0.00    +0.000 C 
ATOM     13  C   UNL     1       2.670   2.600  21.247  0.00  0.00    +0.000 C 
ATOM     14  C   UNL     1       0.889   3.880  20.059  0.00  0.00    +0.000 C 
ATOM     15  C   UNL     1       3.200   4.910  20.436  0.00  0.00    +0.000 C 
ATOM     16  S   UNL     1       0.559  10.033  17.955  0.00  0.00    +0.000 S 
ATOM     17  C   UNL     1      -0.126  11.129  19.108  0.00  0.00    +0.000 A 
ATOM     18  H   UNL     1       1.922   7.763  17.900  0.00  0.00    +0.000 HD
ENDROOT
BRANCH  17  19
ATOM     19  C   UNL     1      -1.029  12.237  18.663  0.00  0.00    +0.000 C 
ATOM     20  C   UNL     1      -2.272  11.735  17.945  0.00  0.00    +0.000 C 
ENDBRANCH  17  19
BRANCH   1  21
ATOM     21  C   UNL     1      -0.058  11.377  21.706  0.00  0.00    +0.000 C 
BRANCH  21  23
ATOM     22  C   UNL     1      -0.052   9.531  23.430  0.00  0.00    +0.000 C 
ATOM     23  C   UNL     1      -0.911  10.447  22.572  0.00  0.00    +0.000 C 
ENDBRANCH  21  23
ENDBRANCH   1  21
TORSDOF 3
ENDMDL
MODEL 6
REMARK VINA RESULT:      -6.3      0.713      1.216
REMARK  Name = 
REMARK  7 active torsions:
REMARK  status: ('A' for Active; 'I' for Inactive)
REMARK    1  A    between atoms: C_1  and  C_2
REMARK    2  A    between atoms: C_2  and  C_3
REMARK    3  A    between atoms: C_3  and  C_4
REMARK    4  A    between atoms: C_15  and  C_16
REMARK    5  A    between atoms: C_15  and  C_17
REMARK    6  A    between atoms: C_20  and  C_21
REMARK    7  A    between atoms: C_21  and  C_22
REMARK                            x       y       z     vdW  Elec       q    Type
REMARK                         _______ _______ _______ _____ _____    ______ ____
ROOT
ATOM      1  C   UNL     1       0.521  10.130  19.541  0.00  0.00    +0.000 A 
ATOM      2  N   UNL     1       1.195   9.132  18.868  0.00  0.00    +0.000 NA
ATOM      3  C   UNL     1       1.661   8.242  19.698  0.00  0.00    +0.000 A 
ATOM      4  N   UNL     1       2.434   7.142  19.411  0.00  0.00    +0.000 N 
ATOM      5  C   UNL     1       3.039   7.038  18.184  0.00  0.00    +0.000 C 
ATOM      6  O   UNL     1       3.006   7.919  17.324  0.00  0.00    +0.000 OA
ATOM      7  N   UNL     1       3.745   5.867  17.932  0.00  0.00    +0.000 N 
ATOM      8  C   UNL     1       3.927   4.708  18.807  0.00  0.00    +0.000 C 
ATOM      9  C   UNL     1       5.378   4.537  19.238  0.00  0.00    +0.000 C 
ATOM     10  S   UNL     1       6.497   4.335  17.815  0.00  0.00    +0.000 S 
ATOM     11  O   UNL     1       7.972   4.494  18.327  0.00  0.00    +0.000 OA
ATOM     12  C   UNL     1       6.018   5.870  16.895  0.00  0.00    +0.000 C 
ATOM     13  C   UNL     1       6.727   5.844  15.532  0.00  0.00    +0.000 C 
ATOM     14  C   UNL     1       6.452   7.137  17.646  0.00  0.00    +0.000 C 
ATOM     15  C   UNL     1       4.495   5.809  16.669  0.00  0.00    +0.000 C 
ATOM     16  S   UNL     1       1.257   8.477  21.336  0.00  0.00    +0.000 S 
ATOM     17  C   UNL     1       0.469   9.961  20.918  0.00  0.00    +0.000 A 
ATOM     18  H   UNL     1       2.711   6.579  20.195  0.00  0.00    +0.000 HD
ENDROOT
BRANCH  17  19
ATOM     19  C   UNL     1      -0.097  10.849  21.983  0.00  0.00    +0.000 C 
ATOM     20  C   UNL     1      -0.627  10.074  23.179  0.00  0.00    +0.000 C 
ENDBRANCH  17  19
BRANCH   1  21
ATOM     21  C   UNL     1      -0.012  11.250  18.700  0.00  0.00    +0.000 C 
BRANCH  21  23
ATOM     22  C   UNL     1       0.247  13.679  19.343  0.00  0.00    +0.000 C 
ATOM     23  C   UNL     1       0.919  12.465  18.720  0.00  0.00    +0.000 C 
ENDBRANCH  21  23
ENDBRANCH   1  21
TORSDOF 3
ENDMDL
MODEL 7
REMARK VINA RESULT:      -5.9      2.383      7.740
REMARK  Name = 
REMARK  7 active torsions:
REMARK  status: ('A' for Active; 'I' for Inactive)
REMARK    1  A    between atoms: C_1  and  C_2
REMARK    2  A    between atoms: C_2  and  C_3
REMARK    3  A    between atoms: C_3  and  C_4
REMARK    4  A    between atoms: C_15  and  C_16
REMARK    5  A    between atoms: C_15  and  C_17
REMARK    6  A    between atoms: C_20  and  C_21
REMARK    7  A    between atoms: C_21  and  C_22
REMARK                            x       y       z     vdW  Elec       q    Type
REMARK                         _______ _______ _______ _____ _____    ______ ____
ROOT
ATOM      1  C   UNL     1       4.328   4.507  18.704  0.00  0.00    +0.000 A 
ATOM      2  N   UNL     1       3.273   5.313  19.081  0.00  0.00    +0.000 NA
ATOM      3  C   UNL     1       3.354   6.484  18.513  0.00  0.00    +0.000 A 
ATOM      4  N   UNL     1       2.529   7.567  18.690  0.00  0.00    +0.000 N 
ATOM      5  C   UNL     1       1.656   7.591  19.749  0.00  0.00    +0.000 C 
ATOM      6  O   UNL     1       1.613   6.726  20.624  0.00  0.00    +0.000 OA
ATOM      7  N   UNL     1       0.798   8.683  19.827  0.00  0.00    +0.000 N 
ATOM      8  C   UNL     1       0.689   9.823  18.916  0.00  0.00    +0.000 C 
ATOM      9  C   UNL     1       1.110  11.129  19.579  0.00  0.00    +0.000 C 
ATOM     10  S   UNL     1       0.107  11.503  21.053  0.00  0.00    +0.000 S 
ATOM     11  O   UNL     1       0.811  12.665  21.839  0.00  0.00    +0.000 OA
ATOM     12  C   UNL     1       0.389   9.914  21.963  0.00  0.00    +0.000 C 
ATOM     13  C   UNL     1      -0.515   9.916  23.206  0.00  0.00    +0.000 C 
ATOM     14  C   UNL     1       1.848   9.777  22.420  0.00  0.00    +0.000 C 
ATOM     15  C   UNL     1      -0.047   8.771  21.027  0.00  0.00    +0.000 C 
ATOM     16  S   UNL     1       4.644   6.685  17.419  0.00  0.00    +0.000 S 
ATOM     17  C   UNL     1       5.211   5.096  17.810  0.00  0.00    +0.000 A 
ATOM     18  H   UNL     1       2.766   8.394  18.172  0.00  0.00    +0.000 HD
ENDROOT
BRANCH  17  19
ATOM     19  C   UNL     1       6.494   4.582  17.234  0.00  0.00    +0.000 C 
ATOM     20  C   UNL     1       7.707   4.947  18.075  0.00  0.00    +0.000 C 
ENDBRANCH  17  19
BRANCH   1  21
ATOM     21  C   UNL     1       4.382   3.151  19.340  0.00  0.00    +0.000 C 
BRANCH  21  23
ATOM     22  C   UNL     1       2.165   1.983  19.019  0.00  0.00    +0.000 C 
ATOM     23  C   UNL     1       3.044   2.771  19.979  0.00  0.00    +0.000 C 
ENDBRANCH  21  23
ENDBRANCH   1  21
TORSDOF 3
ENDMDL
MODEL 8
REMARK VINA RESULT:      -5.9      1.881      2.180
REMARK  Name = 
REMARK  7 active torsions:
REMARK  status: ('A' for Active; 'I' for Inactive)
REMARK    1  A    between atoms: C_1  and  C_2
REMARK    2  A    between atoms: C_2  and  C_3
REMARK    3  A    between atoms: C_3  and  C_4
REMARK    4  A    between atoms: C_15  and  C_16
REMARK    5  A    between atoms: C_15  and  C_17
REMARK    6  A    between atoms: C_20  and  C_21
REMARK    7  A    between atoms: C_21  and  C_22
REMARK                            x       y       z     vdW  Elec       q    Type
REMARK                         _______ _______ _______ _____ _____    ______ ____
ROOT
ATOM      1  C   UNL     1       1.127  11.054  19.517  0.00  0.00    +0.000 A 
ATOM      2  N   UNL     1       1.513   9.856  18.950  0.00  0.00    +0.000 NA
ATOM      3  C   UNL     1       1.173   8.850  19.707  0.00  0.00    +0.000 A 
ATOM      4  N   UNL     1       1.440   7.517  19.509  0.00  0.00    +0.000 N 
ATOM      5  C   UNL     1       2.377   7.142  18.580  0.00  0.00    +0.000 C 
ATOM      6  O   UNL     1       3.075   7.935  17.948  0.00  0.00    +0.000 OA
ATOM      7  N   UNL     1       2.545   5.776  18.377  0.00  0.00    +0.000 N 
ATOM      8  C   UNL     1       1.841   4.667  19.023  0.00  0.00    +0.000 C 
ATOM      9  C   UNL     1       2.768   3.833  19.900  0.00  0.00    +0.000 C 
ATOM     10  S   UNL     1       4.157   3.130  18.954  0.00  0.00    +0.000 S 
ATOM     11  O   UNL     1       5.212   2.577  19.976  0.00  0.00    +0.000 OA
ATOM     12  C   UNL     1       4.800   4.711  18.233  0.00  0.00    +0.000 C 
ATOM     13  C   UNL     1       5.910   4.355  17.231  0.00  0.00    +0.000 C 
ATOM     14  C   UNL     1       5.394   5.624  19.315  0.00  0.00    +0.000 C 
ATOM     15  C   UNL     1       3.634   5.374  17.476  0.00  0.00    +0.000 C 
ATOM     16  S   UNL     1       0.290   9.247  21.108  0.00  0.00    +0.000 S 
ATOM     17  C   UNL     1       0.459  10.927  20.728  0.00  0.00    +0.000 A 
ATOM     18  H   UNL     1       1.106   6.889  20.218  0.00  0.00    +0.000 HD
ENDROOT
BRANCH  17  19
ATOM     19  C   UNL     1      -0.043  11.977  21.671  0.00  0.00    +0.000 C 
ATOM     20  C   UNL     1      -0.992  11.421  22.721  0.00  0.00    +0.000 C 
ENDBRANCH  17  19
BRANCH   1  21
ATOM     21  C   UNL     1       1.517  12.293  18.771  0.00  0.00    +0.000 C 
BRANCH  21  23
ATOM     22  C   UNL     1       0.442  14.570  18.969  0.00  0.00    +0.000 C 
ATOM     23  C   UNL     1       0.299  13.155  18.430  0.00  0.00    +0.000 C 
ENDBRANCH  21  23
ENDBRANCH   1  21
TORSDOF 3
ENDMDL
MODEL 9
REMARK VINA RESULT:      -5.7      1.940      3.284
REMARK  Name = 
REMARK  7 active torsions:
REMARK  status: ('A' for Active; 'I' for Inactive)
REMARK    1  A    between atoms: C_1  and  C_2
REMARK    2  A    between atoms: C_2  and  C_3
REMARK    3  A    between atoms: C_3  and  C_4
REMARK    4  A    between atoms: C_15  and  C_16
REMARK    5  A    between atoms: C_15  and  C_17
REMARK    6  A    between atoms: C_20  and  C_21
REMARK    7  A    between atoms: C_21  and  C_22
REMARK                            x       y       z     vdW  Elec       q    Type
REMARK                         _______ _______ _______ _____ _____    ______ ____
ROOT
ATOM      1  C   UNL     1       0.106   9.190  20.708  0.00  0.00    +0.000 A 
ATOM      2  N   UNL     1       1.134   8.306  20.450  0.00  0.00    +0.000 NA
ATOM      3  C   UNL     1       1.751   8.618  19.345  0.00  0.00    +0.000 A 
ATOM      4  N   UNL     1       2.779   7.943  18.732  0.00  0.00    +0.000 N 
ATOM      5  C   UNL     1       3.075   6.660  19.118  0.00  0.00    +0.000 C 
ATOM      6  O   UNL     1       2.418   6.021  19.939  0.00  0.00    +0.000 OA
ATOM      7  N   UNL     1       4.173   6.062  18.510  0.00  0.00    +0.000 N 
ATOM      8  C   UNL     1       5.076   6.625  17.505  0.00  0.00    +0.000 C 
ATOM      9  C   UNL     1       4.961   5.910  16.165  0.00  0.00    +0.000 C 
ATOM     10  S   UNL     1       5.329   4.131  16.303  0.00  0.00    +0.000 S 
ATOM     11  O   UNL     1       4.874   3.434  14.972  0.00  0.00    +0.000 OA
ATOM     12  C   UNL     1       4.110   3.721  17.636  0.00  0.00    +0.000 C 
ATOM     13  C   UNL     1       4.347   2.264  18.061  0.00  0.00    +0.000 C 
ATOM     14  C   UNL     1       2.664   3.856  17.139  0.00  0.00    +0.000 C 
ATOM     15  C   UNL     1       4.413   4.647  18.830  0.00  0.00    +0.000 C 
ATOM     16  S   UNL     1       1.212  10.039  18.574  0.00  0.00    +0.000 S 
ATOM     17  C   UNL     1      -0.029  10.204  19.770  0.00  0.00    +0.000 A 
ATOM     18  H   UNL     1       3.115   8.335  17.871  0.00  0.00    +0.000 HD
ENDROOT
BRANCH  17  19
ATOM     19  C   UNL     1      -1.052  11.293  19.661  0.00  0.00    +0.000 C 
ATOM     20  C   UNL     1      -0.473  12.675  19.916  0.00  0.00    +0.000 C 
ENDBRANCH  17  19
BRANCH   1  21
ATOM     21  C   UNL     1      -0.723   8.901  21.922  0.00  0.00    +0.000 C 
BRANCH  21  23
ATOM     22  C   UNL     1      -1.324  10.986  23.215  0.00  0.00    +0.000 C 
ATOM     23  C   UNL     1      -0.355   9.820  23.090  0.00  0.00    +0.000 C 
ENDBRANCH  21  23
ENDBRANCH   1  21
TORSDOF 3
ENDMDL
