MODEL 1
REMARK VINA RESULT:      -6.4      0.000      0.000
REMARK  Name = 
REMARK  16 active torsions:
REMARK  status: ('A' for Active; 'I' for Inactive)
REMARK    1  A    between atoms: C_1  and  C_2
REMARK    2  A    between atoms: C_2  and  C_3
REMARK    3  A    between atoms: C_3  and  C_4
REMARK    4  A    between atoms: C_4  and  C_5
REMARK    5  A    between atoms: C_5  and  C_6
REMARK    6  A    between atoms: C_6  and  C_7
REMARK    7  A    between atoms: C_7  and  C_8
REMARK    8  A    between atoms: C_8  and  C_9
REMARK    9  A    between atoms: C_9  and  C_10
REMARK   10  A    between atoms: C_10  and  C_11
REMARK   11  A    between atoms: C_11  and  C_12
REMARK   12  A    between atoms: C_12  and  C_13
REMARK   13  A    between atoms: C_13  and  C_14
REMARK   14  A    between atoms: C_14  and  N_15
REMARK   15  A    between atoms: N_15  and  C_16
REMARK   16  A    between atoms: C_22  and  O_23
REMARK                            x       y       z     vdW  Elec       q    Type
REMARK                         _______ _______ _______ _____ _____    ______ ____
ROOT
ATOM      1  C   UNL     1       7.421   6.690  17.352  0.00  0.00    +0.000 C 
ENDROOT
BRANCH   1   2
ATOM      2  N   UNL     1       6.089   6.364  17.869  0.00  0.00    +0.000 NA
ATOM      3  H   UNL     1       5.938   6.934  18.735  0.00  0.00    +0.000 HD
BRANCH   2   4
ATOM      4  C   UNL     1       5.023   6.701  16.906  0.00  0.00    +0.000 C 
ATOM      5  C   UNL     1       4.991   5.723  15.722  0.00  0.00    +0.000 C 
ATOM      6  C   UNL     1       4.887   4.275  16.229  0.00  0.00    +0.000 C 
ATOM      7  C   UNL     1       3.791   4.111  17.253  0.00  0.00    +0.000 A 
ATOM      8  C   UNL     1       3.356   2.815  17.570  0.00  0.00    +0.000 A 
ATOM      9  C   UNL     1       2.303   2.625  18.466  0.00  0.00    +0.000 A 
ATOM     10  C   UNL     1       1.672   3.726  19.061  0.00  0.00    +0.000 A 
ATOM     11  C   UNL     1       2.118   5.021  18.769  0.00  0.00    +0.000 A 
ATOM     12  C   UNL     1       3.184   5.228  17.881  0.00  0.00    +0.000 A 
ATOM     13  C   UNL     1       3.651   6.642  17.612  0.00  0.00    +0.000 C 
BRANCH  10  14
ATOM     14  O   UNL     1       0.647   3.554  19.915  0.00  0.00    +0.000 OA
ATOM     15  H   UNL     1       0.511   4.135  20.678  0.00  0.00    +0.000 HD
ENDBRANCH  10  14
ENDBRANCH   2   4
ENDBRANCH   1   2
BRANCH   1  16
ATOM     16  C   UNL     1       8.174   7.546  18.356  0.00  0.00    +0.000 C 
BRANCH  16  17
ATOM     17  C   UNL     1       8.128   8.997  17.902  0.00  0.00    +0.000 C 
BRANCH  17  18
ATOM     18  C   UNL     1       8.856   9.885  18.892  0.00  0.00    +0.000 C 
BRANCH  18  19
ATOM     19  C   UNL     1       9.774  10.827  18.132  0.00  0.00    +0.000 C 
BRANCH  19  20
ATOM     20  C   UNL     1       9.076  12.149  17.914  0.00  0.00    +0.000 C 
BRANCH  20  21
ATOM     21  C   UNL     1      10.093  13.220  17.546  0.00  0.00    +0.000 C 
BRANCH  21  22
ATOM     22  C   UNL     1       9.523  14.564  17.935  0.00  0.00    +0.000 C 
BRANCH  22  23
ATOM     23  C   UNL     1       8.973  14.555  19.355  0.00  0.00    +0.000 C 
BRANCH  23  24
ATOM     24  C   UNL     1      10.143  14.837  20.281  0.00  0.00    +0.000 C 
BRANCH  24  25
ATOM     25  C   UNL     1      10.023  14.147  21.638  0.00  0.00    +0.000 C 
BRANCH  25  26
ATOM     26  C   UNL     1       9.783  12.638  21.462  0.00  0.00    +0.000 C 
BRANCH  26  28
ATOM     27  C   UNL     1       7.478  12.938  22.478  0.00  0.00    +0.000 C 
ATOM     28  C   UNL     1       8.737  12.090  22.454  0.00  0.00    +0.000 C 
ENDBRANCH  26  28
ENDBRANCH  25  26
ENDBRANCH  24  25
ENDBRANCH  23  24
ENDBRANCH  22  23
ENDBRANCH  21  22
ENDBRANCH  20  21
ENDBRANCH  19  20
ENDBRANCH  18  19
ENDBRANCH  17  18
ENDBRANCH  16  17
ENDBRANCH   1  16
TORSDOF 15
ENDMDL
MODEL 2
REMARK VINA RESULT:      -6.3      6.183      9.725
REMARK  Name = 
REMARK  16 active torsions:
REMARK  status: ('A' for Active; 'I' for Inactive)
REMARK    1  A    between atoms: C_1  and  C_2
REMARK    2  A    between atoms: C_2  and  C_3
REMARK    3  A    between atoms: C_3  and  C_4
REMARK    4  A    between atoms: C_4  and  C_5
REMARK    5  A    between atoms: C_5  and  C_6
REMARK    6  A    between atoms: C_6  and  C_7
REMARK    7  A    between atoms: C_7  and  C_8
REMARK    8  A    between atoms: C_8  and  C_9
REMARK    9  A    between atoms: C_9  and  C_10
REMARK   10  A    between atoms: C_10  and  C_11
REMARK   11  A    between atoms: C_11  and  C_12
REMARK   12  A    between atoms: C_12  and  C_13
REMARK   13  A    between atoms: C_13  and  C_14
REMARK   14  A    between atoms: C_14  and  N_15
REMARK   15  A    between atoms: N_15  and  C_16
REMARK   16  A    between atoms: C_22  and  O_23
REMARK                            x       y       z     vdW  Elec       q    Type
REMARK                         _______ _______ _______ _____ _____    ______ ____
ROOT
ATOM      1  C   UNL     1       1.206   8.363  21.397  0.00  0.00    +0.000 C 
ENDROOT
BRANCH   1   2
ATOM      2  N   UNL     1       0.140   9.162  20.789  0.00  0.00    +0.000 NA
ATOM      3  H   UNL     1      -0.579   9.347  21.529  0.00  0.00    +0.000 HD
BRANCH   2   4
ATOM      4  C   UNL     1       0.634  10.461  20.292  0.00  0.00    +0.000 C 
ATOM      5  C   UNL     1       1.250  10.341  18.890  0.00  0.00    +0.000 C 
ATOM      6  C   UNL     1       0.250   9.685  17.923  0.00  0.00    +0.000 C 
ATOM      7  C   UNL     1      -1.112  10.330  17.994  0.00  0.00    +0.000 A 
ATOM      8  C   UNL     1      -2.032  10.073  16.966  0.00  0.00    +0.000 A 
ATOM      9  C   UNL     1      -3.280  10.698  16.964  0.00  0.00    +0.000 A 
ATOM     10  C   UNL     1      -3.628  11.586  17.991  0.00  0.00    +0.000 A 
ATOM     11  C   UNL     1      -2.726  11.827  19.034  0.00  0.00    +0.000 A 
ATOM     12  C   UNL     1      -1.472  11.195  19.058  0.00  0.00    +0.000 A 
ATOM     13  C   UNL     1      -0.537  11.465  20.216  0.00  0.00    +0.000 C 
BRANCH  10  14
ATOM     14  O   UNL     1      -4.822  12.204  17.991  0.00  0.00    +0.000 OA
ATOM     15  H   UNL     1      -5.488  12.035  18.673  0.00  0.00    +0.000 HD
ENDBRANCH  10  14
ENDBRANCH   2   4
ENDBRANCH   1   2
BRANCH   1  16
ATOM     16  C   UNL     1       1.859   7.480  20.347  0.00  0.00    +0.000 C 
BRANCH  16  17
ATOM     17  C   UNL     1       2.030   6.079  20.915  0.00  0.00    +0.000 C 
BRANCH  17  18
ATOM     18  C   UNL     1       1.621   5.039  19.892  0.00  0.00    +0.000 C 
BRANCH  18  19
ATOM     19  C   UNL     1       0.971   3.867  20.608  0.00  0.00    +0.000 C 
BRANCH  19  20
ATOM     20  C   UNL     1       1.524   2.570  20.064  0.00  0.00    +0.000 C 
BRANCH  20  21
ATOM     21  C   UNL     1       1.083   2.382  18.620  0.00  0.00    +0.000 C 
BRANCH  21  22
ATOM     22  C   UNL     1       2.297   2.006  17.803  0.00  0.00    +0.000 C 
BRANCH  22  23
ATOM     23  C   UNL     1       3.587   2.183  18.593  0.00  0.00    +0.000 C 
BRANCH  23  24
ATOM     24  C   UNL     1       4.315   3.369  17.986  0.00  0.00    +0.000 C 
BRANCH  24  25
ATOM     25  C   UNL     1       5.136   4.162  19.001  0.00  0.00    +0.000 C 
BRANCH  25  26
ATOM     26  C   UNL     1       5.184   5.651  18.618  0.00  0.00    +0.000 C 
BRANCH  26  28
ATOM     27  C   UNL     1       3.734   7.361  17.431  0.00  0.00    +0.000 C 
ATOM     28  C   UNL     1       4.330   5.966  17.373  0.00  0.00    +0.000 C 
ENDBRANCH  26  28
ENDBRANCH  25  26
ENDBRANCH  24  25
ENDBRANCH  23  24
ENDBRANCH  22  23
ENDBRANCH  21  22
ENDBRANCH  20  21
ENDBRANCH  19  20
ENDBRANCH  18  19
ENDBRANCH  17  18
ENDBRANCH  16  17
ENDBRANCH   1  16
TORSDOF 15
ENDMDL
MODEL 3
REMARK VINA RESULT:      -6.3      6.463      9.663
REMARK  Name = 
REMARK  16 active torsions:
REMARK  status: ('A' for Active; 'I' for Inactive)
REMARK    1  A    between atoms: C_1  and  C_2
REMARK    2  A    between atoms: C_2  and  C_3
REMARK    3  A    between atoms: C_3  and  C_4
REMARK    4  A    between atoms: C_4  and  C_5
REMARK    5  A    between atoms: C_5  and  C_6
REMARK    6  A    between atoms: C_6  and  C_7
REMARK    7  A    between atoms: C_7  and  C_8
REMARK    8  A    between atoms: C_8  and  C_9
REMARK    9  A    between atoms: C_9  and  C_10
REMARK   10  A    between atoms: C_10  and  C_11
REMARK   11  A    between atoms: C_11  and  C_12
REMARK   12  A    between atoms: C_12  and  C_13
REMARK   13  A    between atoms: C_13  and  C_14
REMARK   14  A    between atoms: C_14  and  N_15
REMARK   15  A    between atoms: N_15  and  C_16
REMARK   16  A    between atoms: C_22  and  O_23
REMARK                            x       y       z     vdW  Elec       q    Type
REMARK                         _______ _______ _______ _____ _____    ______ ____
ROOT
ATOM      1  C   UNL     1       0.440   9.013  21.618  0.00  0.00    +0.000 C 
ENDROOT
BRANCH   1   2
ATOM      2  N   UNL     1      -0.620   9.564  20.771  0.00  0.00    +0.000 NA
ATOM      3  H   UNL     1      -1.487   9.635  21.356  0.00  0.00    +0.000 HD
BRANCH   2   4
ATOM      4  C   UNL     1      -0.289  10.913  20.274  0.00  0.00    +0.000 C 
ATOM      5  C   UNL     1       0.602  10.860  19.024  0.00  0.00    +0.000 C 
ATOM      6  C   UNL     1      -0.047   9.980  17.944  0.00  0.00    +0.000 C 
ATOM      7  C   UNL     1      -1.492  10.344  17.710  0.00  0.00    +0.000 A 
ATOM      8  C   UNL     1      -2.127   9.868  16.553  0.00  0.00    +0.000 A 
ATOM      9  C   UNL     1      -3.445  10.233  16.270  0.00  0.00    +0.000 A 
ATOM     10  C   UNL     1      -4.148  11.076  17.142  0.00  0.00    +0.000 A 
ATOM     11  C   UNL     1      -3.530  11.533  18.312  0.00  0.00    +0.000 A 
ATOM     12  C   UNL     1      -2.210  11.165  18.617  0.00  0.00    +0.000 A 
ATOM     13  C   UNL     1      -1.587  11.661  19.903  0.00  0.00    +0.000 C 
BRANCH  10  14
ATOM     14  O   UNL     1      -5.413  11.444  16.873  0.00  0.00    +0.000 OA
ATOM     15  H   UNL     1      -5.719  11.610  15.969  0.00  0.00    +0.000 HD
ENDBRANCH  10  14
ENDBRANCH   2   4
ENDBRANCH   1   2
BRANCH   1  16
ATOM     16  C   UNL     1       0.870   7.653  21.096  0.00  0.00    +0.000 C 
BRANCH  16  17
ATOM     17  C   UNL     1       2.035   7.837  20.134  0.00  0.00    +0.000 C 
BRANCH  17  18
ATOM     18  C   UNL     1       2.546   6.492  19.658  0.00  0.00    +0.000 C 
BRANCH  18  19
ATOM     19  C   UNL     1       2.359   6.395  18.153  0.00  0.00    +0.000 C 
BRANCH  19  20
ATOM     20  C   UNL     1       3.471   5.564  17.557  0.00  0.00    +0.000 C 
BRANCH  20  21
ATOM     21  C   UNL     1       4.725   5.687  18.410  0.00  0.00    +0.000 C 
BRANCH  21  22
ATOM     22  C   UNL     1       5.475   4.378  18.336  0.00  0.00    +0.000 C 
BRANCH  22  23
ATOM     23  C   UNL     1       4.554   3.186  18.563  0.00  0.00    +0.000 C 
BRANCH  23  24
ATOM     24  C   UNL     1       4.275   3.123  20.054  0.00  0.00    +0.000 C 
BRANCH  24  25
ATOM     25  C   UNL     1       3.024   2.323  20.406  0.00  0.00    +0.000 C 
BRANCH  25  26
ATOM     26  C   UNL     1       1.985   3.215  21.106  0.00  0.00    +0.000 C 
BRANCH  26  28
ATOM     27  C   UNL     1       0.785   2.705  18.930  0.00  0.00    +0.000 C 
ATOM     28  C   UNL     1       0.781   3.539  20.199  0.00  0.00    +0.000 C 
ENDBRANCH  26  28
ENDBRANCH  25  26
ENDBRANCH  24  25
ENDBRANCH  23  24
ENDBRANCH  22  23
ENDBRANCH  21  22
ENDBRANCH  20  21
ENDBRANCH  19  20
ENDBRANCH  18  19
ENDBRANCH  17  18
ENDBRANCH  16  17
ENDBRANCH   1  16
TORSDOF 15
ENDMDL
MODEL 4
REMARK VINA RESULT:      -6.2      1.364      1.868
REMARK  Name = 
REMARK  16 active torsions:
REMARK  status: ('A' for Active; 'I' for Inactive)
REMARK    1  A    between atoms: C_1  and  C_2
REMARK    2  A    between atoms: C_2  and  C_3
REMARK    3  A    between atoms: C_3  and  C_4
REMARK    4  A    between atoms: C_4  and  C_5
REMARK    5  A    between atoms: C_5  and  C_6
REMARK    6  A    between atoms: C_6  and  C_7
REMARK    7  A    between atoms: C_7  and  C_8
REMARK    8  A    between atoms: C_8  and  C_9
REMARK    9  A    between atoms: C_9  and  C_10
REMARK   10  A    between atoms: C_10  and  C_11
REMARK   11  A    between atoms: C_11  and  C_12
REMARK   12  A    between atoms: C_12  and  C_13
REMARK   13  A    between atoms: C_13  and  C_14
REMARK   14  A    between atoms: C_14  and  N_15
REMARK   15  A    between atoms: N_15  and  C_16
REMARK   16  A    between atoms: C_22  and  O_23
REMARK                            x       y       z     vdW  Elec       q    Type
REMARK                         _______ _______ _______ _____ _____    ______ ____
ROOT
ATOM      1  C   UNL     1       7.623   7.201  17.316  0.00  0.00    +0.000 C 
ENDROOT
BRANCH   1   2
ATOM      2  N   UNL     1       6.321   6.692  17.750  0.00  0.00    +0.000 NA
ATOM      3  H   UNL     1       6.077   7.171  18.649  0.00  0.00    +0.000 HD
BRANCH   2   4
ATOM      4  C   UNL     1       5.256   6.983  16.771  0.00  0.00    +0.000 C 
ATOM      5  C   UNL     1       5.253   5.976  15.611  0.00  0.00    +0.000 C 
ATOM      6  C   UNL     1       5.173   4.539  16.153  0.00  0.00    +0.000 C 
ATOM      7  C   UNL     1       4.072   4.379  17.171  0.00  0.00    +0.000 A 
ATOM      8  C   UNL     1       3.659   3.084  17.518  0.00  0.00    +0.000 A 
ATOM      9  C   UNL     1       2.602   2.895  18.409  0.00  0.00    +0.000 A 
ATOM     10  C   UNL     1       1.944   3.998  18.971  0.00  0.00    +0.000 A 
ATOM     11  C   UNL     1       2.368   5.293  18.651  0.00  0.00    +0.000 A 
ATOM     12  C   UNL     1       3.438   5.500  17.766  0.00  0.00    +0.000 A 
ATOM     13  C   UNL     1       3.880   6.915  17.466  0.00  0.00    +0.000 C 
BRANCH  10  14
ATOM     14  O   UNL     1       0.916   3.827  19.821  0.00  0.00    +0.000 OA
ATOM     15  H   UNL     1       0.903   4.232  20.700  0.00  0.00    +0.000 HD
ENDBRANCH  10  14
ENDBRANCH   2   4
ENDBRANCH   1   2
BRANCH   1  16
ATOM     16  C   UNL     1       7.757   8.669  17.683  0.00  0.00    +0.000 C 
BRANCH  16  17
ATOM     17  C   UNL     1       8.847   8.820  18.733  0.00  0.00    +0.000 C 
BRANCH  17  18
ATOM     18  C   UNL     1       8.962  10.266  19.173  0.00  0.00    +0.000 C 
BRANCH  18  19
ATOM     19  C   UNL     1       9.195  11.140  17.951  0.00  0.00    +0.000 C 
BRANCH  19  20
ATOM     20  C   UNL     1      10.614  11.660  17.963  0.00  0.00    +0.000 C 
BRANCH  20  21
ATOM     21  C   UNL     1      11.282  11.315  19.286  0.00  0.00    +0.000 C 
BRANCH  21  22
ATOM     22  C   UNL     1      12.057  12.526  19.751  0.00  0.00    +0.000 C 
BRANCH  22  23
ATOM     23  C   UNL     1      11.679  13.775  18.966  0.00  0.00    +0.000 C 
BRANCH  23  24
ATOM     24  C   UNL     1      11.441  14.878  19.982  0.00  0.00    +0.000 C 
BRANCH  24  25
ATOM     25  C   UNL     1      10.215  15.734  19.673  0.00  0.00    +0.000 C 
BRANCH  25  26
ATOM     26  C   UNL     1       9.004  15.268  20.499  0.00  0.00    +0.000 C 
BRANCH  26  28
ATOM     27  C   UNL     1       8.135  14.683  18.188  0.00  0.00    +0.000 C 
ATOM     28  C   UNL     1       8.030  14.400  19.676  0.00  0.00    +0.000 C 
ENDBRANCH  26  28
ENDBRANCH  25  26
ENDBRANCH  24  25
ENDBRANCH  23  24
ENDBRANCH  22  23
ENDBRANCH  21  22
ENDBRANCH  20  21
ENDBRANCH  19  20
ENDBRANCH  18  19
ENDBRANCH  17  18
ENDBRANCH  16  17
ENDBRANCH   1  16
TORSDOF 15
ENDMDL
MODEL 5
REMARK VINA RESULT:      -6.1      3.370     10.212
REMARK  Name = 
REMARK  16 active torsions:
REMARK  status: ('A' for Active; 'I' for Inactive)
REMARK    1  A    between atoms: C_1  and  C_2
REMARK    2  A    between atoms: C_2  and  C_3
REMARK    3  A    between atoms: C_3  and  C_4
REMARK    4  A    between atoms: C_4  and  C_5
REMARK    5  A    between atoms: C_5  and  C_6
REMARK    6  A    between atoms: C_6  and  C_7
REMARK    7  A    between atoms: C_7  and  C_8
REMARK    8  A    between atoms: C_8  and  C_9
REMARK    9  A    between atoms: C_9  and  C_10
REMARK   10  A    between atoms: C_10  and  C_11
REMARK   11  A    between atoms: C_11  and  C_12
REMARK   12  A    between atoms: C_12  and  C_13
REMARK   13  A    between atoms: C_13  and  C_14
REMARK   14  A    between atoms: C_14  and  N_15
REMARK   15  A    between atoms: N_15  and  C_16
REMARK   16  A    between atoms: C_22  and  O_23
REMARK                            x       y       z     vdW  Elec       q    Type
REMARK                         _______ _______ _______ _____ _____    ______ ____
ROOT
ATOM      1  C   UNL     1       8.574   9.515  18.200  0.00  0.00    +0.000 C 
ENDROOT
BRANCH   1   2
ATOM      2  N   UNL     1       9.119  10.198  19.375  0.00  0.00    +0.000 NA
ATOM      3  H   UNL     1       9.403   9.462  20.065  0.00  0.00    +0.000 HD
BRANCH   2   4
ATOM      4  C   UNL     1      10.310  11.004  19.046  0.00  0.00    +0.000 C 
ATOM      5  C   UNL     1      10.057  11.940  17.855  0.00  0.00    +0.000 C 
ATOM      6  C   UNL     1       8.814  12.807  18.113  0.00  0.00    +0.000 C 
ATOM      7  C   UNL     1       8.853  13.463  19.471  0.00  0.00    +0.000 A 
ATOM      8  C   UNL     1       7.974  14.524  19.732  0.00  0.00    +0.000 A 
ATOM      9  C   UNL     1       8.021  15.196  20.954  0.00  0.00    +0.000 A 
ATOM     10  C   UNL     1       8.946  14.815  21.935  0.00  0.00    +0.000 A 
ATOM     11  C   UNL     1       9.809  13.739  21.693  0.00  0.00    +0.000 A 
ATOM     12  C   UNL     1       9.765  13.045  20.474  0.00  0.00    +0.000 A 
ATOM     13  C   UNL     1      10.698  11.873  20.262  0.00  0.00    +0.000 C 
BRANCH  10  14
ATOM     14  O   UNL     1       9.010  15.464  23.111  0.00  0.00    +0.000 OA
ATOM     15  H   UNL     1       9.762  16.024  23.350  0.00  0.00    +0.000 HD
ENDBRANCH  10  14
ENDBRANCH   2   4
ENDBRANCH   1   2
BRANCH   1  16
ATOM     16  C   UNL     1       8.345   8.045  18.510  0.00  0.00    +0.000 C 
BRANCH  16  17
ATOM     17  C   UNL     1       7.458   7.443  17.431  0.00  0.00    +0.000 C 
BRANCH  17  18
ATOM     18  C   UNL     1       7.300   5.952  17.646  0.00  0.00    +0.000 C 
BRANCH  18  19
ATOM     19  C   UNL     1       6.531   5.715  18.936  0.00  0.00    +0.000 C 
BRANCH  19  20
ATOM     20  C   UNL     1       5.303   4.883  18.648  0.00  0.00    +0.000 C 
BRANCH  20  21
ATOM     21  C   UNL     1       4.410   5.604  17.649  0.00  0.00    +0.000 C 
BRANCH  21  22
ATOM     22  C   UNL     1       3.004   5.620  18.200  0.00  0.00    +0.000 C 
BRANCH  22  23
ATOM     23  C   UNL     1       2.933   6.322  19.550  0.00  0.00    +0.000 C 
BRANCH  23  24
ATOM     24  C   UNL     1       1.853   5.621  20.354  0.00  0.00    +0.000 C 
BRANCH  24  25
ATOM     25  C   UNL     1       2.263   4.234  20.842  0.00  0.00    +0.000 C 
BRANCH  25  26
ATOM     26  C   UNL     1       1.094   3.243  20.711  0.00  0.00    +0.000 C 
BRANCH  26  28
ATOM     27  C   UNL     1       2.241   2.057  18.784  0.00  0.00    +0.000 C 
ATOM     28  C   UNL     1       0.951   2.687  19.280  0.00  0.00    +0.000 C 
ENDBRANCH  26  28
ENDBRANCH  25  26
ENDBRANCH  24  25
ENDBRANCH  23  24
ENDBRANCH  22  23
ENDBRANCH  21  22
ENDBRANCH  20  21
ENDBRANCH  19  20
ENDBRANCH  18  19
ENDBRANCH  17  18
ENDBRANCH  16  17
ENDBRANCH   1  16
TORSDOF 15
ENDMDL
MODEL 6
REMARK VINA RESULT:      -6.0      3.990     10.943
REMARK  Name = 
REMARK  16 active torsions:
REMARK  status: ('A' for Active; 'I' for Inactive)
REMARK    1  A    between atoms: C_1  and  C_2
REMARK    2  A    between atoms: C_2  and  C_3
REMARK    3  A    between atoms: C_3  and  C_4
REMARK    4  A    between atoms: C_4  and  C_5
REMARK    5  A    between atoms: C_5  and  C_6
REMARK    6  A    between atoms: C_6  and  C_7
REMARK    7  A    between atoms: C_7  and  C_8
REMARK    8  A    between atoms: C_8  and  C_9
REMARK    9  A    between atoms: C_9  and  C_10
REMARK   10  A    between atoms: C_10  and  C_11
REMARK   11  A    between atoms: C_11  and  C_12
REMARK   12  A    between atoms: C_12  and  C_13
REMARK   13  A    between atoms: C_13  and  C_14
REMARK   14  A    between atoms: C_14  and  N_15
REMARK   15  A    between atoms: N_15  and  C_16
REMARK   16  A    between atoms: C_22  and  O_23
REMARK                            x       y       z     vdW  Elec       q    Type
REMARK                         _______ _______ _______ _____ _____    ______ ____
ROOT
ATOM      1  C   UNL     1       8.828   9.451  18.565  0.00  0.00    +0.000 C 
ENDROOT
BRANCH   1   2
ATOM      2  N   UNL     1       9.231  10.846  18.373  0.00  0.00    +0.000 NA
ATOM      3  H   UNL     1       8.357  11.417  18.281  0.00  0.00    +0.000 HD
BRANCH   2   4
ATOM      4  C   UNL     1      10.000  11.364  19.521  0.00  0.00    +0.000 C 
ATOM      5  C   UNL     1      11.507  11.408  19.227  0.00  0.00    +0.000 C 
ATOM      6  C   UNL     1      11.776  12.198  17.936  0.00  0.00    +0.000 C 
ATOM      7  C   UNL     1      11.062  13.527  17.926  0.00  0.00    +0.000 A 
ATOM      8  C   UNL     1      11.452  14.493  16.987  0.00  0.00    +0.000 A 
ATOM      9  C   UNL     1      10.858  15.756  16.986  0.00  0.00    +0.000 A 
ATOM     10  C   UNL     1       9.863  16.070  17.921  0.00  0.00    +0.000 A 
ATOM     11  C   UNL     1       9.449  15.103  18.845  0.00  0.00    +0.000 A 
ATOM     12  C   UNL     1      10.028  13.824  18.850  0.00  0.00    +0.000 A 
ATOM     13  C   UNL     1       9.535  12.800  19.849  0.00  0.00    +0.000 C 
BRANCH  10  14
ATOM     14  O   UNL     1       9.293  17.289  17.937  0.00  0.00    +0.000 OA
ATOM     15  H   UNL     1       9.495  17.942  18.622  0.00  0.00    +0.000 HD
ENDBRANCH  10  14
ENDBRANCH   2   4
ENDBRANCH   1   2
BRANCH   1  16
ATOM     16  C   UNL     1       7.667   9.113  17.645  0.00  0.00    +0.000 C 
BRANCH  16  17
ATOM     17  C   UNL     1       7.518   7.601  17.571  0.00  0.00    +0.000 C 
BRANCH  17  18
ATOM     18  C   UNL     1       8.240   6.940  18.727  0.00  0.00    +0.000 C 
BRANCH  18  19
ATOM     19  C   UNL     1       7.433   5.741  19.198  0.00  0.00    +0.000 C 
BRANCH  19  20
ATOM     20  C   UNL     1       6.118   5.692  18.455  0.00  0.00    +0.000 C 
BRANCH  20  21
ATOM     21  C   UNL     1       5.735   4.247  18.172  0.00  0.00    +0.000 C 
BRANCH  21  22
ATOM     22  C   UNL     1       4.870   4.223  16.933  0.00  0.00    +0.000 C 
BRANCH  22  23
ATOM     23  C   UNL     1       5.586   3.572  15.757  0.00  0.00    +0.000 C 
BRANCH  23  24
ATOM     24  C   UNL     1       5.650   4.610  14.652  0.00  0.00    +0.000 C 
BRANCH  24  25
ATOM     25  C   UNL     1       6.983   4.625  13.908  0.00  0.00    +0.000 C 
BRANCH  25  26
ATOM     26  C   UNL     1       6.812   4.098  12.473  0.00  0.00    +0.000 C 
BRANCH  26  28
ATOM     27  C   UNL     1       5.653   2.067  11.488  0.00  0.00    +0.000 C 
ATOM     28  C   UNL     1       5.476   3.354  12.275  0.00  0.00    +0.000 C 
ENDBRANCH  26  28
ENDBRANCH  25  26
ENDBRANCH  24  25
ENDBRANCH  23  24
ENDBRANCH  22  23
ENDBRANCH  21  22
ENDBRANCH  20  21
ENDBRANCH  19  20
ENDBRANCH  18  19
ENDBRANCH  17  18
ENDBRANCH  16  17
ENDBRANCH   1  16
TORSDOF 15
ENDMDL
MODEL 7
REMARK VINA RESULT:      -6.0      1.743      2.639
REMARK  Name = 
REMARK  16 active torsions:
REMARK  status: ('A' for Active; 'I' for Inactive)
REMARK    1  A    between atoms: C_1  and  C_2
REMARK    2  A    between atoms: C_2  and  C_3
REMARK    3  A    between atoms: C_3  and  C_4
REMARK    4  A    between atoms: C_4  and  C_5
REMARK    5  A    between atoms: C_5  and  C_6
REMARK    6  A    between atoms: C_6  and  C_7
REMARK    7  A    between atoms: C_7  and  C_8
REMARK    8  A    between atoms: C_8  and  C_9
REMARK    9  A    between atoms: C_9  and  C_10
REMARK   10  A    between atoms: C_10  and  C_11
REMARK   11  A    between atoms: C_11  and  C_12
REMARK   12  A    between atoms: C_12  and  C_13
REMARK   13  A    between atoms: C_13  and  C_14
REMARK   14  A    between atoms: C_14  and  N_15
REMARK   15  A    between atoms: N_15  and  C_16
REMARK   16  A    between atoms: C_22  and  O_23
REMARK                            x       y       z     vdW  Elec       q    Type
REMARK                         _______ _______ _______ _____ _____    ______ ____
ROOT
ATOM      1  C   UNL     1       6.869   6.941  17.892  0.00  0.00    +0.000 C 
ENDROOT
BRANCH   1   2
ATOM      2  N   UNL     1       6.837   6.218  16.619  0.00  0.00    +0.000 NA
ATOM      3  H   UNL     1       7.047   5.211  16.821  0.00  0.00    +0.000 HD
BRANCH   2   4
ATOM      4  C   UNL     1       5.513   6.290  15.972  0.00  0.00    +0.000 C 
ATOM      5  C   UNL     1       5.101   4.944  15.357  0.00  0.00    +0.000 C 
ATOM      6  C   UNL     1       5.178   3.830  16.414  0.00  0.00    +0.000 C 
ATOM      7  C   UNL     1       4.477   4.214  17.693  0.00  0.00    +0.000 A 
ATOM      8  C   UNL     1       4.176   3.209  18.624  0.00  0.00    +0.000 A 
ATOM      9  C   UNL     1       3.475   3.514  19.792  0.00  0.00    +0.000 A 
ATOM     10  C   UNL     1       3.066   4.830  20.047  0.00  0.00    +0.000 A 
ATOM     11  C   UNL     1       3.385   5.844  19.136  0.00  0.00    +0.000 A 
ATOM     12  C   UNL     1       4.102   5.555  17.964  0.00  0.00    +0.000 A 
ATOM     13  C   UNL     1       4.447   6.684  17.018  0.00  0.00    +0.000 C 
BRANCH  10  14
ATOM     14  O   UNL     1       2.378   5.133  21.162  0.00  0.00    +0.000 OA
ATOM     15  H   UNL     1       1.816   4.486  21.611  0.00  0.00    +0.000 HD
ENDBRANCH  10  14
ENDBRANCH   2   4
ENDBRANCH   1   2
BRANCH   1  16
ATOM     16  C   UNL     1       8.127   7.788  17.979  0.00  0.00    +0.000 C 
BRANCH  16  17
ATOM     17  C   UNL     1       7.753   9.251  17.795  0.00  0.00    +0.000 C 
BRANCH  17  18
ATOM     18  C   UNL     1       8.963  10.138  18.008  0.00  0.00    +0.000 C 
BRANCH  18  19
ATOM     19  C   UNL     1       9.274  10.207  19.494  0.00  0.00    +0.000 C 
BRANCH  19  20
ATOM     20  C   UNL     1      10.269  11.315  19.753  0.00  0.00    +0.000 C 
BRANCH  20  21
ATOM     21  C   UNL     1      10.400  12.194  18.518  0.00  0.00    +0.000 C 
BRANCH  21  22
ATOM     22  C   UNL     1      11.795  12.024  17.964  0.00  0.00    +0.000 C 
BRANCH  22  23
ATOM     23  C   UNL     1      12.316  13.311  17.339  0.00  0.00    +0.000 C 
BRANCH  23  24
ATOM     24  C   UNL     1      11.101  14.141  16.965  0.00  0.00    +0.000 C 
BRANCH  24  25
ATOM     25  C   UNL     1      11.338  15.646  17.071  0.00  0.00    +0.000 C 
BRANCH  25  26
ATOM     26  C   UNL     1      10.649  16.219  18.322  0.00  0.00    +0.000 C 
BRANCH  26  28
ATOM     27  C   UNL     1      10.948  15.268  20.654  0.00  0.00    +0.000 C 
ATOM     28  C   UNL     1      11.548  16.148  19.573  0.00  0.00    +0.000 C 
ENDBRANCH  26  28
ENDBRANCH  25  26
ENDBRANCH  24  25
ENDBRANCH  23  24
ENDBRANCH  22  23
ENDBRANCH  21  22
ENDBRANCH  20  21
ENDBRANCH  19  20
ENDBRANCH  18  19
ENDBRANCH  17  18
ENDBRANCH  16  17
ENDBRANCH   1  16
TORSDOF 15
ENDMDL
MODEL 8
REMARK VINA RESULT:      -6.0      6.070      8.718
REMARK  Name = 
REMARK  16 active torsions:
REMARK  status: ('A' for Active; 'I' for Inactive)
REMARK    1  A    between atoms: C_1  and  C_2
REMARK    2  A    between atoms: C_2  and  C_3
REMARK    3  A    between atoms: C_3  and  C_4
REMARK    4  A    between atoms: C_4  and  C_5
REMARK    5  A    between atoms: C_5  and  C_6
REMARK    6  A    between atoms: C_6  and  C_7
REMARK    7  A    between atoms: C_7  and  C_8
REMARK    8  A    between atoms: C_8  and  C_9
REMARK    9  A    between atoms: C_9  and  C_10
REMARK   10  A    between atoms: C_10  and  C_11
REMARK   11  A    between atoms: C_11  and  C_12
REMARK   12  A    between atoms: C_12  and  C_13
REMARK   13  A    between atoms: C_13  and  C_14
REMARK   14  A    between atoms: C_14  and  N_15
REMARK   15  A    between atoms: N_15  and  C_16
REMARK   16  A    between atoms: C_22  and  O_23
REMARK                            x       y       z     vdW  Elec       q    Type
REMARK                         _______ _______ _______ _____ _____    ______ ____
ROOT
ATOM      1  C   UNL     1       1.476   6.210  20.807  0.00  0.00    +0.000 C 
ENDROOT
BRANCH   1   2
ATOM      2  N   UNL     1       2.743   5.505  20.594  0.00  0.00    +0.000 NA
ATOM      3  H   UNL     1       3.141   5.279  21.537  0.00  0.00    +0.000 HD
BRANCH   2   4
ATOM      4  C   UNL     1       2.557   4.241  19.857  0.00  0.00    +0.000 C 
ATOM      5  C   UNL     1       1.799   4.452  18.538  0.00  0.00    +0.000 C 
ATOM      6  C   UNL     1       2.497   5.528  17.690  0.00  0.00    +0.000 C 
ATOM      7  C   UNL     1       3.979   5.280  17.568  0.00  0.00    +0.000 A 
ATOM      8  C   UNL     1       4.698   5.970  16.579  0.00  0.00    +0.000 A 
ATOM      9  C   UNL     1       6.059   5.722  16.395  0.00  0.00    +0.000 A 
ATOM     10  C   UNL     1       6.723   4.784  17.198  0.00  0.00    +0.000 A 
ATOM     11  C   UNL     1       6.019   4.112  18.204  0.00  0.00    +0.000 A 
ATOM     12  C   UNL     1       4.653   4.359  18.411  0.00  0.00    +0.000 A 
ATOM     13  C   UNL     1       3.935   3.629  19.524  0.00  0.00    +0.000 C 
BRANCH  10  14
ATOM     14  O   UNL     1       8.031   4.528  17.019  0.00  0.00    +0.000 OA
ATOM     15  H   UNL     1       8.509   3.887  17.565  0.00  0.00    +0.000 HD
ENDBRANCH  10  14
ENDBRANCH   2   4
ENDBRANCH   1   2
BRANCH   1  16
ATOM     16  C   UNL     1       1.694   7.711  20.715  0.00  0.00    +0.000 C 
BRANCH  16  17
ATOM     17  C   UNL     1       0.458   8.424  21.243  0.00  0.00    +0.000 C 
BRANCH  17  18
ATOM     18  C   UNL     1       0.834   9.381  22.356  0.00  0.00    +0.000 C 
BRANCH  18  19
ATOM     19  C   UNL     1      -0.337  10.311  22.627  0.00  0.00    +0.000 C 
BRANCH  19  20
ATOM     20  C   UNL     1      -0.191  11.566  21.797  0.00  0.00    +0.000 C 
BRANCH  20  21
ATOM     21  C   UNL     1      -1.416  11.748  20.913  0.00  0.00    +0.000 C 
BRANCH  21  22
ATOM     22  C   UNL     1      -0.959  12.309  19.587  0.00  0.00    +0.000 C 
BRANCH  22  23
ATOM     23  C   UNL     1      -0.159  11.289  18.787  0.00  0.00    +0.000 C 
BRANCH  23  24
ATOM     24  C   UNL     1      -1.104  10.146  18.463  0.00  0.00    +0.000 C 
BRANCH  24  25
ATOM     25  C   UNL     1      -1.994  10.417  17.253  0.00  0.00    +0.000 C 
BRANCH  25  26
ATOM     26  C   UNL     1      -3.465  10.108  17.579  0.00  0.00    +0.000 C 
BRANCH  26  28
ATOM     27  C   UNL     1      -5.744  11.177  17.892  0.00  0.00    +0.000 C 
ATOM     28  C   UNL     1      -4.244  11.360  18.030  0.00  0.00    +0.000 C 
ENDBRANCH  26  28
ENDBRANCH  25  26
ENDBRANCH  24  25
ENDBRANCH  23  24
ENDBRANCH  22  23
ENDBRANCH  21  22
ENDBRANCH  20  21
ENDBRANCH  19  20
ENDBRANCH  18  19
ENDBRANCH  17  18
ENDBRANCH  16  17
ENDBRANCH   1  16
TORSDOF 15
ENDMDL
MODEL 9
REMARK VINA RESULT:      -6.0      3.894     10.925
REMARK  Name = 
REMARK  16 active torsions:
REMARK  status: ('A' for Active; 'I' for Inactive)
REMARK    1  A    between atoms: C_1  and  C_2
REMARK    2  A    between atoms: C_2  and  C_3
REMARK    3  A    between atoms: C_3  and  C_4
REMARK    4  A    between atoms: C_4  and  C_5
REMARK    5  A    between atoms: C_5  and  C_6
REMARK    6  A    between atoms: C_6  and  C_7
REMARK    7  A    between atoms: C_7  and  C_8
REMARK    8  A    between atoms: C_8  and  C_9
REMARK    9  A    between atoms: C_9  and  C_10
REMARK   10  A    between atoms: C_10  and  C_11
REMARK   11  A    between atoms: C_11  and  C_12
REMARK   12  A    between atoms: C_12  and  C_13
REMARK   13  A    between atoms: C_13  and  C_14
REMARK   14  A    between atoms: C_14  and  N_15
REMARK   15  A    between atoms: N_15  and  C_16
REMARK   16  A    between atoms: C_22  and  O_23
REMARK                            x       y       z     vdW  Elec       q    Type
REMARK                         _______ _______ _______ _____ _____    ______ ____
ROOT
ATOM      1  C   UNL     1       9.163  10.410  19.605  0.00  0.00    +0.000 C 
ENDROOT
BRANCH   1   2
ATOM      2  N   UNL     1       9.676  11.413  18.669  0.00  0.00    +0.000 NA
ATOM      3  H   UNL     1       9.170  12.311  18.859  0.00  0.00    +0.000 HD
BRANCH   2   4
ATOM      4  C   UNL     1      11.121  11.653  18.849  0.00  0.00    +0.000 C 
ATOM      5  C   UNL     1      11.761  12.263  17.593  0.00  0.00    +0.000 C 
ATOM      6  C   UNL     1      11.004  13.534  17.173  0.00  0.00    +0.000 C 
ATOM      7  C   UNL     1      10.793  14.476  18.332  0.00  0.00    +0.000 A 
ATOM      8  C   UNL     1      10.415  15.800  18.063  0.00  0.00    +0.000 A 
ATOM      9  C   UNL     1      10.269  16.718  19.105  0.00  0.00    +0.000 A 
ATOM     10  C   UNL     1      10.496  16.325  20.431  0.00  0.00    +0.000 A 
ATOM     11  C   UNL     1      10.847  14.998  20.710  0.00  0.00    +0.000 A 
ATOM     12  C   UNL     1      10.984  14.060  19.675  0.00  0.00    +0.000 A 
ATOM     13  C   UNL     1      11.342  12.632  20.022  0.00  0.00    +0.000 C 
BRANCH  10  14
ATOM     14  O   UNL     1      10.372  17.204  21.441  0.00  0.00    +0.000 OA
ATOM     15  H   UNL     1      10.910  17.146  22.243  0.00  0.00    +0.000 HD
ENDBRANCH  10  14
ENDBRANCH   2   4
ENDBRANCH   1   2
BRANCH   1  16
ATOM     16  C   UNL     1       9.014   9.071  18.903  0.00  0.00    +0.000 C 
BRANCH  16  17
ATOM     17  C   UNL     1       8.047   9.227  17.739  0.00  0.00    +0.000 C 
BRANCH  17  18
ATOM     18  C   UNL     1       7.564   7.871  17.267  0.00  0.00    +0.000 C 
BRANCH  18  19
ATOM     19  C   UNL     1       7.822   6.844  18.357  0.00  0.00    +0.000 C 
BRANCH  19  20
ATOM     20  C   UNL     1       7.387   5.478  17.880  0.00  0.00    +0.000 C 
BRANCH  20  21
ATOM     21  C   UNL     1       6.287   4.938  18.783  0.00  0.00    +0.000 C 
BRANCH  21  22
ATOM     22  C   UNL     1       4.990   5.611  18.398  0.00  0.00    +0.000 C 
BRANCH  22  23
ATOM     23  C   UNL     1       4.417   5.038  17.109  0.00  0.00    +0.000 C 
BRANCH  23  24
ATOM     24  C   UNL     1       4.109   3.575  17.377  0.00  0.00    +0.000 C 
BRANCH  24  25
ATOM     25  C   UNL     1       2.634   3.223  17.202  0.00  0.00    +0.000 C 
BRANCH  25  26
ATOM     26  C   UNL     1       1.737   4.361  17.720  0.00  0.00    +0.000 C 
BRANCH  26  28
ATOM     27  C   UNL     1       0.885   2.751  19.485  0.00  0.00    +0.000 C 
ATOM     28  C   UNL     1       1.340   4.171  19.198  0.00  0.00    +0.000 C 
ENDBRANCH  26  28
ENDBRANCH  25  26
ENDBRANCH  24  25
ENDBRANCH  23  24
ENDBRANCH  22  23
ENDBRANCH  21  22
ENDBRANCH  20  21
ENDBRANCH  19  20
ENDBRANCH  18  19
ENDBRANCH  17  18
ENDBRANCH  16  17
ENDBRANCH   1  16
TORSDOF 15
ENDMDL
