MODEL 1
REMARK VINA RESULT:      -8.3      0.000      0.000
REMARK  Name = 
REMARK  4 active torsions:
REMARK  status: ('A' for Active; 'I' for Inactive)
REMARK    1  A    between atoms: O_1  and  C_2
REMARK    2  A    between atoms: C_2  and  C_3
REMARK    3  A    between atoms: C_6  and  C_7
REMARK    4  A    between atoms: N_16  and  C_17
REMARK                            x       y       z     vdW  Elec       q    Type
REMARK                         _______ _______ _______ _____ _____    ______ ____
ROOT
ATOM      1  C   UNL     1       0.245  10.455  20.720  0.00  0.00    +0.000 C 
ATOM      2  C   UNL     1      -1.305  10.394  20.542  0.00  0.00    +0.000 C 
ATOM      3  N   UNL     1      -1.608  11.613  19.757  0.00  0.00    +0.000 N 
ATOM      4  C   UNL     1      -0.518  12.381  19.692  0.00  0.00    +0.000 C 
ATOM      5  C   UNL     1      -0.474  13.749  19.113  0.00  0.00    +0.000 C 
ATOM      6  C   UNL     1       0.689  13.875  18.136  0.00  0.00    +0.000 C 
ATOM      7  C   UNL     1       1.982  14.302  18.825  0.00  0.00    +0.000 C 
ATOM      8  C   UNL     1       2.103  13.854  20.278  0.00  0.00    +0.000 C 
ATOM      9  C   UNL     1       1.931  12.357  20.467  0.00  0.00    +0.000 C 
ATOM     10  N   UNL     1       0.563  11.826  20.249  0.00  0.00    +0.000 N 
ENDROOT
BRANCH   3  11
ATOM     11  C   UNL     1      -2.870  11.878  19.292  0.00  0.00    +0.000 A 
ATOM     12  C   UNL     1      -3.788  12.579  20.095  0.00  0.00    +0.000 A 
ATOM     13  C   UNL     1      -5.086  12.866  19.653  0.00  0.00    +0.000 A 
ATOM     14  C   UNL     1      -5.493  12.452  18.391  0.00  0.00    +0.000 A 
ATOM     15 BR   UNL     1      -7.236  12.843  17.785  0.00  0.00    +0.000 Br
ATOM     16  C   UNL     1      -4.619  11.734  17.583  0.00  0.00    +0.000 A 
ATOM     17  C   UNL     1      -3.332  11.426  18.047  0.00  0.00    +0.000 A 
ENDBRANCH   3  11
BRANCH   1  18
ATOM     18  C   UNL     1       1.065   9.422  19.948  0.00  0.00    +0.000 A 
ATOM     19  C   UNL     1       1.420   9.590  18.603  0.00  0.00    +0.000 A 
ATOM     20  C   UNL     1       2.144   8.605  17.910  0.00  0.00    +0.000 A 
ATOM     21  C   UNL     1       2.594   7.427  18.535  0.00  0.00    +0.000 A 
ATOM     22  C   UNL     1       2.278   7.284  19.891  0.00  0.00    +0.000 A 
ATOM     23  C   UNL     1       1.527   8.252  20.581  0.00  0.00    +0.000 A 
BRANCH  21  24
ATOM     24  C   UNL     1       3.371   6.400  17.790  0.00  0.00    +0.000 A 
ATOM     25  C   UNL     1       4.460   6.756  16.970  0.00  0.00    +0.000 A 
ATOM     26  C   UNL     1       5.176   5.799  16.240  0.00  0.00    +0.000 A 
ATOM     27  C   UNL     1       4.832   4.455  16.324  0.00  0.00    +0.000 A 
ATOM     28  C   UNL     1       3.774   4.070  17.138  0.00  0.00    +0.000 A 
ATOM     29  C   UNL     1       3.051   5.030  17.857  0.00  0.00    +0.000 A 
ENDBRANCH  21  24
ENDBRANCH   1  18
BRANCH   1  30
ATOM     30  O   UNL     1       0.538  10.428  22.110  0.00  0.00    +0.000 OA
ATOM     31  H   UNL     1       0.809  11.327  22.369  0.00  0.00    +0.000 HD
ENDBRANCH   1  30
TORSDOF 4
ENDMDL
MODEL 2
REMARK VINA RESULT:      -8.3      0.066      1.238
REMARK  Name = 
REMARK  4 active torsions:
REMARK  status: ('A' for Active; 'I' for Inactive)
REMARK    1  A    between atoms: O_1  and  C_2
REMARK    2  A    between atoms: C_2  and  C_3
REMARK    3  A    between atoms: C_6  and  C_7
REMARK    4  A    between atoms: N_16  and  C_17
REMARK                            x       y       z     vdW  Elec       q    Type
REMARK                         _______ _______ _______ _____ _____    ______ ____
ROOT
ATOM      1  C   UNL     1       0.257  10.461  20.751  0.00  0.00    +0.000 C 
ATOM      2  C   UNL     1      -1.296  10.413  20.592  0.00  0.00    +0.000 C 
ATOM      3  N   UNL     1      -1.596  11.622  19.791  0.00  0.00    +0.000 N 
ATOM      4  C   UNL     1      -0.500  12.378  19.701  0.00  0.00    +0.000 C 
ATOM      5  C   UNL     1      -0.449  13.737  19.099  0.00  0.00    +0.000 C 
ATOM      6  C   UNL     1       0.703  13.835  18.107  0.00  0.00    +0.000 C 
ATOM      7  C   UNL     1       2.009  14.260  18.773  0.00  0.00    +0.000 C 
ATOM      8  C   UNL     1       2.143  13.834  20.232  0.00  0.00    +0.000 C 
ATOM      9  C   UNL     1       1.958  12.342  20.447  0.00  0.00    +0.000 C 
ATOM     10  N   UNL     1       0.583  11.822  20.254  0.00  0.00    +0.000 N 
ENDROOT
BRANCH   3  11
ATOM     11  C   UNL     1      -2.861  11.892  19.337  0.00  0.00    +0.000 A 
ATOM     12  C   UNL     1      -3.768  12.600  20.146  0.00  0.00    +0.000 A 
ATOM     13  C   UNL     1      -5.069  12.893  19.715  0.00  0.00    +0.000 A 
ATOM     14  C   UNL     1      -5.489  12.478  18.458  0.00  0.00    +0.000 A 
ATOM     15 BR   UNL     1      -7.235  12.876  17.866  0.00  0.00    +0.000 Br
ATOM     16  C   UNL     1      -4.626  11.753  17.644  0.00  0.00    +0.000 A 
ATOM     17  C   UNL     1      -3.337  11.440  18.097  0.00  0.00    +0.000 A 
ENDBRANCH   3  11
BRANCH   1  18
ATOM     18  C   UNL     1       1.057   9.408  19.986  0.00  0.00    +0.000 A 
ATOM     19  C   UNL     1       1.517   8.227  20.582  0.00  0.00    +0.000 A 
ATOM     20  C   UNL     1       2.281   7.293  19.861  0.00  0.00    +0.000 A 
ATOM     21  C   UNL     1       2.585   7.468  18.498  0.00  0.00    +0.000 A 
ATOM     22  C   UNL     1       2.086   8.627  17.894  0.00  0.00    +0.000 A 
ATOM     23  C   UNL     1       1.346   9.578  18.618  0.00  0.00    +0.000 A 
BRANCH  21  24
ATOM     24  C   UNL     1       3.386   6.464  17.746  0.00  0.00    +0.000 A 
ATOM     25  C   UNL     1       3.082   5.089  17.806  0.00  0.00    +0.000 A 
ATOM     26  C   UNL     1       3.849   4.135  17.127  0.00  0.00    +0.000 A 
ATOM     27  C   UNL     1       4.935   4.532  16.355  0.00  0.00    +0.000 A 
ATOM     28  C   UNL     1       5.250   5.882  16.262  0.00  0.00    +0.000 A 
ATOM     29  C   UNL     1       4.488   6.834  16.952  0.00  0.00    +0.000 A 
ENDBRANCH  21  24
ENDBRANCH   1  18
BRANCH   1  30
ATOM     30  O   UNL     1       0.566  10.454  22.138  0.00  0.00    +0.000 OA
ATOM     31  H   UNL     1       1.536  10.481  22.220  0.00  0.00    +0.000 HD
ENDBRANCH   1  30
TORSDOF 4
ENDMDL
MODEL 3
REMARK VINA RESULT:      -8.3      0.085      1.241
REMARK  Name = 
REMARK  4 active torsions:
REMARK  status: ('A' for Active; 'I' for Inactive)
REMARK    1  A    between atoms: O_1  and  C_2
REMARK    2  A    between atoms: C_2  and  C_3
REMARK    3  A    between atoms: C_6  and  C_7
REMARK    4  A    between atoms: N_16  and  C_17
REMARK                            x       y       z     vdW  Elec       q    Type
REMARK                         _______ _______ _______ _____ _____    ______ ____
ROOT
ATOM      1  C   UNL     1       0.277  10.438  20.780  0.00  0.00    +0.000 C 
ATOM      2  C   UNL     1      -1.276  10.384  20.632  0.00  0.00    +0.000 C 
ATOM      3  N   UNL     1      -1.589  11.599  19.847  0.00  0.00    +0.000 N 
ATOM      4  C   UNL     1      -0.497  12.362  19.757  0.00  0.00    +0.000 C 
ATOM      5  C   UNL     1      -0.458  13.727  19.170  0.00  0.00    +0.000 C 
ATOM      6  C   UNL     1       0.686  13.842  18.170  0.00  0.00    +0.000 C 
ATOM      7  C   UNL     1       1.994  14.267  18.831  0.00  0.00    +0.000 C 
ATOM      8  C   UNL     1       2.142  13.825  20.284  0.00  0.00    +0.000 C 
ATOM      9  C   UNL     1       1.966  12.330  20.484  0.00  0.00    +0.000 C 
ATOM     10  N   UNL     1       0.592  11.805  20.296  0.00  0.00    +0.000 N 
ENDROOT
BRANCH   3  11
ATOM     11  C   UNL     1      -2.859  11.868  19.406  0.00  0.00    +0.000 A 
ATOM     12  C   UNL     1      -3.273  11.439  18.132  0.00  0.00    +0.000 A 
ATOM     13  C   UNL     1      -4.563  11.697  17.650  0.00  0.00    +0.000 A 
ATOM     14  C   UNL     1      -5.467  12.396  18.439  0.00  0.00    +0.000 A 
ATOM     15 BR   UNL     1      -7.209  12.740  17.800  0.00  0.00    +0.000 Br
ATOM     16  C   UNL     1      -5.082  12.858  19.692  0.00  0.00    +0.000 A 
ATOM     17  C   UNL     1      -3.779  12.619  20.153  0.00  0.00    +0.000 A 
ENDBRANCH   3  11
BRANCH   1  18
ATOM     18  C   UNL     1       1.077   9.397  19.998  0.00  0.00    +0.000 A 
ATOM     19  C   UNL     1       1.450   9.579  18.660  0.00  0.00    +0.000 A 
ATOM     20  C   UNL     1       2.155   8.587  17.956  0.00  0.00    +0.000 A 
ATOM     21  C   UNL     1       2.566   7.387  18.564  0.00  0.00    +0.000 A 
ATOM     22  C   UNL     1       2.232   7.228  19.914  0.00  0.00    +0.000 A 
ATOM     23  C   UNL     1       1.500   8.203  20.614  0.00  0.00    +0.000 A 
BRANCH  21  24
ATOM     24  C   UNL     1       3.323   6.352  17.808  0.00  0.00    +0.000 A 
ATOM     25  C   UNL     1       2.942   4.996  17.840  0.00  0.00    +0.000 A 
ATOM     26  C   UNL     1       3.667   4.011  17.158  0.00  0.00    +0.000 A 
ATOM     27  C   UNL     1       4.785   4.360  16.409  0.00  0.00    +0.000 A 
ATOM     28  C   UNL     1       5.175   5.692  16.343  0.00  0.00    +0.000 A 
ATOM     29  C   UNL     1       4.456   6.674  17.037  0.00  0.00    +0.000 A 
ENDBRANCH  21  24
ENDBRANCH   1  18
BRANCH   1  30
ATOM     30  O   UNL     1       0.597  10.416  22.164  0.00  0.00    +0.000 OA
ATOM     31  H   UNL     1       1.547  10.216  22.241  0.00  0.00    +0.000 HD
ENDBRANCH   1  30
TORSDOF 4
ENDMDL
MODEL 4
REMARK VINA RESULT:      -8.3      0.078      1.238
REMARK  Name = 
REMARK  4 active torsions:
REMARK  status: ('A' for Active; 'I' for Inactive)
REMARK    1  A    between atoms: O_1  and  C_2
REMARK    2  A    between atoms: C_2  and  C_3
REMARK    3  A    between atoms: C_6  and  C_7
REMARK    4  A    between atoms: N_16  and  C_17
REMARK                            x       y       z     vdW  Elec       q    Type
REMARK                         _______ _______ _______ _____ _____    ______ ____
ROOT
ATOM      1  C   UNL     1       0.293  10.470  20.790  0.00  0.00    +0.000 C 
ATOM      2  C   UNL     1      -1.261  10.423  20.649  0.00  0.00    +0.000 C 
ATOM      3  N   UNL     1      -1.569  11.625  19.842  0.00  0.00    +0.000 N 
ATOM      4  C   UNL     1      -0.472  12.379  19.733  0.00  0.00    +0.000 C 
ATOM      5  C   UNL     1      -0.427  13.732  19.120  0.00  0.00    +0.000 C 
ATOM      6  C   UNL     1       0.714  13.820  18.114  0.00  0.00    +0.000 C 
ATOM      7  C   UNL     1       2.028  14.249  18.761  0.00  0.00    +0.000 C 
ATOM      8  C   UNL     1       2.178  13.834  20.222  0.00  0.00    +0.000 C 
ATOM      9  C   UNL     1       1.994  12.345  20.452  0.00  0.00    +0.000 C 
ATOM     10  N   UNL     1       0.616  11.825  20.279  0.00  0.00    +0.000 N 
ENDROOT
BRANCH   3  11
ATOM     11  C   UNL     1      -2.839  11.894  19.401  0.00  0.00    +0.000 A 
ATOM     12  C   UNL     1      -3.254  11.462  18.128  0.00  0.00    +0.000 A 
ATOM     13  C   UNL     1      -4.543  11.720  17.646  0.00  0.00    +0.000 A 
ATOM     14  C   UNL     1      -5.447  12.422  18.433  0.00  0.00    +0.000 A 
ATOM     15 BR   UNL     1      -7.189  12.765  17.794  0.00  0.00    +0.000 Br
ATOM     16  C   UNL     1      -5.061  12.886  19.685  0.00  0.00    +0.000 A 
ATOM     17  C   UNL     1      -3.758  12.648  20.146  0.00  0.00    +0.000 A 
ENDBRANCH   3  11
BRANCH   1  18
ATOM     18  C   UNL     1       1.083   9.409  20.025  0.00  0.00    +0.000 A 
ATOM     19  C   UNL     1       1.523   8.218  20.618  0.00  0.00    +0.000 A 
ATOM     20  C   UNL     1       2.278   7.278  19.897  0.00  0.00    +0.000 A 
ATOM     21  C   UNL     1       2.591   7.454  18.536  0.00  0.00    +0.000 A 
ATOM     22  C   UNL     1       2.112   8.622  17.935  0.00  0.00    +0.000 A 
ATOM     23  C   UNL     1       1.382   9.581  18.659  0.00  0.00    +0.000 A 
BRANCH  21  24
ATOM     24  C   UNL     1       3.383   6.442  17.784  0.00  0.00    +0.000 A 
ATOM     25  C   UNL     1       4.463   6.820  16.961  0.00  0.00    +0.000 A 
ATOM     26  C   UNL     1       5.192   5.878  16.225  0.00  0.00    +0.000 A 
ATOM     27  C   UNL     1       4.871   4.528  16.305  0.00  0.00    +0.000 A 
ATOM     28  C   UNL     1       3.823   4.122  17.122  0.00  0.00    +0.000 A 
ATOM     29  C   UNL     1       3.086   5.067  17.847  0.00  0.00    +0.000 A 
ENDBRANCH  21  24
ENDBRANCH   1  18
BRANCH   1  30
ATOM     30  O   UNL     1       0.619  10.473  22.173  0.00  0.00    +0.000 OA
ATOM     31  H   UNL     1       1.128  11.283  22.351  0.00  0.00    +0.000 HD
ENDBRANCH   1  30
TORSDOF 4
ENDMDL
MODEL 5
REMARK VINA RESULT:      -8.1      3.417      8.725
REMARK  Name = 
REMARK  4 active torsions:
REMARK  status: ('A' for Active; 'I' for Inactive)
REMARK    1  A    between atoms: O_1  and  C_2
REMARK    2  A    between atoms: C_2  and  C_3
REMARK    3  A    between atoms: C_6  and  C_7
REMARK    4  A    between atoms: N_16  and  C_17
REMARK                            x       y       z     vdW  Elec       q    Type
REMARK                         _______ _______ _______ _____ _____    ______ ____
ROOT
ATOM      1  C   UNL     1      -1.512  11.865  18.257  0.00  0.00    +0.000 C 
ATOM      2  C   UNL     1      -1.017  10.387  18.169  0.00  0.00    +0.000 C 
ATOM      3  N   UNL     1       0.339  10.443  18.761  0.00  0.00    +0.000 N 
ATOM      4  C   UNL     1       0.694  11.717  18.935  0.00  0.00    +0.000 C 
ATOM      5  C   UNL     1       2.041  12.174  19.370  0.00  0.00    +0.000 C 
ATOM      6  C   UNL     1       1.918  13.172  20.515  0.00  0.00    +0.000 C 
ATOM      7  C   UNL     1       1.770  14.608  20.021  0.00  0.00    +0.000 C 
ATOM      8  C   UNL     1       1.086  14.744  18.664  0.00  0.00    +0.000 C 
ATOM      9  C   UNL     1      -0.275  14.073  18.602  0.00  0.00    +0.000 C 
ATOM     10  N   UNL     1      -0.272  12.590  18.633  0.00  0.00    +0.000 N 
ENDROOT
BRANCH   3  11
ATOM     11  C   UNL     1       1.084   9.311  18.969  0.00  0.00    +0.000 A 
ATOM     12  C   UNL     1       1.800   8.728  17.909  0.00  0.00    +0.000 A 
ATOM     13  C   UNL     1       2.570   7.571  18.086  0.00  0.00    +0.000 A 
ATOM     14  C   UNL     1       2.636   6.971  19.337  0.00  0.00    +0.000 A 
ATOM     15 BR   UNL     1       3.678   5.419  19.587  0.00  0.00    +0.000 Br
ATOM     16  C   UNL     1       1.918   7.506  20.401  0.00  0.00    +0.000 A 
ATOM     17  C   UNL     1       1.127   8.647  20.205  0.00  0.00    +0.000 A 
ENDBRANCH   3  11
BRANCH   1  18
ATOM     18  C   UNL     1      -2.626  12.157  19.260  0.00  0.00    +0.000 A 
ATOM     19  C   UNL     1      -3.984  12.096  18.922  0.00  0.00    +0.000 A 
ATOM     20  C   UNL     1      -4.986  12.405  19.859  0.00  0.00    +0.000 A 
ATOM     21  C   UNL     1      -4.685  12.742  21.192  0.00  0.00    +0.000 A 
ATOM     22  C   UNL     1      -3.330  12.757  21.539  0.00  0.00    +0.000 A 
ATOM     23  C   UNL     1      -2.323  12.479  20.598  0.00  0.00    +0.000 A 
BRANCH  21  24
ATOM     24  C   UNL     1      -5.759  13.054  22.175  0.00  0.00    +0.000 A 
ATOM     25  C   UNL     1      -5.655  14.156  23.047  0.00  0.00    +0.000 A 
ATOM     26  C   UNL     1      -6.645  14.439  23.996  0.00  0.00    +0.000 A 
ATOM     27  C   UNL     1      -7.776  13.635  24.087  0.00  0.00    +0.000 A 
ATOM     28  C   UNL     1      -7.915  12.552  23.228  0.00  0.00    +0.000 A 
ATOM     29  C   UNL     1      -6.918  12.263  22.288  0.00  0.00    +0.000 A 
ENDBRANCH  21  24
ENDBRANCH   1  18
BRANCH   1  30
ATOM     30  O   UNL     1      -1.853  12.303  16.948  0.00  0.00    +0.000 OA
ATOM     31  H   UNL     1      -2.324  13.150  17.038  0.00  0.00    +0.000 HD
ENDBRANCH   1  30
TORSDOF 4
ENDMDL
MODEL 6
REMARK VINA RESULT:      -8.0      3.409      8.697
REMARK  Name = 
REMARK  4 active torsions:
REMARK  status: ('A' for Active; 'I' for Inactive)
REMARK    1  A    between atoms: O_1  and  C_2
REMARK    2  A    between atoms: C_2  and  C_3
REMARK    3  A    between atoms: C_6  and  C_7
REMARK    4  A    between atoms: N_16  and  C_17
REMARK                            x       y       z     vdW  Elec       q    Type
REMARK                         _______ _______ _______ _____ _____    ______ ____
ROOT
ATOM      1  C   UNL     1      -1.498  11.869  18.266  0.00  0.00    +0.000 C 
ATOM      2  C   UNL     1      -1.025  10.384  18.169  0.00  0.00    +0.000 C 
ATOM      3  N   UNL     1       0.338  10.420  18.744  0.00  0.00    +0.000 N 
ATOM      4  C   UNL     1       0.714  11.689  18.917  0.00  0.00    +0.000 C 
ATOM      5  C   UNL     1       2.072  12.126  19.337  0.00  0.00    +0.000 C 
ATOM      6  C   UNL     1       1.976  13.122  20.487  0.00  0.00    +0.000 C 
ATOM      7  C   UNL     1       1.843  14.561  19.999  0.00  0.00    +0.000 C 
ATOM      8  C   UNL     1       1.144  14.710  18.650  0.00  0.00    +0.000 C 
ATOM      9  C   UNL     1      -0.227  14.059  18.603  0.00  0.00    +0.000 C 
ATOM     10  N   UNL     1      -0.244  12.576  18.629  0.00  0.00    +0.000 N 
ENDROOT
BRANCH   3  11
ATOM     11  C   UNL     1       1.070   9.277  18.941  0.00  0.00    +0.000 A 
ATOM     12  C   UNL     1       1.130   8.685  20.215  0.00  0.00    +0.000 A 
ATOM     13  C   UNL     1       1.868   7.518  20.452  0.00  0.00    +0.000 A 
ATOM     14  C   UNL     1       2.566   6.919  19.411  0.00  0.00    +0.000 A 
ATOM     15 BR   UNL     1       3.555   5.343  19.719  0.00  0.00    +0.000 Br
ATOM     16  C   UNL     1       2.549   7.494  18.145  0.00  0.00    +0.000 A 
ATOM     17  C   UNL     1       1.831   8.678  17.926  0.00  0.00    +0.000 A 
ENDBRANCH   3  11
BRANCH   1  18
ATOM     18  C   UNL     1      -2.596  12.174  19.284  0.00  0.00    +0.000 A 
ATOM     19  C   UNL     1      -2.323  12.477  20.624  0.00  0.00    +0.000 A 
ATOM     20  C   UNL     1      -3.357  12.717  21.545  0.00  0.00    +0.000 A 
ATOM     21  C   UNL     1      -4.712  12.716  21.166  0.00  0.00    +0.000 A 
ATOM     22  C   UNL     1      -4.979  12.459  19.817  0.00  0.00    +0.000 A 
ATOM     23  C   UNL     1      -3.951  12.187  18.898  0.00  0.00    +0.000 A 
BRANCH  21  24
ATOM     24  C   UNL     1      -5.794  12.985  22.152  0.00  0.00    +0.000 A 
ATOM     25  C   UNL     1      -5.745  14.102  23.009  0.00  0.00    +0.000 A 
ATOM     26  C   UNL     1      -6.743  14.345  23.961  0.00  0.00    +0.000 A 
ATOM     27  C   UNL     1      -7.828  13.484  24.070  0.00  0.00    +0.000 A 
ATOM     28  C   UNL     1      -7.915  12.383  23.226  0.00  0.00    +0.000 A 
ATOM     29  C   UNL     1      -6.909  12.135  22.283  0.00  0.00    +0.000 A 
ENDBRANCH  21  24
ENDBRANCH   1  18
BRANCH   1  30
ATOM     30  O   UNL     1      -1.849  12.315  16.964  0.00  0.00    +0.000 OA
ATOM     31  H   UNL     1      -2.807  12.489  16.963  0.00  0.00    +0.000 HD
ENDBRANCH   1  30
TORSDOF 4
ENDMDL
MODEL 7
REMARK VINA RESULT:      -7.8      2.821      4.166
REMARK  Name = 
REMARK  4 active torsions:
REMARK  status: ('A' for Active; 'I' for Inactive)
REMARK    1  A    between atoms: O_1  and  C_2
REMARK    2  A    between atoms: C_2  and  C_3
REMARK    3  A    between atoms: C_6  and  C_7
REMARK    4  A    between atoms: N_16  and  C_17
REMARK                            x       y       z     vdW  Elec       q    Type
REMARK                         _______ _______ _______ _____ _____    ______ ____
ROOT
ATOM      1  C   UNL     1       0.854  10.765  18.900  0.00  0.00    +0.000 C 
ATOM      2  C   UNL     1       0.762  11.742  20.114  0.00  0.00    +0.000 C 
ATOM      3  N   UNL     1      -0.696  11.934  20.289  0.00  0.00    +0.000 N 
ATOM      4  C   UNL     1      -1.342  11.399  19.251  0.00  0.00    +0.000 C 
ATOM      5  C   UNL     1      -2.802  11.521  19.002  0.00  0.00    +0.000 C 
ATOM      6  C   UNL     1      -3.407  10.153  18.708  0.00  0.00    +0.000 C 
ATOM      7  C   UNL     1      -3.349   9.799  17.225  0.00  0.00    +0.000 C 
ATOM      8  C   UNL     1      -2.176  10.417  16.472  0.00  0.00    +0.000 C 
ATOM      9  C   UNL     1      -0.825  10.107  17.092  0.00  0.00    +0.000 C 
ATOM     10  N   UNL     1      -0.541  10.758  18.393  0.00  0.00    +0.000 N 
ENDROOT
BRANCH   3  11
ATOM     11  C   UNL     1      -1.209  12.654  21.337  0.00  0.00    +0.000 A 
ATOM     12  C   UNL     1      -1.759  11.993  22.450  0.00  0.00    +0.000 A 
ATOM     13  C   UNL     1      -2.293  12.697  23.537  0.00  0.00    +0.000 A 
ATOM     14  C   UNL     1      -2.288  14.086  23.529  0.00  0.00    +0.000 A 
ATOM     15 BR   UNL     1      -2.996  15.041  24.993  0.00  0.00    +0.000 Br
ATOM     16  C   UNL     1      -1.776  14.771  22.433  0.00  0.00    +0.000 A 
ATOM     17  C   UNL     1      -1.271  14.056  21.337  0.00  0.00    +0.000 A 
ENDBRANCH   3  11
BRANCH   1  18
ATOM     18  C   UNL     1       1.321   9.342  19.199  0.00  0.00    +0.000 A 
ATOM     19  C   UNL     1       2.043   8.572  18.278  0.00  0.00    +0.000 A 
ATOM     20  C   UNL     1       2.427   7.252  18.569  0.00  0.00    +0.000 A 
ATOM     21  C   UNL     1       2.154   6.650  19.811  0.00  0.00    +0.000 A 
ATOM     22  C   UNL     1       1.473   7.437  20.747  0.00  0.00    +0.000 A 
ATOM     23  C   UNL     1       1.059   8.747  20.449  0.00  0.00    +0.000 A 
BRANCH  21  24
ATOM     24  C   UNL     1       2.578   5.255  20.109  0.00  0.00    +0.000 A 
ATOM     25  C   UNL     1       3.671   4.663  19.443  0.00  0.00    +0.000 A 
ATOM     26  C   UNL     1       4.057   3.341  19.694  0.00  0.00    +0.000 A 
ATOM     27  C   UNL     1       3.370   2.578  20.631  0.00  0.00    +0.000 A 
ATOM     28  C   UNL     1       2.299   3.139  21.316  0.00  0.00    +0.000 A 
ATOM     29  C   UNL     1       1.906   4.458  21.055  0.00  0.00    +0.000 A 
ENDBRANCH  21  24
ENDBRANCH   1  18
BRANCH   1  30
ATOM     30  O   UNL     1       1.646  11.377  17.891  0.00  0.00    +0.000 OA
ATOM     31  H   UNL     1       1.537  12.341  17.978  0.00  0.00    +0.000 HD
ENDBRANCH   1  30
TORSDOF 4
ENDMDL
MODEL 8
REMARK VINA RESULT:      -7.8      2.935      4.388
REMARK  Name = 
REMARK  4 active torsions:
REMARK  status: ('A' for Active; 'I' for Inactive)
REMARK    1  A    between atoms: O_1  and  C_2
REMARK    2  A    between atoms: C_2  and  C_3
REMARK    3  A    between atoms: C_6  and  C_7
REMARK    4  A    between atoms: N_16  and  C_17
REMARK                            x       y       z     vdW  Elec       q    Type
REMARK                         _______ _______ _______ _____ _____    ______ ____
ROOT
ATOM      1  C   UNL     1       1.070  10.740  18.873  0.00  0.00    +0.000 C 
ATOM      2  C   UNL     1       1.168  11.775  20.038  0.00  0.00    +0.000 C 
ATOM      3  N   UNL     1      -0.247  12.105  20.323  0.00  0.00    +0.000 N 
ATOM      4  C   UNL     1      -1.025  11.584  19.371  0.00  0.00    +0.000 C 
ATOM      5  C   UNL     1      -2.485  11.826  19.238  0.00  0.00    +0.000 C 
ATOM      6  C   UNL     1      -3.228  10.506  19.068  0.00  0.00    +0.000 C 
ATOM      7  C   UNL     1      -3.331  10.082  17.606  0.00  0.00    +0.000 C 
ATOM      8  C   UNL     1      -2.179  10.558  16.726  0.00  0.00    +0.000 C 
ATOM      9  C   UNL     1      -0.811  10.155  17.247  0.00  0.00    +0.000 C 
ATOM     10  N   UNL     1      -0.360  10.836  18.485  0.00  0.00    +0.000 N 
ENDROOT
BRANCH   3  11
ATOM     11  C   UNL     1      -0.604  12.915  21.371  0.00  0.00    +0.000 A 
ATOM     12  C   UNL     1      -1.284  12.381  22.480  0.00  0.00    +0.000 A 
ATOM     13  C   UNL     1      -1.663  13.179  23.567  0.00  0.00    +0.000 A 
ATOM     14  C   UNL     1      -1.369  14.536  23.562  0.00  0.00    +0.000 A 
ATOM     15 BR   UNL     1      -1.869  15.616  25.026  0.00  0.00    +0.000 Br
ATOM     16  C   UNL     1      -0.721  15.101  22.470  0.00  0.00    +0.000 A 
ATOM     17  C   UNL     1      -0.372  14.299  21.374  0.00  0.00    +0.000 A 
ENDBRANCH   3  11
BRANCH   1  18
ATOM     18  C   UNL     1       1.437   9.295  19.207  0.00  0.00    +0.000 A 
ATOM     19  C   UNL     1       1.129   8.702  20.438  0.00  0.00    +0.000 A 
ATOM     20  C   UNL     1       1.511   7.381  20.729  0.00  0.00    +0.000 A 
ATOM     21  C   UNL     1       2.176   6.570  19.790  0.00  0.00    +0.000 A 
ATOM     22  C   UNL     1       2.441   7.151  18.545  0.00  0.00    +0.000 A 
ATOM     23  C   UNL     1       2.088   8.481  18.260  0.00  0.00    +0.000 A 
BRANCH  21  24
ATOM     24  C   UNL     1       2.563   5.169  20.110  0.00  0.00    +0.000 A 
ATOM     25  C   UNL     1       3.618   4.526  19.431  0.00  0.00    +0.000 A 
ATOM     26  C   UNL     1       3.968   3.199  19.703  0.00  0.00    +0.000 A 
ATOM     27  C   UNL     1       3.283   2.481  20.676  0.00  0.00    +0.000 A 
ATOM     28  C   UNL     1       2.249   3.092  21.376  0.00  0.00    +0.000 A 
ATOM     29  C   UNL     1       1.892   4.417  21.093  0.00  0.00    +0.000 A 
ENDBRANCH  21  24
ENDBRANCH   1  18
BRANCH   1  30
ATOM     30  O   UNL     1       1.820  11.233  17.771  0.00  0.00    +0.000 OA
ATOM     31  H   UNL     1       2.759  11.218  18.027  0.00  0.00    +0.000 HD
ENDBRANCH   1  30
TORSDOF 4
ENDMDL
MODEL 9
REMARK VINA RESULT:      -7.8      3.381      8.703
REMARK  Name = 
REMARK  4 active torsions:
REMARK  status: ('A' for Active; 'I' for Inactive)
REMARK    1  A    between atoms: O_1  and  C_2
REMARK    2  A    between atoms: C_2  and  C_3
REMARK    3  A    between atoms: C_6  and  C_7
REMARK    4  A    between atoms: N_16  and  C_17
REMARK                            x       y       z     vdW  Elec       q    Type
REMARK                         _______ _______ _______ _____ _____    ______ ____
ROOT
ATOM      1  C   UNL     1      -1.493  11.890  18.220  0.00  0.00    +0.000 C 
ATOM      2  C   UNL     1      -1.017  10.406  18.122  0.00  0.00    +0.000 C 
ATOM      3  N   UNL     1       0.322  10.433  18.754  0.00  0.00    +0.000 N 
ATOM      4  C   UNL     1       0.690  11.699  18.959  0.00  0.00    +0.000 C 
ATOM      5  C   UNL     1       2.029  12.130  19.441  0.00  0.00    +0.000 C 
ATOM      6  C   UNL     1       1.887  13.111  20.598  0.00  0.00    +0.000 C 
ATOM      7  C   UNL     1       1.774  14.557  20.123  0.00  0.00    +0.000 C 
ATOM      8  C   UNL     1       1.131  14.723  18.749  0.00  0.00    +0.000 C 
ATOM      9  C   UNL     1      -0.236  14.074  18.637  0.00  0.00    +0.000 C 
ATOM     10  N   UNL     1      -0.255  12.591  18.643  0.00  0.00    +0.000 N 
ENDROOT
BRANCH   3  11
ATOM     11  C   UNL     1       1.044   9.287  18.966  0.00  0.00    +0.000 A 
ATOM     12  C   UNL     1       1.083   8.700  20.244  0.00  0.00    +0.000 A 
ATOM     13  C   UNL     1       1.812   7.530  20.496  0.00  0.00    +0.000 A 
ATOM     14  C   UNL     1       2.522   6.924  19.468  0.00  0.00    +0.000 A 
ATOM     15 BR   UNL     1       3.497   5.343  19.797  0.00  0.00    +0.000 Br
ATOM     16  C   UNL     1       2.526   7.493  18.199  0.00  0.00    +0.000 A 
ATOM     17  C   UNL     1       1.817   8.680  17.965  0.00  0.00    +0.000 A 
ENDBRANCH   3  11
BRANCH   1  18
ATOM     18  C   UNL     1      -2.632  12.181  19.195  0.00  0.00    +0.000 A 
ATOM     19  C   UNL     1      -3.982  12.046  18.845  0.00  0.00    +0.000 A 
ATOM     20  C   UNL     1      -5.008  12.357  19.754  0.00  0.00    +0.000 A 
ATOM     21  C   UNL     1      -4.740  12.770  21.072  0.00  0.00    +0.000 A 
ATOM     22  C   UNL     1      -3.392  12.860  21.433  0.00  0.00    +0.000 A 
ATOM     23  C   UNL     1      -2.361  12.581  20.518  0.00  0.00    +0.000 A 
BRANCH  21  24
ATOM     24  C   UNL     1      -5.839  13.084  22.026  0.00  0.00    +0.000 A 
ATOM     25  C   UNL     1      -6.896  13.945  21.669  0.00  0.00    +0.000 A 
ATOM     26  C   UNL     1      -7.917  14.270  22.571  0.00  0.00    +0.000 A 
ATOM     27  C   UNL     1      -7.916  13.730  23.851  0.00  0.00    +0.000 A 
ATOM     28  C   UNL     1      -6.897  12.863  24.227  0.00  0.00    +0.000 A 
ATOM     29  C   UNL     1      -5.870  12.549  23.328  0.00  0.00    +0.000 A 
ENDBRANCH  21  24
ENDBRANCH   1  18
BRANCH   1  30
ATOM     30  O   UNL     1      -1.790  12.352  16.909  0.00  0.00    +0.000 OA
ATOM     31  H   UNL     1      -1.746  13.325  16.927  0.00  0.00    +0.000 HD
ENDBRANCH   1  30
TORSDOF 4
ENDMDL
