MODEL 1
REMARK VINA RESULT:      -8.0      0.000      0.000
REMARK  Name = 
REMARK  7 active torsions:
REMARK  status: ('A' for Active; 'I' for Inactive)
REMARK    1  A    between atoms: C_1  and  C_2
REMARK    2  A    between atoms: C_2  and  C_3
REMARK    3  A    between atoms: C_2  and  C_4
REMARK    4  A    between atoms: C_2  and  C_5
REMARK    5  A    between atoms: C_8  and  C_9
REMARK    6  A    between atoms: N_11  and  C_12
REMARK    7  A    between atoms: C_15  and  C_16
REMARK                            x       y       z     vdW  Elec       q    Type
REMARK                         _______ _______ _______ _____ _____    ______ ____
ROOT
ATOM      1  C   UNL     1       0.423  10.386  21.788  0.00  0.00    +0.000 C 
ATOM      2  O   UNL     1       1.220   9.972  22.624  0.00  0.00    +0.000 OA
ATOM      3  N   UNL     1       0.342   9.989  20.469  0.00  0.00    +0.000 N 
ATOM      4  H   UNL     1      -0.247  10.534  19.848  0.00  0.00    +0.000 HD
ENDROOT
BRANCH   1   8
ATOM      5  C   UNL     1      -2.396  13.392  23.069  0.00  0.00    +0.000 A 
ATOM      6  C   UNL     1      -2.475  12.050  23.483  0.00  0.00    +0.000 A 
ATOM      7  C   UNL     1      -1.538  11.106  23.074  0.00  0.00    +0.000 A 
ATOM      8  C   UNL     1      -0.500  11.465  22.215  0.00  0.00    +0.000 A 
ATOM      9  C   UNL     1      -0.423  12.775  21.741  0.00  0.00    +0.000 A 
ATOM     10  C   UNL     1      -1.368  13.725  22.163  0.00  0.00    +0.000 A 
BRANCH   5  12
ATOM     11  C   UNL     1      -3.379  15.719  22.740  0.00  0.00    +0.000 C 
ATOM     12  C   UNL     1      -3.412  14.425  23.591  0.00  0.00    +0.000 C 
ATOM     13  C   UNL     1      -3.077  14.790  25.050  0.00  0.00    +0.000 C 
ATOM     14  C   UNL     1      -4.865  13.907  23.537  0.00  0.00    +0.000 C 
ENDBRANCH   5  12
ENDBRANCH   1   8
BRANCH   3  15
ATOM     15  C   UNL     1       1.119   8.972  19.870  0.00  0.00    +0.000 A 
ATOM     16  C   UNL     1       1.483   7.796  20.527  0.00  0.00    +0.000 A 
ATOM     17  C   UNL     1       2.281   6.834  19.897  0.00  0.00    +0.000 A 
ATOM     18  C   UNL     1       2.712   7.024  18.582  0.00  0.00    +0.000 A 
ATOM     19  C   UNL     1       2.273   8.159  17.892  0.00  0.00    +0.000 A 
ATOM     20  C   UNL     1       1.518   9.145  18.541  0.00  0.00    +0.000 A 
BRANCH  18  21
ATOM     21  C   UNL     1       3.509   5.942  17.946  0.00  0.00    +0.000 C 
ATOM     22  O   UNL     1       4.677   6.194  17.649  0.00  0.00    +0.000 OA
ATOM     23  N   UNL     1       2.964   4.691  17.726  0.00  0.00    +0.000 N 
ATOM     24  C   UNL     1       1.590   4.225  17.768  0.00  0.00    +0.000 C 
ATOM     25  C   UNL     1       1.765   2.809  18.285  0.00  0.00    +0.000 C 
ATOM     26  C   UNL     1       2.994   2.331  17.514  0.00  0.00    +0.000 C 
ATOM     27  C   UNL     1       3.828   3.597  17.308  0.00  0.00    +0.000 C 
ENDBRANCH  18  21
ENDBRANCH   3  15
TORSDOF 4
ENDMDL
MODEL 2
REMARK VINA RESULT:      -7.9      0.181      1.294
REMARK  Name = 
REMARK  7 active torsions:
REMARK  status: ('A' for Active; 'I' for Inactive)
REMARK    1  A    between atoms: C_1  and  C_2
REMARK    2  A    between atoms: C_2  and  C_3
REMARK    3  A    between atoms: C_2  and  C_4
REMARK    4  A    between atoms: C_2  and  C_5
REMARK    5  A    between atoms: C_8  and  C_9
REMARK    6  A    between atoms: N_11  and  C_12
REMARK    7  A    between atoms: C_15  and  C_16
REMARK                            x       y       z     vdW  Elec       q    Type
REMARK                         _______ _______ _______ _____ _____    ______ ____
ROOT
ATOM      1  C   UNL     1       0.366  10.472  21.803  0.00  0.00    +0.000 C 
ATOM      2  O   UNL     1       1.092   9.947  22.640  0.00  0.00    +0.000 OA
ATOM      3  N   UNL     1       0.342  10.193  20.451  0.00  0.00    +0.000 N 
ATOM      4  H   UNL     1      -0.182  10.821  19.849  0.00  0.00    +0.000 HD
ENDROOT
BRANCH   1   8
ATOM      5  C   UNL     1      -2.373  13.505  23.189  0.00  0.00    +0.000 A 
ATOM      6  C   UNL     1      -2.542  12.140  23.477  0.00  0.00    +0.000 A 
ATOM      7  C   UNL     1      -1.630  11.184  23.038  0.00  0.00    +0.000 A 
ATOM      8  C   UNL     1      -0.526  11.559  22.272  0.00  0.00    +0.000 A 
ATOM      9  C   UNL     1      -0.357  12.899  21.922  0.00  0.00    +0.000 A 
ATOM     10  C   UNL     1      -1.278  13.859  22.374  0.00  0.00    +0.000 A 
BRANCH   5  12
ATOM     11  C   UNL     1      -4.794  13.953  23.845  0.00  0.00    +0.000 C 
ATOM     12  C   UNL     1      -3.365  14.543  23.745  0.00  0.00    +0.000 C 
ATOM     13  C   UNL     1      -3.407  15.770  22.814  0.00  0.00    +0.000 C 
ATOM     14  C   UNL     1      -2.993  15.019  25.166  0.00  0.00    +0.000 C 
ENDBRANCH   5  12
ENDBRANCH   1   8
BRANCH   3  15
ATOM     15  C   UNL     1       1.102   9.191  19.807  0.00  0.00    +0.000 A 
ATOM     16  C   UNL     1       1.538   9.289  18.485  0.00  0.00    +0.000 A 
ATOM     17  C   UNL     1       2.263   8.254  17.885  0.00  0.00    +0.000 A 
ATOM     18  C   UNL     1       2.587   7.105  18.610  0.00  0.00    +0.000 A 
ATOM     19  C   UNL     1       2.230   7.044  19.961  0.00  0.00    +0.000 A 
ATOM     20  C   UNL     1       1.459   8.059  20.545  0.00  0.00    +0.000 A 
BRANCH  18  21
ATOM     21  C   UNL     1       3.408   6.063  17.936  0.00  0.00    +0.000 C 
ATOM     22  O   UNL     1       4.558   6.363  17.615  0.00  0.00    +0.000 OA
ATOM     23  N   UNL     1       2.903   4.797  17.708  0.00  0.00    +0.000 N 
ATOM     24  C   UNL     1       1.548   4.280  17.774  0.00  0.00    +0.000 C 
ATOM     25  C   UNL     1       1.788   2.864  18.264  0.00  0.00    +0.000 C 
ATOM     26  C   UNL     1       3.014   2.444  17.455  0.00  0.00    +0.000 C 
ATOM     27  C   UNL     1       3.796   3.743  17.251  0.00  0.00    +0.000 C 
ENDBRANCH  18  21
ENDBRANCH   3  15
TORSDOF 4
ENDMDL
MODEL 3
REMARK VINA RESULT:      -7.9      0.869      1.283
REMARK  Name = 
REMARK  7 active torsions:
REMARK  status: ('A' for Active; 'I' for Inactive)
REMARK    1  A    between atoms: C_1  and  C_2
REMARK    2  A    between atoms: C_2  and  C_3
REMARK    3  A    between atoms: C_2  and  C_4
REMARK    4  A    between atoms: C_2  and  C_5
REMARK    5  A    between atoms: C_8  and  C_9
REMARK    6  A    between atoms: N_11  and  C_12
REMARK    7  A    between atoms: C_15  and  C_16
REMARK                            x       y       z     vdW  Elec       q    Type
REMARK                         _______ _______ _______ _____ _____    ______ ____
ROOT
ATOM      1  C   UNL     1       0.253  11.262  21.041  0.00  0.00    +0.000 C 
ATOM      2  O   UNL     1       1.393  11.679  21.220  0.00  0.00    +0.000 OA
ATOM      3  N   UNL     1      -0.105  10.153  20.302  0.00  0.00    +0.000 N 
ATOM      4  H   UNL     1      -1.090  10.022  20.095  0.00  0.00    +0.000 HD
ENDROOT
BRANCH   1   8
ATOM      5  C   UNL     1      -3.031  13.431  22.812  0.00  0.00    +0.000 A 
ATOM      6  C   UNL     1      -2.509  12.252  23.372  0.00  0.00    +0.000 A 
ATOM      7  C   UNL     1      -1.433  11.585  22.794  0.00  0.00    +0.000 A 
ATOM      8  C   UNL     1      -0.855  12.062  21.617  0.00  0.00    +0.000 A 
ATOM      9  C   UNL     1      -1.382  13.199  21.004  0.00  0.00    +0.000 A 
ATOM     10  C   UNL     1      -2.465  13.870  21.597  0.00  0.00    +0.000 A 
BRANCH   5  12
ATOM     11  C   UNL     1      -4.871  15.173  22.545  0.00  0.00    +0.000 C 
ATOM     12  C   UNL     1      -4.180  14.179  23.512  0.00  0.00    +0.000 C 
ATOM     13  C   UNL     1      -3.628  14.969  24.714  0.00  0.00    +0.000 C 
ATOM     14  C   UNL     1      -5.286  13.228  24.017  0.00  0.00    +0.000 C 
ENDBRANCH   5  12
ENDBRANCH   1   8
BRANCH   3  15
ATOM     15  C   UNL     1       0.794   9.255  19.683  0.00  0.00    +0.000 A 
ATOM     16  C   UNL     1       1.203   9.374  18.354  0.00  0.00    +0.000 A 
ATOM     17  C   UNL     1       2.072   8.439  17.780  0.00  0.00    +0.000 A 
ATOM     18  C   UNL     1       2.567   7.376  18.537  0.00  0.00    +0.000 A 
ATOM     19  C   UNL     1       2.230   7.307  19.893  0.00  0.00    +0.000 A 
ATOM     20  C   UNL     1       1.319   8.213  20.453  0.00  0.00    +0.000 A 
BRANCH  18  21
ATOM     21  C   UNL     1       3.532   6.447  17.890  0.00  0.00    +0.000 C 
ATOM     22  O   UNL     1       4.626   6.902  17.557  0.00  0.00    +0.000 OA
ATOM     23  N   UNL     1       3.217   5.115  17.696  0.00  0.00    +0.000 N 
ATOM     24  C   UNL     1       1.952   4.409  17.780  0.00  0.00    +0.000 C 
ATOM     25  C   UNL     1       2.394   3.056  18.306  0.00  0.00    +0.000 C 
ATOM     26  C   UNL     1       3.669   2.797  17.505  0.00  0.00    +0.000 C 
ATOM     27  C   UNL     1       4.254   4.190  17.264  0.00  0.00    +0.000 C 
ENDBRANCH  18  21
ENDBRANCH   3  15
TORSDOF 4
ENDMDL
MODEL 4
REMARK VINA RESULT:      -7.9      2.008      2.757
REMARK  Name = 
REMARK  7 active torsions:
REMARK  status: ('A' for Active; 'I' for Inactive)
REMARK    1  A    between atoms: C_1  and  C_2
REMARK    2  A    between atoms: C_2  and  C_3
REMARK    3  A    between atoms: C_2  and  C_4
REMARK    4  A    between atoms: C_2  and  C_5
REMARK    5  A    between atoms: C_8  and  C_9
REMARK    6  A    between atoms: N_11  and  C_12
REMARK    7  A    between atoms: C_15  and  C_16
REMARK                            x       y       z     vdW  Elec       q    Type
REMARK                         _______ _______ _______ _____ _____    ______ ____
ROOT
ATOM      1  C   UNL     1      -0.043  10.034  19.703  0.00  0.00    +0.000 C 
ATOM      2  O   UNL     1      -0.400   9.964  18.531  0.00  0.00    +0.000 OA
ATOM      3  N   UNL     1       0.902   9.239  20.318  0.00  0.00    +0.000 N 
ATOM      4  H   UNL     1       0.974   9.288  21.329  0.00  0.00    +0.000 HD
ENDROOT
BRANCH   1   8
ATOM      5  C   UNL     1      -2.060  12.780  22.351  0.00  0.00    +0.000 A 
ATOM      6  C   UNL     1      -1.214  11.758  22.817  0.00  0.00    +0.000 A 
ATOM      7  C   UNL     1      -0.557  10.901  21.939  0.00  0.00    +0.000 A 
ATOM      8  C   UNL     1      -0.741  11.021  20.562  0.00  0.00    +0.000 A 
ATOM      9  C   UNL     1      -1.617  11.988  20.068  0.00  0.00    +0.000 A 
ATOM     10  C   UNL     1      -2.273  12.854  20.959  0.00  0.00    +0.000 A 
BRANCH   5  12
ATOM     11  C   UNL     1      -1.660  14.480  24.206  0.00  0.00    +0.000 C 
ATOM     12  C   UNL     1      -2.723  13.751  23.346  0.00  0.00    +0.000 C 
ATOM     13  C   UNL     1      -3.661  12.971  24.285  0.00  0.00    +0.000 C 
ATOM     14  C   UNL     1      -3.541  14.855  22.641  0.00  0.00    +0.000 C 
ENDBRANCH   5  12
ENDBRANCH   1   8
BRANCH   3  15
ATOM     15  C   UNL     1       1.684   8.251  19.678  0.00  0.00    +0.000 A 
ATOM     16  C   UNL     1       2.329   8.454  18.457  0.00  0.00    +0.000 A 
ATOM     17  C   UNL     1       3.068   7.432  17.852  0.00  0.00    +0.000 A 
ATOM     18  C   UNL     1       3.192   6.187  18.471  0.00  0.00    +0.000 A 
ATOM     19  C   UNL     1       2.622   6.010  19.737  0.00  0.00    +0.000 A 
ATOM     20  C   UNL     1       1.841   7.018  20.318  0.00  0.00    +0.000 A 
BRANCH  18  21
ATOM     21  C   UNL     1       4.036   5.158  17.807  0.00  0.00    +0.000 C 
ATOM     22  O   UNL     1       3.491   4.413  16.992  0.00  0.00    +0.000 OA
ATOM     23  N   UNL     1       5.388   5.063  18.077  0.00  0.00    +0.000 N 
ATOM     24  C   UNL     1       6.196   5.645  19.134  0.00  0.00    +0.000 C 
ATOM     25  C   UNL     1       7.511   5.883  18.414  0.00  0.00    +0.000 C 
ATOM     26  C   UNL     1       7.660   4.610  17.582  0.00  0.00    +0.000 C 
ATOM     27  C   UNL     1       6.223   4.199  17.256  0.00  0.00    +0.000 C 
ENDBRANCH  18  21
ENDBRANCH   3  15
TORSDOF 4
ENDMDL
MODEL 5
REMARK VINA RESULT:      -7.9      0.721      1.511
REMARK  Name = 
REMARK  7 active torsions:
REMARK  status: ('A' for Active; 'I' for Inactive)
REMARK    1  A    between atoms: C_1  and  C_2
REMARK    2  A    between atoms: C_2  and  C_3
REMARK    3  A    between atoms: C_2  and  C_4
REMARK    4  A    between atoms: C_2  and  C_5
REMARK    5  A    between atoms: C_8  and  C_9
REMARK    6  A    between atoms: N_11  and  C_12
REMARK    7  A    between atoms: C_15  and  C_16
REMARK                            x       y       z     vdW  Elec       q    Type
REMARK                         _______ _______ _______ _____ _____    ______ ____
ROOT
ATOM      1  C   UNL     1       0.529  11.348  21.189  0.00  0.00    +0.000 C 
ATOM      2  O   UNL     1       1.632  11.854  21.009  0.00  0.00    +0.000 OA
ATOM      3  N   UNL     1       0.109  10.118  20.726  0.00  0.00    +0.000 N 
ATOM      4  H   UNL     1      -0.879   9.899  20.799  0.00  0.00    +0.000 HD
ENDROOT
BRANCH   1   8
ATOM      5  C   UNL     1      -2.267  13.865  23.302  0.00  0.00    +0.000 A 
ATOM      6  C   UNL     1      -1.218  14.383  22.522  0.00  0.00    +0.000 A 
ATOM      7  C   UNL     1      -0.345  13.548  21.831  0.00  0.00    +0.000 A 
ATOM      8  C   UNL     1      -0.475  12.162  21.915  0.00  0.00    +0.000 A 
ATOM      9  C   UNL     1      -1.471  11.614  22.724  0.00  0.00    +0.000 A 
ATOM     10  C   UNL     1      -2.353  12.462  23.414  0.00  0.00    +0.000 A 
BRANCH   5  12
ATOM     11  C   UNL     1      -3.189  16.239  23.391  0.00  0.00    +0.000 C 
ATOM     12  C   UNL     1      -3.255  14.817  24.003  0.00  0.00    +0.000 C 
ATOM     13  C   UNL     1      -2.909  14.913  25.501  0.00  0.00    +0.000 C 
ATOM     14  C   UNL     1      -4.721  14.355  23.867  0.00  0.00    +0.000 C 
ENDBRANCH   5  12
ENDBRANCH   1   8
BRANCH   3  15
ATOM     15  C   UNL     1       0.911   9.189  20.025  0.00  0.00    +0.000 A 
ATOM     16  C   UNL     1       1.290   9.354  18.692  0.00  0.00    +0.000 A 
ATOM     17  C   UNL     1       2.060   8.388  18.036  0.00  0.00    +0.000 A 
ATOM     18  C   UNL     1       2.486   7.243  18.712  0.00  0.00    +0.000 A 
ATOM     19  C   UNL     1       2.183   7.119  20.072  0.00  0.00    +0.000 A 
ATOM     20  C   UNL     1       1.369   8.062  20.714  0.00  0.00    +0.000 A 
BRANCH  18  21
ATOM     21  C   UNL     1       3.349   6.279  17.979  0.00  0.00    +0.000 C 
ATOM     22  O   UNL     1       4.473   6.658  17.647  0.00  0.00    +0.000 OA
ATOM     23  N   UNL     1       2.913   4.996  17.708  0.00  0.00    +0.000 N 
ATOM     24  C   UNL     1       1.591   4.399  17.780  0.00  0.00    +0.000 C 
ATOM     25  C   UNL     1       1.923   2.980  18.204  0.00  0.00    +0.000 C 
ATOM     26  C   UNL     1       3.152   2.666  17.353  0.00  0.00    +0.000 C 
ATOM     27  C   UNL     1       3.853   4.015  17.188  0.00  0.00    +0.000 C 
ENDBRANCH  18  21
ENDBRANCH   3  15
TORSDOF 4
ENDMDL
MODEL 6
REMARK VINA RESULT:      -7.8      1.682      2.704
REMARK  Name = 
REMARK  7 active torsions:
REMARK  status: ('A' for Active; 'I' for Inactive)
REMARK    1  A    between atoms: C_1  and  C_2
REMARK    2  A    between atoms: C_2  and  C_3
REMARK    3  A    between atoms: C_2  and  C_4
REMARK    4  A    between atoms: C_2  and  C_5
REMARK    5  A    between atoms: C_8  and  C_9
REMARK    6  A    between atoms: N_11  and  C_12
REMARK    7  A    between atoms: C_15  and  C_16
REMARK                            x       y       z     vdW  Elec       q    Type
REMARK                         _______ _______ _______ _____ _____    ______ ____
ROOT
ATOM      1  C   UNL     1       0.925   9.627  21.568  0.00  0.00    +0.000 C 
ATOM      2  O   UNL     1       1.755   9.243  22.385  0.00  0.00    +0.000 OA
ATOM      3  N   UNL     1       0.831   9.229  20.250  0.00  0.00    +0.000 N 
ATOM      4  H   UNL     1       0.210   9.754  19.642  0.00  0.00    +0.000 HD
ENDROOT
BRANCH   1   8
ATOM      5  C   UNL     1      -1.721  12.801  22.813  0.00  0.00    +0.000 A 
ATOM      6  C   UNL     1      -0.713  12.986  21.851  0.00  0.00    +0.000 A 
ATOM      7  C   UNL     1       0.112  11.938  21.450  0.00  0.00    +0.000 A 
ATOM      8  C   UNL     1      -0.028  10.671  22.016  0.00  0.00    +0.000 A 
ATOM      9  C   UNL     1      -0.982  10.466  23.013  0.00  0.00    +0.000 A 
ATOM     10  C   UNL     1      -1.814  11.526  23.409  0.00  0.00    +0.000 A 
BRANCH   5  12
ATOM     11  C   UNL     1      -2.045  14.833  24.316  0.00  0.00    +0.000 C 
ATOM     12  C   UNL     1      -2.657  13.964  23.188  0.00  0.00    +0.000 C 
ATOM     13  C   UNL     1      -4.007  13.407  23.678  0.00  0.00    +0.000 C 
ATOM     14  C   UNL     1      -2.923  14.917  22.003  0.00  0.00    +0.000 C 
ENDBRANCH   5  12
ENDBRANCH   1   8
BRANCH   3  15
ATOM     15  C   UNL     1       1.633   8.244  19.632  0.00  0.00    +0.000 A 
ATOM     16  C   UNL     1       2.313   8.450  18.431  0.00  0.00    +0.000 A 
ATOM     17  C   UNL     1       3.070   7.429  17.846  0.00  0.00    +0.000 A 
ATOM     18  C   UNL     1       3.179   6.184  18.467  0.00  0.00    +0.000 A 
ATOM     19  C   UNL     1       2.574   6.005  19.716  0.00  0.00    +0.000 A 
ATOM     20  C   UNL     1       1.774   7.010  20.275  0.00  0.00    +0.000 A 
BRANCH  18  21
ATOM     21  C   UNL     1       4.044   5.157  17.827  0.00  0.00    +0.000 C 
ATOM     22  O   UNL     1       3.521   4.403  17.006  0.00  0.00    +0.000 OA
ATOM     23  N   UNL     1       5.391   5.074  18.124  0.00  0.00    +0.000 N 
ATOM     24  C   UNL     1       6.174   5.669  19.192  0.00  0.00    +0.000 C 
ATOM     25  C   UNL     1       7.501   5.912  18.497  0.00  0.00    +0.000 C 
ATOM     26  C   UNL     1       7.676   4.635  17.677  0.00  0.00    +0.000 C 
ATOM     27  C   UNL     1       6.249   4.212  17.325  0.00  0.00    +0.000 C 
ENDBRANCH  18  21
ENDBRANCH   3  15
TORSDOF 4
ENDMDL
MODEL 7
REMARK VINA RESULT:      -7.8      0.813      1.060
REMARK  Name = 
REMARK  7 active torsions:
REMARK  status: ('A' for Active; 'I' for Inactive)
REMARK    1  A    between atoms: C_1  and  C_2
REMARK    2  A    between atoms: C_2  and  C_3
REMARK    3  A    between atoms: C_2  and  C_4
REMARK    4  A    between atoms: C_2  and  C_5
REMARK    5  A    between atoms: C_8  and  C_9
REMARK    6  A    between atoms: N_11  and  C_12
REMARK    7  A    between atoms: C_15  and  C_16
REMARK                            x       y       z     vdW  Elec       q    Type
REMARK                         _______ _______ _______ _____ _____    ______ ____
ROOT
ATOM      1  C   UNL     1       0.302  11.065  21.179  0.00  0.00    +0.000 C 
ATOM      2  O   UNL     1       1.435  11.402  21.507  0.00  0.00    +0.000 OA
ATOM      3  N   UNL     1      -0.028  10.034  20.323  0.00  0.00    +0.000 N 
ATOM      4  H   UNL     1      -0.990   9.976  20.004  0.00  0.00    +0.000 HD
ENDROOT
BRANCH   1   8
ATOM      5  C   UNL     1      -3.022  13.297  22.789  0.00  0.00    +0.000 A 
ATOM      6  C   UNL     1      -2.477  12.174  23.435  0.00  0.00    +0.000 A 
ATOM      7  C   UNL     1      -1.388  11.486  22.906  0.00  0.00    +0.000 A 
ATOM      8  C   UNL     1      -0.821  11.884  21.696  0.00  0.00    +0.000 A 
ATOM      9  C   UNL     1      -1.372  12.961  21.000  0.00  0.00    +0.000 A 
ATOM     10  C   UNL     1      -2.467  13.654  21.543  0.00  0.00    +0.000 A 
BRANCH   5  12
ATOM     11  C   UNL     1      -3.697  14.913  24.640  0.00  0.00    +0.000 C 
ATOM     12  C   UNL     1      -4.186  14.073  23.433  0.00  0.00    +0.000 C 
ATOM     13  C   UNL     1      -5.258  13.083  23.929  0.00  0.00    +0.000 C 
ATOM     14  C   UNL     1      -4.850  15.065  22.455  0.00  0.00    +0.000 C 
ENDBRANCH   5  12
ENDBRANCH   1   8
BRANCH   3  15
ATOM     15  C   UNL     1       0.888   9.133  19.734  0.00  0.00    +0.000 A 
ATOM     16  C   UNL     1       1.444   8.050  20.416  0.00  0.00    +0.000 A 
ATOM     17  C   UNL     1       2.370   7.204  19.794  0.00  0.00    +0.000 A 
ATOM     18  C   UNL     1       2.740   7.416  18.465  0.00  0.00    +0.000 A 
ATOM     19  C   UNL     1       2.116   8.446  17.753  0.00  0.00    +0.000 A 
ATOM     20  C   UNL     1       1.228   9.323  18.392  0.00  0.00    +0.000 A 
BRANCH  18  21
ATOM     21  C   UNL     1       3.685   6.452  17.841  0.00  0.00    +0.000 C 
ATOM     22  O   UNL     1       4.799   6.870  17.522  0.00  0.00    +0.000 OA
ATOM     23  N   UNL     1       3.332   5.129  17.654  0.00  0.00    +0.000 N 
ATOM     24  C   UNL     1       2.044   4.463  17.724  0.00  0.00    +0.000 C 
ATOM     25  C   UNL     1       2.435   3.102  18.269  0.00  0.00    +0.000 C 
ATOM     26  C   UNL     1       3.714   2.796  17.491  0.00  0.00    +0.000 C 
ATOM     27  C   UNL     1       4.346   4.168  17.247  0.00  0.00    +0.000 C 
ENDBRANCH  18  21
ENDBRANCH   3  15
TORSDOF 4
ENDMDL
MODEL 8
REMARK VINA RESULT:      -7.8      0.467      1.396
REMARK  Name = 
REMARK  7 active torsions:
REMARK  status: ('A' for Active; 'I' for Inactive)
REMARK    1  A    between atoms: C_1  and  C_2
REMARK    2  A    between atoms: C_2  and  C_3
REMARK    3  A    between atoms: C_2  and  C_4
REMARK    4  A    between atoms: C_2  and  C_5
REMARK    5  A    between atoms: C_8  and  C_9
REMARK    6  A    between atoms: N_11  and  C_12
REMARK    7  A    between atoms: C_15  and  C_16
REMARK                            x       y       z     vdW  Elec       q    Type
REMARK                         _______ _______ _______ _____ _____    ______ ____
ROOT
ATOM      1  C   UNL     1       0.427  10.381  21.781  0.00  0.00    +0.000 C 
ATOM      2  O   UNL     1       1.147   9.885  22.642  0.00  0.00    +0.000 OA
ATOM      3  N   UNL     1       0.408  10.050  20.442  0.00  0.00    +0.000 N 
ATOM      4  H   UNL     1      -0.110  10.656  19.813  0.00  0.00    +0.000 HD
ENDROOT
BRANCH   1   8
ATOM      5  C   UNL     1      -2.009  13.732  22.985  0.00  0.00    +0.000 A 
ATOM      6  C   UNL     1      -0.855  13.877  22.196  0.00  0.00    +0.000 A 
ATOM      7  C   UNL     1      -0.100  12.776  21.801  0.00  0.00    +0.000 A 
ATOM      8  C   UNL     1      -0.461  11.490  22.204  0.00  0.00    +0.000 A 
ATOM      9  C   UNL     1      -1.570  11.315  23.032  0.00  0.00    +0.000 A 
ATOM     10  C   UNL     1      -2.330  12.431  23.422  0.00  0.00    +0.000 A 
BRANCH   5  12
ATOM     11  C   UNL     1      -3.273  14.935  24.843  0.00  0.00    +0.000 C 
ATOM     12  C   UNL     1      -2.858  14.965  23.351  0.00  0.00    +0.000 C 
ATOM     13  C   UNL     1      -4.134  14.990  22.488  0.00  0.00    +0.000 C 
ATOM     14  C   UNL     1      -2.097  16.292  23.140  0.00  0.00    +0.000 C 
ENDBRANCH   5  12
ENDBRANCH   1   8
BRANCH   3  15
ATOM     15  C   UNL     1       1.167   9.019  19.841  0.00  0.00    +0.000 A 
ATOM     16  C   UNL     1       1.547   7.856  20.511  0.00  0.00    +0.000 A 
ATOM     17  C   UNL     1       2.324   6.879  19.878  0.00  0.00    +0.000 A 
ATOM     18  C   UNL     1       2.718   7.041  18.549  0.00  0.00    +0.000 A 
ATOM     19  C   UNL     1       2.262   8.163  17.848  0.00  0.00    +0.000 A 
ATOM     20  C   UNL     1       1.528   9.164  18.498  0.00  0.00    +0.000 A 
BRANCH  18  21
ATOM     21  C   UNL     1       3.495   5.945  17.912  0.00  0.00    +0.000 C 
ATOM     22  O   UNL     1       4.658   6.185  17.584  0.00  0.00    +0.000 OA
ATOM     23  N   UNL     1       2.939   4.694  17.724  0.00  0.00    +0.000 N 
ATOM     24  C   UNL     1       1.563   4.237  17.804  0.00  0.00    +0.000 C 
ATOM     25  C   UNL     1       1.742   2.828  18.341  0.00  0.00    +0.000 C 
ATOM     26  C   UNL     1       2.951   2.331  17.549  0.00  0.00    +0.000 C 
ATOM     27  C   UNL     1       3.787   3.588  17.305  0.00  0.00    +0.000 C 
ENDBRANCH  18  21
ENDBRANCH   3  15
TORSDOF 4
ENDMDL
MODEL 9
REMARK VINA RESULT:      -7.8      1.285      1.679
REMARK  Name = 
REMARK  7 active torsions:
REMARK  status: ('A' for Active; 'I' for Inactive)
REMARK    1  A    between atoms: C_1  and  C_2
REMARK    2  A    between atoms: C_2  and  C_3
REMARK    3  A    between atoms: C_2  and  C_4
REMARK    4  A    between atoms: C_2  and  C_5
REMARK    5  A    between atoms: C_8  and  C_9
REMARK    6  A    between atoms: N_11  and  C_12
REMARK    7  A    between atoms: C_15  and  C_16
REMARK                            x       y       z     vdW  Elec       q    Type
REMARK                         _______ _______ _______ _____ _____    ______ ____
ROOT
ATOM      1  C   UNL     1      -0.690  10.688  19.960  0.00  0.00    +0.000 C 
ATOM      2  O   UNL     1      -1.390  10.233  19.062  0.00  0.00    +0.000 OA
ATOM      3  N   UNL     1       0.547  10.216  20.351  0.00  0.00    +0.000 N 
ATOM      4  H   UNL     1       0.936  10.575  21.217  0.00  0.00    +0.000 HD
ENDROOT
BRANCH   1   8
ATOM      5  C   UNL     1      -2.283  13.857  22.418  0.00  0.00    +0.000 A 
ATOM      6  C   UNL     1      -1.351  12.919  22.897  0.00  0.00    +0.000 A 
ATOM      7  C   UNL     1      -0.835  11.921  22.076  0.00  0.00    +0.000 A 
ATOM      8  C   UNL     1      -1.251  11.811  20.749  0.00  0.00    +0.000 A 
ATOM      9  C   UNL     1      -2.215  12.691  20.256  0.00  0.00    +0.000 A 
ATOM     10  C   UNL     1      -2.728  13.700  21.089  0.00  0.00    +0.000 A 
BRANCH   5  12
ATOM     11  C   UNL     1      -1.698  16.072  23.534  0.00  0.00    +0.000 C 
ATOM     12  C   UNL     1      -2.786  14.987  23.336  0.00  0.00    +0.000 C 
ATOM     13  C   UNL     1      -3.157  14.409  24.714  0.00  0.00    +0.000 C 
ATOM     14  C   UNL     1      -4.021  15.712  22.760  0.00  0.00    +0.000 C 
ENDBRANCH   5  12
ENDBRANCH   1   8
BRANCH   3  15
ATOM     15  C   UNL     1       1.258   9.167  19.727  0.00  0.00    +0.000 A 
ATOM     16  C   UNL     1       1.722   9.229  18.412  0.00  0.00    +0.000 A 
ATOM     17  C   UNL     1       2.396   8.149  17.832  0.00  0.00    +0.000 A 
ATOM     18  C   UNL     1       2.639   6.989  18.569  0.00  0.00    +0.000 A 
ATOM     19  C   UNL     1       2.255   6.958  19.914  0.00  0.00    +0.000 A 
ATOM     20  C   UNL     1       1.535   8.021  20.478  0.00  0.00    +0.000 A 
BRANCH  18  21
ATOM     21  C   UNL     1       3.409   5.896  17.918  0.00  0.00    +0.000 C 
ATOM     22  O   UNL     1       4.563   6.143  17.565  0.00  0.00    +0.000 OA
ATOM     23  N   UNL     1       2.856   4.641  17.743  0.00  0.00    +0.000 N 
ATOM     24  C   UNL     1       1.486   4.176  17.853  0.00  0.00    +0.000 C 
ATOM     25  C   UNL     1       1.685   2.769  18.387  0.00  0.00    +0.000 C 
ATOM     26  C   UNL     1       2.880   2.278  17.571  0.00  0.00    +0.000 C 
ATOM     27  C   UNL     1       3.702   3.541  17.306  0.00  0.00    +0.000 C 
ENDBRANCH  18  21
ENDBRANCH   3  15
TORSDOF 4
ENDMDL
