MODEL 1
REMARK VINA RESULT:      -6.4      0.000      0.000
REMARK  Name = 
REMARK  3 active torsions:
REMARK  status: ('A' for Active; 'I' for Inactive)
REMARK    1  A    between atoms: N_1  and  S_2
REMARK    2  A    between atoms: S_2  and  C_5
REMARK    3  A    between atoms: C_5  and  C_6
REMARK                            x       y       z     vdW  Elec       q    Type
REMARK                         _______ _______ _______ _____ _____    ______ ____
ROOT
ATOM      1  C   UNL     1       3.506   4.867  18.480  0.00  0.00    +0.000 A 
ATOM      2  N   UNL     1       3.917   5.257  19.696  0.00  0.00    +0.000 NA
ATOM      3  O   UNL     1       5.298   5.314  19.632  0.00  0.00    +0.000 OA
ATOM      4  C   UNL     1       5.710   4.985  18.381  0.00  0.00    +0.000 A 
ATOM      5  C   UNL     1       7.032   4.910  17.947  0.00  0.00    +0.000 A 
ATOM      6  C   UNL     1       7.225   4.538  16.613  0.00  0.00    +0.000 A 
ATOM      7  C   UNL     1       6.136   4.293  15.773  0.00  0.00    +0.000 A 
ATOM      8 CL   UNL     1       6.418   3.836  14.135  0.00  0.00    +0.000 Cl
ATOM      9  C   UNL     1       4.817   4.397  16.235  0.00  0.00    +0.000 A 
ATOM     10  C   UNL     1       4.606   4.725  17.586  0.00  0.00    +0.000 A 
ENDROOT
BRANCH   1  11
ATOM     11  C   UNL     1       2.053   4.688  18.232  0.00  0.00    +0.000 C 
BRANCH  11  12
ATOM     12  S   UNL     1       1.352   3.362  19.233  0.00  0.00    +0.000 S 
ATOM     13  O   UNL     1       0.611   2.432  18.422  0.00  0.00    +0.000 OA
ATOM     14  O   UNL     1       0.827   3.898  20.466  0.00  0.00    +0.000 OA
BRANCH  12  15
ATOM     15  N   UNL     1       2.735   2.529  19.723  0.00  0.00    +0.000 NA
ATOM     16  H   UNL     1       3.524   2.846  19.152  0.00  0.00    +0.000 HD
ATOM     17  H   UNL     1       2.590   1.521  19.643  0.00  0.00    +0.000 HD
ENDBRANCH  12  15
ENDBRANCH  11  12
ENDBRANCH   1  11
TORSDOF 3
ENDMDL
MODEL 2
REMARK VINA RESULT:      -6.4      2.429      2.952
REMARK  Name = 
REMARK  3 active torsions:
REMARK  status: ('A' for Active; 'I' for Inactive)
REMARK    1  A    between atoms: N_1  and  S_2
REMARK    2  A    between atoms: S_2  and  C_5
REMARK    3  A    between atoms: C_5  and  C_6
REMARK                            x       y       z     vdW  Elec       q    Type
REMARK                         _______ _______ _______ _____ _____    ______ ____
ROOT
ATOM      1  C   UNL     1       3.517   3.218  18.901  0.00  0.00    +0.000 A 
ATOM      2  N   UNL     1       2.665   2.940  17.903  0.00  0.00    +0.000 NA
ATOM      3  O   UNL     1       3.107   3.665  16.810  0.00  0.00    +0.000 OA
ATOM      4  C   UNL     1       4.228   4.353  17.143  0.00  0.00    +0.000 A 
ATOM      5  C   UNL     1       4.942   5.211  16.308  0.00  0.00    +0.000 A 
ATOM      6  C   UNL     1       6.067   5.825  16.868  0.00  0.00    +0.000 A 
ATOM      7  C   UNL     1       6.452   5.553  18.183  0.00  0.00    +0.000 A 
ATOM      8 CL   UNL     1       7.844   6.332  18.834  0.00  0.00    +0.000 Cl
ATOM      9  C   UNL     1       5.724   4.669  18.990  0.00  0.00    +0.000 A 
ATOM     10  C   UNL     1       4.564   4.077  18.459  0.00  0.00    +0.000 A 
ENDROOT
BRANCH   1  11
ATOM     11  C   UNL     1       3.296   2.600  20.232  0.00  0.00    +0.000 C 
BRANCH  11  12
ATOM     12  S   UNL     1       1.974   3.416  21.148  0.00  0.00    +0.000 S 
ATOM     13  O   UNL     1       2.157   4.844  21.165  0.00  0.00    +0.000 OA
ATOM     14  O   UNL     1       1.661   2.665  22.339  0.00  0.00    +0.000 OA
BRANCH  12  15
ATOM     15  N   UNL     1       0.642   3.146  20.149  0.00  0.00    +0.000 NA
ATOM     16  H   UNL     1       0.238   4.052  19.895  0.00  0.00    +0.000 HD
ATOM     17  H   UNL     1      -0.039   2.546  20.618  0.00  0.00    +0.000 HD
ENDBRANCH  12  15
ENDBRANCH  11  12
ENDBRANCH   1  11
TORSDOF 3
ENDMDL
MODEL 3
REMARK VINA RESULT:      -6.4      0.842      1.019
REMARK  Name = 
REMARK  3 active torsions:
REMARK  status: ('A' for Active; 'I' for Inactive)
REMARK    1  A    between atoms: N_1  and  S_2
REMARK    2  A    between atoms: S_2  and  C_5
REMARK    3  A    between atoms: C_5  and  C_6
REMARK                            x       y       z     vdW  Elec       q    Type
REMARK                         _______ _______ _______ _____ _____    ______ ____
ROOT
ATOM      1  C   UNL     1       3.450   4.569  18.544  0.00  0.00    +0.000 A 
ATOM      2  N   UNL     1       3.833   5.014  19.751  0.00  0.00    +0.000 NA
ATOM      3  O   UNL     1       5.199   5.217  19.667  0.00  0.00    +0.000 OA
ATOM      4  C   UNL     1       5.628   4.920  18.415  0.00  0.00    +0.000 A 
ATOM      5  C   UNL     1       6.945   4.981  17.964  0.00  0.00    +0.000 A 
ATOM      6  C   UNL     1       7.161   4.618  16.630  0.00  0.00    +0.000 A 
ATOM      7  C   UNL     1       6.094   4.249  15.807  0.00  0.00    +0.000 A 
ATOM      8 CL   UNL     1       6.403   3.809  14.170  0.00  0.00    +0.000 Cl
ATOM      9  C   UNL     1       4.777   4.218  16.286  0.00  0.00    +0.000 A 
ATOM     10  C   UNL     1       4.548   4.536  17.637  0.00  0.00    +0.000 A 
ENDROOT
BRANCH   1  11
ATOM     11  C   UNL     1       2.022   4.235  18.317  0.00  0.00    +0.000 C 
BRANCH  11  12
ATOM     12  S   UNL     1       1.620   2.566  18.871  0.00  0.00    +0.000 S 
ATOM     13  O   UNL     1       2.720   1.664  18.650  0.00  0.00    +0.000 OA
ATOM     14  O   UNL     1       0.266   2.235  18.500  0.00  0.00    +0.000 OA
BRANCH  12  15
ATOM     15  N   UNL     1       1.532   2.767  20.544  0.00  0.00    +0.000 NA
ATOM     16  H   UNL     1       1.896   1.920  20.991  0.00  0.00    +0.000 HD
ATOM     17  H   UNL     1       0.572   2.964  20.828  0.00  0.00    +0.000 HD
ENDBRANCH  12  15
ENDBRANCH  11  12
ENDBRANCH   1  11
TORSDOF 3
ENDMDL
MODEL 4
REMARK VINA RESULT:      -6.4      3.952      5.547
REMARK  Name = 
REMARK  3 active torsions:
REMARK  status: ('A' for Active; 'I' for Inactive)
REMARK    1  A    between atoms: N_1  and  S_2
REMARK    2  A    between atoms: S_2  and  C_5
REMARK    3  A    between atoms: C_5  and  C_6
REMARK                            x       y       z     vdW  Elec       q    Type
REMARK                         _______ _______ _______ _____ _____    ______ ____
ROOT
ATOM      1  C   UNL     1       4.726   5.041  17.674  0.00  0.00    +0.000 A 
ATOM      2  N   UNL     1       4.793   4.612  16.404  0.00  0.00    +0.000 NA
ATOM      3  O   UNL     1       3.985   3.491  16.336  0.00  0.00    +0.000 OA
ATOM      4  C   UNL     1       3.418   3.264  17.548  0.00  0.00    +0.000 A 
ATOM      5  C   UNL     1       2.564   2.211  17.869  0.00  0.00    +0.000 A 
ATOM      6  C   UNL     1       2.106   2.165  19.190  0.00  0.00    +0.000 A 
ATOM      7  C   UNL     1       2.472   3.151  20.109  0.00  0.00    +0.000 A 
ATOM      8 CL   UNL     1       1.886   3.058  21.727  0.00  0.00    +0.000 Cl
ATOM      9  C   UNL     1       3.317   4.210  19.749  0.00  0.00    +0.000 A 
ATOM     10  C   UNL     1       3.824   4.245  18.438  0.00  0.00    +0.000 A 
ENDROOT
BRANCH   1  11
ATOM     11  C   UNL     1       5.513   6.233  18.076  0.00  0.00    +0.000 C 
BRANCH  11  12
ATOM     12  S   UNL     1       7.277   6.017  17.767  0.00  0.00    +0.000 S 
ATOM     13  O   UNL     1       8.065   6.540  18.853  0.00  0.00    +0.000 OA
ATOM     14  O   UNL     1       7.576   6.311  16.386  0.00  0.00    +0.000 OA
BRANCH  12  15
ATOM     15  N   UNL     1       7.443   4.341  17.858  0.00  0.00    +0.000 NA
ATOM     16  H   UNL     1       8.300   4.073  17.365  0.00  0.00    +0.000 HD
ATOM     17  H   UNL     1       6.620   3.880  17.466  0.00  0.00    +0.000 HD
ENDBRANCH  12  15
ENDBRANCH  11  12
ENDBRANCH   1  11
TORSDOF 3
ENDMDL
MODEL 5
REMARK VINA RESULT:      -6.3      1.390      1.655
REMARK  Name = 
REMARK  3 active torsions:
REMARK  status: ('A' for Active; 'I' for Inactive)
REMARK    1  A    between atoms: N_1  and  S_2
REMARK    2  A    between atoms: S_2  and  C_5
REMARK    3  A    between atoms: C_5  and  C_6
REMARK                            x       y       z     vdW  Elec       q    Type
REMARK                         _______ _______ _______ _____ _____    ______ ____
ROOT
ATOM      1  C   UNL     1       4.392   3.545  18.606  0.00  0.00    +0.000 A 
ATOM      2  N   UNL     1       5.060   3.983  19.685  0.00  0.00    +0.000 NA
ATOM      3  O   UNL     1       6.225   4.556  19.205  0.00  0.00    +0.000 OA
ATOM      4  C   UNL     1       6.244   4.484  17.850  0.00  0.00    +0.000 A 
ATOM      5  C   UNL     1       7.268   4.935  17.020  0.00  0.00    +0.000 A 
ATOM      6  C   UNL     1       7.080   4.749  15.647  0.00  0.00    +0.000 A 
ATOM      7  C   UNL     1       5.907   4.169  15.158  0.00  0.00    +0.000 A 
ATOM      8 CL   UNL     1       5.715   3.956  13.458  0.00  0.00    +0.000 Cl
ATOM      9  C   UNL     1       4.886   3.744  16.018  0.00  0.00    +0.000 A 
ATOM     10  C   UNL     1       5.079   3.882  17.405  0.00  0.00    +0.000 A 
ENDROOT
BRANCH   1  11
ATOM     11  C   UNL     1       3.092   2.854  18.794  0.00  0.00    +0.000 C 
BRANCH  11  12
ATOM     12  S   UNL     1       1.700   4.000  18.743  0.00  0.00    +0.000 S 
ATOM     13  O   UNL     1       0.811   3.790  19.855  0.00  0.00    +0.000 OA
ATOM     14  O   UNL     1       1.222   4.137  17.389  0.00  0.00    +0.000 OA
BRANCH  12  15
ATOM     15  N   UNL     1       2.456   5.478  19.045  0.00  0.00    +0.000 NA
ATOM     16  H   UNL     1       2.177   6.140  18.314  0.00  0.00    +0.000 HD
ATOM     17  H   UNL     1       3.469   5.358  19.081  0.00  0.00    +0.000 HD
ENDBRANCH  12  15
ENDBRANCH  11  12
ENDBRANCH   1  11
TORSDOF 3
ENDMDL
MODEL 6
REMARK VINA RESULT:      -6.3      3.705      5.549
REMARK  Name = 
REMARK  3 active torsions:
REMARK  status: ('A' for Active; 'I' for Inactive)
REMARK    1  A    between atoms: N_1  and  S_2
REMARK    2  A    between atoms: S_2  and  C_5
REMARK    3  A    between atoms: C_5  and  C_6
REMARK                            x       y       z     vdW  Elec       q    Type
REMARK                         _______ _______ _______ _____ _____    ______ ____
ROOT
ATOM      1  C   UNL     1       4.290   4.811  17.356  0.00  0.00    +0.000 A 
ATOM      2  N   UNL     1       4.264   3.491  17.113  0.00  0.00    +0.000 NA
ATOM      3  O   UNL     1       3.370   2.953  18.022  0.00  0.00    +0.000 OA
ATOM      4  C   UNL     1       2.846   3.943  18.787  0.00  0.00    +0.000 A 
ATOM      5  C   UNL     1       1.931   3.780  19.825  0.00  0.00    +0.000 A 
ATOM      6  C   UNL     1       1.533   4.945  20.490  0.00  0.00    +0.000 A 
ATOM      7  C   UNL     1       2.017   6.194  20.095  0.00  0.00    +0.000 A 
ATOM      8 CL   UNL     1       1.502   7.605  20.940  0.00  0.00    +0.000 Cl
ATOM      9  C   UNL     1       2.921   6.328  19.033  0.00  0.00    +0.000 A 
ATOM     10  C   UNL     1       3.367   5.162  18.383  0.00  0.00    +0.000 A 
ENDROOT
BRANCH   1  11
ATOM     11  C   UNL     1       5.183   5.677  16.548  0.00  0.00    +0.000 C 
BRANCH  11  12
ATOM     12  S   UNL     1       6.922   5.427  16.957  0.00  0.00    +0.000 S 
ATOM     13  O   UNL     1       7.494   6.611  17.545  0.00  0.00    +0.000 OA
ATOM     14  O   UNL     1       7.579   4.696  15.902  0.00  0.00    +0.000 OA
BRANCH  12  15
ATOM     15  N   UNL     1       6.825   4.304  18.213  0.00  0.00    +0.000 NA
ATOM     16  H   UNL     1       7.775   4.005  18.454  0.00  0.00    +0.000 HD
ATOM     17  H   UNL     1       6.237   3.516  17.940  0.00  0.00    +0.000 HD
ENDBRANCH  12  15
ENDBRANCH  11  12
ENDBRANCH   1  11
TORSDOF 3
ENDMDL
MODEL 7
REMARK VINA RESULT:      -6.3      3.798      5.216
REMARK  Name = 
REMARK  3 active torsions:
REMARK  status: ('A' for Active; 'I' for Inactive)
REMARK    1  A    between atoms: N_1  and  S_2
REMARK    2  A    between atoms: S_2  and  C_5
REMARK    3  A    between atoms: C_5  and  C_6
REMARK                            x       y       z     vdW  Elec       q    Type
REMARK                         _______ _______ _______ _____ _____    ______ ____
ROOT
ATOM      1  C   UNL     1       6.086   5.338  18.002  0.00  0.00    +0.000 A 
ATOM      2  N   UNL     1       6.334   4.265  18.768  0.00  0.00    +0.000 NA
ATOM      3  O   UNL     1       5.227   4.114  19.583  0.00  0.00    +0.000 OA
ATOM      4  C   UNL     1       4.312   5.073  19.292  0.00  0.00    +0.000 A 
ATOM      5  C   UNL     1       3.083   5.252  19.924  0.00  0.00    +0.000 A 
ATOM      6  C   UNL     1       2.301   6.318  19.466  0.00  0.00    +0.000 A 
ATOM      7  C   UNL     1       2.736   7.123  18.411  0.00  0.00    +0.000 A 
ATOM      8 CL   UNL     1       1.742   8.426  17.877  0.00  0.00    +0.000 Cl
ATOM      9  C   UNL     1       3.969   6.903  17.782  0.00  0.00    +0.000 A 
ATOM     10  C   UNL     1       4.788   5.865  18.260  0.00  0.00    +0.000 A 
ENDROOT
BRANCH   1  11
ATOM     11  C   UNL     1       7.111   5.778  17.022  0.00  0.00    +0.000 C 
BRANCH  11  12
ATOM     12  S   UNL     1       6.727   5.231  15.347  0.00  0.00    +0.000 S 
ATOM     13  O   UNL     1       7.914   5.160  14.537  0.00  0.00    +0.000 OA
ATOM     14  O   UNL     1       5.515   5.863  14.886  0.00  0.00    +0.000 OA
BRANCH  12  15
ATOM     15  N   UNL     1       6.262   3.629  15.603  0.00  0.00    +0.000 NA
ATOM     16  H   UNL     1       5.564   3.610  16.353  0.00  0.00    +0.000 HD
ATOM     17  H   UNL     1       7.076   3.055  15.829  0.00  0.00    +0.000 HD
ENDBRANCH  12  15
ENDBRANCH  11  12
ENDBRANCH   1  11
TORSDOF 3
ENDMDL
MODEL 8
REMARK VINA RESULT:      -6.2      1.453      1.476
REMARK  Name = 
REMARK  3 active torsions:
REMARK  status: ('A' for Active; 'I' for Inactive)
REMARK    1  A    between atoms: N_1  and  S_2
REMARK    2  A    between atoms: S_2  and  C_5
REMARK    3  A    between atoms: C_5  and  C_6
REMARK                            x       y       z     vdW  Elec       q    Type
REMARK                         _______ _______ _______ _____ _____    ______ ____
ROOT
ATOM      1  C   UNL     1       4.461   3.591  18.728  0.00  0.00    +0.000 A 
ATOM      2  N   UNL     1       5.198   4.005  19.771  0.00  0.00    +0.000 NA
ATOM      3  O   UNL     1       6.346   4.558  19.231  0.00  0.00    +0.000 OA
ATOM      4  C   UNL     1       6.288   4.498  17.877  0.00  0.00    +0.000 A 
ATOM      5  C   UNL     1       7.273   4.935  16.994  0.00  0.00    +0.000 A 
ATOM      6  C   UNL     1       7.005   4.763  15.632  0.00  0.00    +0.000 A 
ATOM      7  C   UNL     1       5.795   4.212  15.205  0.00  0.00    +0.000 A 
ATOM      8 CL   UNL     1       5.504   4.018  13.518  0.00  0.00    +0.000 Cl
ATOM      9  C   UNL     1       4.814   3.801  16.118  0.00  0.00    +0.000 A 
ATOM     10  C   UNL     1       5.087   3.923  17.493  0.00  0.00    +0.000 A 
ENDROOT
BRANCH   1  11
ATOM     11  C   UNL     1       3.160   2.925  18.983  0.00  0.00    +0.000 C 
BRANCH  11  12
ATOM     12  S   UNL     1       1.770   4.058  18.795  0.00  0.00    +0.000 S 
ATOM     13  O   UNL     1       1.153   3.916  17.501  0.00  0.00    +0.000 OA
ATOM     14  O   UNL     1       2.102   5.346  19.353  0.00  0.00    +0.000 OA
BRANCH  12  15
ATOM     15  N   UNL     1       0.656   3.427  19.894  0.00  0.00    +0.000 NA
ATOM     16  H   UNL     1      -0.234   3.920  19.773  0.00  0.00    +0.000 HD
ATOM     17  H   UNL     1       1.010   3.513  20.848  0.00  0.00    +0.000 HD
ENDBRANCH  12  15
ENDBRANCH  11  12
ENDBRANCH   1  11
TORSDOF 3
ENDMDL
MODEL 9
REMARK VINA RESULT:      -6.2      3.794      5.382
REMARK  Name = 
REMARK  3 active torsions:
REMARK  status: ('A' for Active; 'I' for Inactive)
REMARK    1  A    between atoms: N_1  and  S_2
REMARK    2  A    between atoms: S_2  and  C_5
REMARK    3  A    between atoms: C_5  and  C_6
REMARK                            x       y       z     vdW  Elec       q    Type
REMARK                         _______ _______ _______ _____ _____    ______ ____
ROOT
ATOM      1  C   UNL     1       4.527   4.888  17.290  0.00  0.00    +0.000 A 
ATOM      2  N   UNL     1       4.566   3.838  18.124  0.00  0.00    +0.000 NA
ATOM      3  O   UNL     1       3.827   4.205  19.234  0.00  0.00    +0.000 OA
ATOM      4  C   UNL     1       3.328   5.455  19.057  0.00  0.00    +0.000 A 
ATOM      5  C   UNL     1       2.555   6.166  19.973  0.00  0.00    +0.000 A 
ATOM      6  C   UNL     1       2.157   7.449  19.583  0.00  0.00    +0.000 A 
ATOM      7  C   UNL     1       2.500   7.954  18.326  0.00  0.00    +0.000 A 
ATOM      8 CL   UNL     1       1.990   9.539  17.885  0.00  0.00    +0.000 Cl
ATOM      9  C   UNL     1       3.262   7.204  17.419  0.00  0.00    +0.000 A 
ATOM     10  C   UNL     1       3.709   5.930  17.814  0.00  0.00    +0.000 A 
ENDROOT
BRANCH   1  11
ATOM     11  C   UNL     1       5.255   4.812  15.999  0.00  0.00    +0.000 C 
BRANCH  11  12
ATOM     12  S   UNL     1       6.927   5.478  16.123  0.00  0.00    +0.000 S 
ATOM     13  O   UNL     1       6.932   6.755  16.787  0.00  0.00    +0.000 OA
ATOM     14  O   UNL     1       7.645   5.245  14.893  0.00  0.00    +0.000 OA
BRANCH  12  15
ATOM     15  N   UNL     1       7.648   4.405  17.208  0.00  0.00    +0.000 NA
ATOM     16  H   UNL     1       7.046   4.326  18.034  0.00  0.00    +0.000 HD
ATOM     17  H   UNL     1       8.586   4.724  17.453  0.00  0.00    +0.000 HD
ENDBRANCH  12  15
ENDBRANCH  11  12
ENDBRANCH   1  11
TORSDOF 3
ENDMDL
