MODEL 1
REMARK VINA RESULT:      -8.1      0.000      0.000
REMARK  Name = 
REMARK  10 active torsions:
REMARK  status: ('A' for Active; 'I' for Inactive)
REMARK    1  A    between atoms: C_1  and  C_2
REMARK    2  A    between atoms: C_4  and  C_5
REMARK    3  A    between atoms: C_5  and  C_6
REMARK    4  A    between atoms: C_6  and  C_7
REMARK    5  A    between atoms: C_7  and  O_8
REMARK    6  A    between atoms: O_8  and  C_9
REMARK    7  A    between atoms: C_10  and  C_11
REMARK    8  A    between atoms: C_13  and  C_14
REMARK    9  A    between atoms: C_17  and  C_18
REMARK   10  A    between atoms: C_22  and  C_23
REMARK                            x       y       z     vdW  Elec       q    Type
REMARK                         _______ _______ _______ _____ _____    ______ ____
ROOT
ATOM      1  C   UNL     1       2.596   5.763  19.086  0.00  0.00    +0.000 A 
ATOM      2  C   UNL     1       2.642   7.127  18.748  0.00  0.00    +0.000 A 
ATOM      3  C   UNL     1       3.225   7.717  17.492  0.00  0.00    +0.000 C 
ATOM      4  C   UNL     1       2.102   8.067  19.648  0.00  0.00    +0.000 A 
ATOM      5  C   UNL     1       1.455   7.687  20.829  0.00  0.00    +0.000 A 
ATOM      6  C   UNL     1       1.358   6.326  21.121  0.00  0.00    +0.000 A 
ATOM      7  C   UNL     1       1.914   5.361  20.260  0.00  0.00    +0.000 A 
ATOM      8  C   UNL     1       1.760   3.903  20.612  0.00  0.00    +0.000 C 
ENDROOT
BRANCH   5   9
ATOM      9  C   UNL     1       0.880   8.697  21.711  0.00  0.00    +0.000 A 
ATOM     10  N   UNL     1       1.565   9.279  22.712  0.00  0.00    +0.000 NA
ATOM     11  O   UNL     1       0.650  10.159  23.277  0.00  0.00    +0.000 OA
ATOM     12  C   UNL     1      -0.500  10.031  22.561  0.00  0.00    +0.000 A 
ATOM     13  N   UNL     1      -0.413   9.157  21.583  0.00  0.00    +0.000 NA
BRANCH  12  14
ATOM     14  C   UNL     1      -1.622  10.898  22.978  0.00  0.00    +0.000 C 
ATOM     15  F   UNL     1      -1.192  12.146  23.307  0.00  0.00    +0.000 F 
ENDBRANCH  12  14
ENDBRANCH   5   9
BRANCH   1  16
ATOM     16  O   UNL     1       3.117   4.718  18.361  0.00  0.00    +0.000 OA
BRANCH  16  17
ATOM     17  C   UNL     1       4.424   4.262  18.692  0.00  0.00    +0.000 C 
BRANCH  17  18
ATOM     18  C   UNL     1       5.417   5.411  18.593  0.00  0.00    +0.000 C 
BRANCH  18  19
ATOM     19  C   UNL     1       6.768   4.890  18.105  0.00  0.00    +0.000 C 
BRANCH  19  23
ATOM     20  C   UNL     1       6.165   3.777  13.178  0.00  0.00    +0.000 C 
ATOM     21  C   UNL     1       6.552   4.317  14.495  0.00  0.00    +0.000 A 
ATOM     22  C   UNL     1       6.161   3.865  15.772  0.00  0.00    +0.000 A 
ATOM     23  C   UNL     1       6.773   4.738  16.638  0.00  0.00    +0.000 A 
ATOM     24  O   UNL     1       7.503   5.639  15.929  0.00  0.00    +0.000 OA
ATOM     25  N   UNL     1       7.367   5.376  14.578  0.00  0.00    +0.000 NA
ENDBRANCH  19  23
ENDBRANCH  18  19
ENDBRANCH  17  18
ENDBRANCH  16  17
ENDBRANCH   1  16
TORSDOF 7
ENDMDL
MODEL 2
REMARK VINA RESULT:      -7.9      2.071      2.243
REMARK  Name = 
REMARK  10 active torsions:
REMARK  status: ('A' for Active; 'I' for Inactive)
REMARK    1  A    between atoms: C_1  and  C_2
REMARK    2  A    between atoms: C_4  and  C_5
REMARK    3  A    between atoms: C_5  and  C_6
REMARK    4  A    between atoms: C_6  and  C_7
REMARK    5  A    between atoms: C_7  and  O_8
REMARK    6  A    between atoms: O_8  and  C_9
REMARK    7  A    between atoms: C_10  and  C_11
REMARK    8  A    between atoms: C_13  and  C_14
REMARK    9  A    between atoms: C_17  and  C_18
REMARK   10  A    between atoms: C_22  and  C_23
REMARK                            x       y       z     vdW  Elec       q    Type
REMARK                         _______ _______ _______ _____ _____    ______ ____
ROOT
ATOM      1  C   UNL     1       3.532   5.679  18.532  0.00  0.00    +0.000 A 
ATOM      2  C   UNL     1       3.624   6.775  17.656  0.00  0.00    +0.000 A 
ATOM      3  C   UNL     1       4.425   6.837  16.384  0.00  0.00    +0.000 C 
ATOM      4  C   UNL     1       2.911   7.951  17.966  0.00  0.00    +0.000 A 
ATOM      5  C   UNL     1       2.058   8.041  19.071  0.00  0.00    +0.000 A 
ATOM      6  C   UNL     1       1.925   6.925  19.896  0.00  0.00    +0.000 A 
ATOM      7  C   UNL     1       2.645   5.743  19.635  0.00  0.00    +0.000 A 
ATOM      8  C   UNL     1       2.446   4.558  20.546  0.00  0.00    +0.000 C 
ENDROOT
BRANCH   5   9
ATOM      9  C   UNL     1       1.316   9.271  19.328  0.00  0.00    +0.000 A 
ATOM     10  N   UNL     1       0.981   9.687  20.562  0.00  0.00    +0.000 NA
ATOM     11  O   UNL     1       0.298  10.876  20.341  0.00  0.00    +0.000 OA
ATOM     12  C   UNL     1       0.289  11.072  18.995  0.00  0.00    +0.000 A 
ATOM     13  N   UNL     1       0.907  10.124  18.326  0.00  0.00    +0.000 NA
BRANCH  12  14
ATOM     14  C   UNL     1      -0.378  12.303  18.523  0.00  0.00    +0.000 C 
ATOM     15  F   UNL     1      -1.431  12.019  17.710  0.00  0.00    +0.000 F 
ENDBRANCH  12  14
ENDBRANCH   5   9
BRANCH   1  16
ATOM     16  O   UNL     1       4.193   4.479  18.421  0.00  0.00    +0.000 OA
BRANCH  16  17
ATOM     17  C   UNL     1       5.386   4.301  19.176  0.00  0.00    +0.000 C 
BRANCH  17  18
ATOM     18  C   UNL     1       6.370   5.419  18.865  0.00  0.00    +0.000 C 
BRANCH  18  19
ATOM     19  C   UNL     1       7.565   4.860  18.095  0.00  0.00    +0.000 C 
BRANCH  19  23
ATOM     20  C   UNL     1       6.004   3.792  13.374  0.00  0.00    +0.000 C 
ATOM     21  C   UNL     1       6.609   4.348  14.598  0.00  0.00    +0.000 A 
ATOM     22  C   UNL     1       6.577   3.819  15.904  0.00  0.00    +0.000 A 
ATOM     23  C   UNL     1       7.257   4.744  16.658  0.00  0.00    +0.000 A 
ATOM     24  O   UNL     1       7.691   5.749  15.853  0.00  0.00    +0.000 OA
ATOM     25  N   UNL     1       7.286   5.503  14.554  0.00  0.00    +0.000 NA
ENDBRANCH  19  23
ENDBRANCH  18  19
ENDBRANCH  17  18
ENDBRANCH  16  17
ENDBRANCH   1  16
TORSDOF 7
ENDMDL
MODEL 3
REMARK VINA RESULT:      -7.8      2.020      2.268
REMARK  Name = 
REMARK  10 active torsions:
REMARK  status: ('A' for Active; 'I' for Inactive)
REMARK    1  A    between atoms: C_1  and  C_2
REMARK    2  A    between atoms: C_4  and  C_5
REMARK    3  A    between atoms: C_5  and  C_6
REMARK    4  A    between atoms: C_6  and  C_7
REMARK    5  A    between atoms: C_7  and  O_8
REMARK    6  A    between atoms: O_8  and  C_9
REMARK    7  A    between atoms: C_10  and  C_11
REMARK    8  A    between atoms: C_13  and  C_14
REMARK    9  A    between atoms: C_17  and  C_18
REMARK   10  A    between atoms: C_22  and  C_23
REMARK                            x       y       z     vdW  Elec       q    Type
REMARK                         _______ _______ _______ _____ _____    ______ ____
ROOT
ATOM      1  C   UNL     1       3.676   6.173  18.490  0.00  0.00    +0.000 A 
ATOM      2  C   UNL     1       3.749   7.163  17.494  0.00  0.00    +0.000 A 
ATOM      3  C   UNL     1       4.595   7.119  16.250  0.00  0.00    +0.000 C 
ATOM      4  C   UNL     1       2.969   8.329  17.639  0.00  0.00    +0.000 A 
ATOM      5  C   UNL     1       2.071   8.502  18.696  0.00  0.00    +0.000 A 
ATOM      6  C   UNL     1       1.959   7.484  19.643  0.00  0.00    +0.000 A 
ATOM      7  C   UNL     1       2.745   6.319  19.547  0.00  0.00    +0.000 A 
ATOM      8  C   UNL     1       2.567   5.239  20.584  0.00  0.00    +0.000 C 
ENDROOT
BRANCH   5   9
ATOM      9  C   UNL     1       1.261   9.713  18.782  0.00  0.00    +0.000 A 
ATOM     10  N   UNL     1       1.719  10.933  18.454  0.00  0.00    +0.000 NA
ATOM     11  O   UNL     1       0.635  11.772  18.682  0.00  0.00    +0.000 OA
ATOM     12  C   UNL     1      -0.379  10.979  19.122  0.00  0.00    +0.000 A 
ATOM     13  N   UNL     1      -0.055   9.707  19.193  0.00  0.00    +0.000 NA
BRANCH  12  14
ATOM     14  C   UNL     1      -1.656  11.663  19.415  0.00  0.00    +0.000 C 
ATOM     15  F   UNL     1      -1.741  12.017  20.726  0.00  0.00    +0.000 F 
ENDBRANCH  12  14
ENDBRANCH   5   9
BRANCH   1  16
ATOM     16  O   UNL     1       4.397   5.005  18.542  0.00  0.00    +0.000 OA
BRANCH  16  17
ATOM     17  C   UNL     1       5.620   5.007  19.271  0.00  0.00    +0.000 C 
BRANCH  17  18
ATOM     18  C   UNL     1       6.720   5.652  18.439  0.00  0.00    +0.000 C 
BRANCH  18  19
ATOM     19  C   UNL     1       7.510   4.574  17.699  0.00  0.00    +0.000 C 
BRANCH  19  23
ATOM     20  C   UNL     1       5.616   3.792  13.043  0.00  0.00    +0.000 C 
ATOM     21  C   UNL     1       6.341   4.248  14.244  0.00  0.00    +0.000 A 
ATOM     22  C   UNL     1       6.303   3.702  15.544  0.00  0.00    +0.000 A 
ATOM     23  C   UNL     1       7.125   4.523  16.277  0.00  0.00    +0.000 A 
ATOM     24  O   UNL     1       7.643   5.482  15.465  0.00  0.00    +0.000 OA
ATOM     25  N   UNL     1       7.152   5.311  14.183  0.00  0.00    +0.000 NA
ENDBRANCH  19  23
ENDBRANCH  18  19
ENDBRANCH  17  18
ENDBRANCH  16  17
ENDBRANCH   1  16
TORSDOF 7
ENDMDL
MODEL 4
REMARK VINA RESULT:      -7.8      1.771      2.525
REMARK  Name = 
REMARK  10 active torsions:
REMARK  status: ('A' for Active; 'I' for Inactive)
REMARK    1  A    between atoms: C_1  and  C_2
REMARK    2  A    between atoms: C_4  and  C_5
REMARK    3  A    between atoms: C_5  and  C_6
REMARK    4  A    between atoms: C_6  and  C_7
REMARK    5  A    between atoms: C_7  and  O_8
REMARK    6  A    between atoms: O_8  and  C_9
REMARK    7  A    between atoms: C_10  and  C_11
REMARK    8  A    between atoms: C_13  and  C_14
REMARK    9  A    between atoms: C_17  and  C_18
REMARK   10  A    between atoms: C_22  and  C_23
REMARK                            x       y       z     vdW  Elec       q    Type
REMARK                         _______ _______ _______ _____ _____    ______ ____
ROOT
ATOM      1  C   UNL     1       2.991   5.581  18.911  0.00  0.00    +0.000 A 
ATOM      2  C   UNL     1       3.023   6.856  18.319  0.00  0.00    +0.000 A 
ATOM      3  C   UNL     1       3.694   7.223  17.023  0.00  0.00    +0.000 C 
ATOM      4  C   UNL     1       2.375   7.923  18.973  0.00  0.00    +0.000 A 
ATOM      5  C   UNL     1       1.639   7.745  20.149  0.00  0.00    +0.000 A 
ATOM      6  C   UNL     1       1.560   6.462  20.692  0.00  0.00    +0.000 A 
ATOM      7  C   UNL     1       2.221   5.378  20.082  0.00  0.00    +0.000 A 
ATOM      8  C   UNL     1       2.083   4.008  20.698  0.00  0.00    +0.000 C 
ENDROOT
BRANCH   5   9
ATOM      9  C   UNL     1       0.957   8.876  20.769  0.00  0.00    +0.000 A 
ATOM     10  N   UNL     1       0.927  10.107  20.228  0.00  0.00    +0.000 NA
ATOM     11  O   UNL     1       0.184  10.853  21.135  0.00  0.00    +0.000 OA
ATOM     12  C   UNL     1      -0.171  10.003  22.135  0.00  0.00    +0.000 A 
ATOM     13  N   UNL     1       0.267   8.776  21.958  0.00  0.00    +0.000 NA
BRANCH  12  14
ATOM     14  C   UNL     1      -0.993  10.583  23.217  0.00  0.00    +0.000 C 
ATOM     15  F   UNL     1      -1.407  11.842  22.908  0.00  0.00    +0.000 F 
ENDBRANCH  12  14
ENDBRANCH   5   9
BRANCH   1  16
ATOM     16  O   UNL     1       3.607   4.443  18.448  0.00  0.00    +0.000 OA
BRANCH  16  17
ATOM     17  C   UNL     1       4.980   4.250  18.768  0.00  0.00    +0.000 C 
BRANCH  17  18
ATOM     18  C   UNL     1       5.821   4.288  17.500  0.00  0.00    +0.000 C 
BRANCH  18  19
ATOM     19  C   UNL     1       7.277   4.591  17.850  0.00  0.00    +0.000 C 
BRANCH  19  23
ATOM     20  C   UNL     1       8.653   9.440  18.530  0.00  0.00    +0.000 C 
ATOM     21  C   UNL     1       8.092   8.153  18.079  0.00  0.00    +0.000 A 
ATOM     22  C   UNL     1       8.185   6.894  18.706  0.00  0.00    +0.000 A 
ATOM     23  C   UNL     1       7.526   6.044  17.852  0.00  0.00    +0.000 A 
ATOM     24  O   UNL     1       7.047   6.751  16.795  0.00  0.00    +0.000 OA
ATOM     25  N   UNL     1       7.400   8.081  16.934  0.00  0.00    +0.000 NA
ENDBRANCH  19  23
ENDBRANCH  18  19
ENDBRANCH  17  18
ENDBRANCH  16  17
ENDBRANCH   1  16
TORSDOF 7
ENDMDL
MODEL 5
REMARK VINA RESULT:      -7.8      1.101      2.064
REMARK  Name = 
REMARK  10 active torsions:
REMARK  status: ('A' for Active; 'I' for Inactive)
REMARK    1  A    between atoms: C_1  and  C_2
REMARK    2  A    between atoms: C_4  and  C_5
REMARK    3  A    between atoms: C_5  and  C_6
REMARK    4  A    between atoms: C_6  and  C_7
REMARK    5  A    between atoms: C_7  and  O_8
REMARK    6  A    between atoms: O_8  and  C_9
REMARK    7  A    between atoms: C_10  and  C_11
REMARK    8  A    between atoms: C_13  and  C_14
REMARK    9  A    between atoms: C_17  and  C_18
REMARK   10  A    between atoms: C_22  and  C_23
REMARK                            x       y       z     vdW  Elec       q    Type
REMARK                         _______ _______ _______ _____ _____    ______ ____
ROOT
ATOM      1  C   UNL     1       3.124   5.515  18.928  0.00  0.00    +0.000 A 
ATOM      2  C   UNL     1       2.445   5.377  20.152  0.00  0.00    +0.000 A 
ATOM      3  C   UNL     1       2.381   4.139  21.004  0.00  0.00    +0.000 C 
ATOM      4  C   UNL     1       1.740   6.486  20.664  0.00  0.00    +0.000 A 
ATOM      5  C   UNL     1       1.755   7.737  20.039  0.00  0.00    +0.000 A 
ATOM      6  C   UNL     1       2.486   7.878  18.859  0.00  0.00    +0.000 A 
ATOM      7  C   UNL     1       3.176   6.784  18.302  0.00  0.00    +0.000 A 
ATOM      8  C   UNL     1       3.970   6.998  17.038  0.00  0.00    +0.000 C 
ENDROOT
BRANCH   5   9
ATOM      9  C   UNL     1       1.037   8.862  20.629  0.00  0.00    +0.000 A 
ATOM     10  N   UNL     1       0.477   8.823  21.850  0.00  0.00    +0.000 NA
ATOM     11  O   UNL     1      -0.086  10.084  22.002  0.00  0.00    +0.000 OA
ATOM     12  C   UNL     1       0.192  10.770  20.861  0.00  0.00    +0.000 A 
ATOM     13  N   UNL     1       0.886  10.074  19.989  0.00  0.00    +0.000 NA
BRANCH  12  14
ATOM     14  C   UNL     1      -0.301  12.162  20.806  0.00  0.00    +0.000 C 
ATOM     15  F   UNL     1      -0.326  12.731  22.042  0.00  0.00    +0.000 F 
ENDBRANCH  12  14
ENDBRANCH   5   9
BRANCH   1  16
ATOM     16  O   UNL     1       3.813   4.535  18.255  0.00  0.00    +0.000 OA
BRANCH  16  17
ATOM     17  C   UNL     1       5.019   4.049  18.834  0.00  0.00    +0.000 C 
BRANCH  17  18
ATOM     18  C   UNL     1       6.063   5.155  18.868  0.00  0.00    +0.000 C 
BRANCH  18  19
ATOM     19  C   UNL     1       7.320   4.706  18.124  0.00  0.00    +0.000 C 
BRANCH  19  23
ATOM     20  C   UNL     1       5.924   3.852  13.308  0.00  0.00    +0.000 C 
ATOM     21  C   UNL     1       6.505   4.337  14.573  0.00  0.00    +0.000 A 
ATOM     22  C   UNL     1       6.371   3.784  15.863  0.00  0.00    +0.000 A 
ATOM     23  C   UNL     1       7.076   4.642  16.671  0.00  0.00    +0.000 A 
ATOM     24  O   UNL     1       7.619   5.631  15.913  0.00  0.00    +0.000 OA
ATOM     25  N   UNL     1       7.263   5.442  14.590  0.00  0.00    +0.000 NA
ENDBRANCH  19  23
ENDBRANCH  18  19
ENDBRANCH  17  18
ENDBRANCH  16  17
ENDBRANCH   1  16
TORSDOF 7
ENDMDL
MODEL 6
REMARK VINA RESULT:      -7.7      1.656      2.959
REMARK  Name = 
REMARK  10 active torsions:
REMARK  status: ('A' for Active; 'I' for Inactive)
REMARK    1  A    between atoms: C_1  and  C_2
REMARK    2  A    between atoms: C_4  and  C_5
REMARK    3  A    between atoms: C_5  and  C_6
REMARK    4  A    between atoms: C_6  and  C_7
REMARK    5  A    between atoms: C_7  and  O_8
REMARK    6  A    between atoms: O_8  and  C_9
REMARK    7  A    between atoms: C_10  and  C_11
REMARK    8  A    between atoms: C_13  and  C_14
REMARK    9  A    between atoms: C_17  and  C_18
REMARK   10  A    between atoms: C_22  and  C_23
REMARK                            x       y       z     vdW  Elec       q    Type
REMARK                         _______ _______ _______ _____ _____    ______ ____
ROOT
ATOM      1  C   UNL     1       2.606   5.936  19.126  0.00  0.00    +0.000 A 
ATOM      2  C   UNL     1       2.010   5.699  20.378  0.00  0.00    +0.000 A 
ATOM      3  C   UNL     1       1.958   4.386  21.109  0.00  0.00    +0.000 C 
ATOM      4  C   UNL     1       1.386   6.773  21.044  0.00  0.00    +0.000 A 
ATOM      5  C   UNL     1       1.404   8.079  20.543  0.00  0.00    +0.000 A 
ATOM      6  C   UNL     1       2.056   8.313  19.332  0.00  0.00    +0.000 A 
ATOM      7  C   UNL     1       2.664   7.258  18.623  0.00  0.00    +0.000 A 
ATOM      8  C   UNL     1       3.375   7.571  17.331  0.00  0.00    +0.000 C 
ENDROOT
BRANCH   5   9
ATOM      9  C   UNL     1       0.773   9.163  21.289  0.00  0.00    +0.000 A 
ATOM     10  N   UNL     1       1.028   9.413  22.586  0.00  0.00    +0.000 NA
ATOM     11  O   UNL     1       0.227  10.509  22.879  0.00  0.00    +0.000 OA
ATOM     12  C   UNL     1      -0.433  10.823  21.732  0.00  0.00    +0.000 A 
ATOM     13  N   UNL     1      -0.129  10.037  20.723  0.00  0.00    +0.000 NA
BRANCH  12  14
ATOM     14  C   UNL     1      -1.341  11.987  21.804  0.00  0.00    +0.000 C 
ATOM     15  F   UNL     1      -2.353  11.885  20.900  0.00  0.00    +0.000 F 
ENDBRANCH  12  14
ENDBRANCH   5   9
BRANCH   1  16
ATOM     16  O   UNL     1       3.209   5.006  18.314  0.00  0.00    +0.000 OA
BRANCH  16  17
ATOM     17  C   UNL     1       4.566   4.668  18.577  0.00  0.00    +0.000 C 
BRANCH  17  18
ATOM     18  C   UNL     1       5.270   4.293  17.281  0.00  0.00    +0.000 C 
BRANCH  18  19
ATOM     19  C   UNL     1       6.783   4.401  17.463  0.00  0.00    +0.000 C 
BRANCH  19  23
ATOM     20  C   UNL     1       8.647   8.973  18.688  0.00  0.00    +0.000 C 
ATOM     21  C   UNL     1       7.978   7.807  18.081  0.00  0.00    +0.000 A 
ATOM     22  C   UNL     1       7.883   6.495  18.589  0.00  0.00    +0.000 A 
ATOM     23  C   UNL     1       7.195   5.808  17.618  0.00  0.00    +0.000 A 
ATOM     24  O   UNL     1       6.876   6.658  16.607  0.00  0.00    +0.000 OA
ATOM     25  N   UNL     1       7.367   7.918  16.895  0.00  0.00    +0.000 NA
ENDBRANCH  19  23
ENDBRANCH  18  19
ENDBRANCH  17  18
ENDBRANCH  16  17
ENDBRANCH   1  16
TORSDOF 7
ENDMDL
MODEL 7
REMARK VINA RESULT:      -7.7      0.638      1.860
REMARK  Name = 
REMARK  10 active torsions:
REMARK  status: ('A' for Active; 'I' for Inactive)
REMARK    1  A    between atoms: C_1  and  C_2
REMARK    2  A    between atoms: C_4  and  C_5
REMARK    3  A    between atoms: C_5  and  C_6
REMARK    4  A    between atoms: C_6  and  C_7
REMARK    5  A    between atoms: C_7  and  O_8
REMARK    6  A    between atoms: O_8  and  C_9
REMARK    7  A    between atoms: C_10  and  C_11
REMARK    8  A    between atoms: C_13  and  C_14
REMARK    9  A    between atoms: C_17  and  C_18
REMARK   10  A    between atoms: C_22  and  C_23
REMARK                            x       y       z     vdW  Elec       q    Type
REMARK                         _______ _______ _______ _____ _____    ______ ____
ROOT
ATOM      1  C   UNL     1       2.596   6.360  18.909  0.00  0.00    +0.000 A 
ATOM      2  C   UNL     1       2.186   5.970  20.196  0.00  0.00    +0.000 A 
ATOM      3  C   UNL     1       2.371   4.614  20.821  0.00  0.00    +0.000 C 
ATOM      4  C   UNL     1       1.531   6.914  21.013  0.00  0.00    +0.000 A 
ATOM      5  C   UNL     1       1.342   8.242  20.619  0.00  0.00    +0.000 A 
ATOM      6  C   UNL     1       1.811   8.634  19.365  0.00  0.00    +0.000 A 
ATOM      7  C   UNL     1       2.443   7.710  18.510  0.00  0.00    +0.000 A 
ATOM      8  C   UNL     1       2.952   8.191  17.175  0.00  0.00    +0.000 C 
ENDROOT
BRANCH   5   9
ATOM      9  C   UNL     1       0.688   9.190  21.516  0.00  0.00    +0.000 A 
ATOM     10  N   UNL     1       1.045   9.355  22.803  0.00  0.00    +0.000 NA
ATOM     11  O   UNL     1       0.177  10.336  23.267  0.00  0.00    +0.000 OA
ATOM     12  C   UNL     1      -0.618  10.676  22.218  0.00  0.00    +0.000 A 
ATOM     13  N   UNL     1      -0.343  10.012  21.117  0.00  0.00    +0.000 NA
BRANCH  12  14
ATOM     14  C   UNL     1      -1.620  11.730  22.479  0.00  0.00    +0.000 C 
ATOM     15  F   UNL     1      -1.308  12.449  23.592  0.00  0.00    +0.000 F 
ENDBRANCH  12  14
ENDBRANCH   5   9
BRANCH   1  16
ATOM     16  O   UNL     1       3.196   5.565  17.961  0.00  0.00    +0.000 OA
BRANCH  16  17
ATOM     17  C   UNL     1       4.574   5.783  17.683  0.00  0.00    +0.000 C 
BRANCH  17  18
ATOM     18  C   UNL     1       5.433   4.937  18.610  0.00  0.00    +0.000 C 
BRANCH  18  19
ATOM     19  C   UNL     1       6.851   4.829  18.052  0.00  0.00    +0.000 C 
BRANCH  19  23
ATOM     20  C   UNL     1       6.186   3.719  13.133  0.00  0.00    +0.000 C 
ATOM     21  C   UNL     1       6.577   4.270  14.444  0.00  0.00    +0.000 A 
ATOM     22  C   UNL     1       6.239   3.791  15.726  0.00  0.00    +0.000 A 
ATOM     23  C   UNL     1       6.829   4.687  16.585  0.00  0.00    +0.000 A 
ATOM     24  O   UNL     1       7.498   5.626  15.866  0.00  0.00    +0.000 OA
ATOM     25  N   UNL     1       7.343   5.366  14.516  0.00  0.00    +0.000 NA
ENDBRANCH  19  23
ENDBRANCH  18  19
ENDBRANCH  17  18
ENDBRANCH  16  17
ENDBRANCH   1  16
TORSDOF 7
ENDMDL
MODEL 8
REMARK VINA RESULT:      -7.7      0.998      1.076
REMARK  Name = 
REMARK  10 active torsions:
REMARK  status: ('A' for Active; 'I' for Inactive)
REMARK    1  A    between atoms: C_1  and  C_2
REMARK    2  A    between atoms: C_4  and  C_5
REMARK    3  A    between atoms: C_5  and  C_6
REMARK    4  A    between atoms: C_6  and  C_7
REMARK    5  A    between atoms: C_7  and  O_8
REMARK    6  A    between atoms: O_8  and  C_9
REMARK    7  A    between atoms: C_10  and  C_11
REMARK    8  A    between atoms: C_13  and  C_14
REMARK    9  A    between atoms: C_17  and  C_18
REMARK   10  A    between atoms: C_22  and  C_23
REMARK                            x       y       z     vdW  Elec       q    Type
REMARK                         _______ _______ _______ _____ _____    ______ ____
ROOT
ATOM      1  C   UNL     1       3.107   5.335  19.136  0.00  0.00    +0.000 A 
ATOM      2  C   UNL     1       3.105   6.525  18.387  0.00  0.00    +0.000 A 
ATOM      3  C   UNL     1       3.755   6.739  17.047  0.00  0.00    +0.000 C 
ATOM      4  C   UNL     1       2.440   7.653  18.909  0.00  0.00    +0.000 A 
ATOM      5  C   UNL     1       1.720   7.610  20.107  0.00  0.00    +0.000 A 
ATOM      6  C   UNL     1       1.675   6.405  20.809  0.00  0.00    +0.000 A 
ATOM      7  C   UNL     1       2.353   5.266  20.333  0.00  0.00    +0.000 A 
ATOM      8  C   UNL     1       2.253   3.983  21.118  0.00  0.00    +0.000 C 
ENDROOT
BRANCH   5   9
ATOM      9  C   UNL     1       1.020   8.797  20.588  0.00  0.00    +0.000 A 
ATOM     10  N   UNL     1       0.936   9.940  19.886  0.00  0.00    +0.000 NA
ATOM     11  O   UNL     1       0.195  10.783  20.704  0.00  0.00    +0.000 OA
ATOM     12  C   UNL     1      -0.106  10.069  21.822  0.00  0.00    +0.000 A 
ATOM     13  N   UNL     1       0.366   8.842  21.801  0.00  0.00    +0.000 NA
BRANCH  12  14
ATOM     14  C   UNL     1      -0.917  10.769  22.840  0.00  0.00    +0.000 C 
ATOM     15  F   UNL     1      -1.475  11.903  22.338  0.00  0.00    +0.000 F 
ENDBRANCH  12  14
ENDBRANCH   5   9
BRANCH   1  16
ATOM     16  O   UNL     1       3.744   4.161  18.812  0.00  0.00    +0.000 OA
BRANCH  16  17
ATOM     17  C   UNL     1       5.113   4.022  19.174  0.00  0.00    +0.000 C 
BRANCH  17  18
ATOM     18  C   UNL     1       5.816   5.368  19.079  0.00  0.00    +0.000 C 
BRANCH  18  19
ATOM     19  C   UNL     1       7.186   5.193  18.426  0.00  0.00    +0.000 C 
BRANCH  19  23
ATOM     20  C   UNL     1       6.138   3.896  13.621  0.00  0.00    +0.000 C 
ATOM     21  C   UNL     1       6.636   4.491  14.874  0.00  0.00    +0.000 A 
ATOM     22  C   UNL     1       6.385   4.073  16.197  0.00  0.00    +0.000 A 
ATOM     23  C   UNL     1       7.053   4.990  16.971  0.00  0.00    +0.000 A 
ATOM     24  O   UNL     1       7.685   5.884  16.166  0.00  0.00    +0.000 OA
ATOM     25  N   UNL     1       7.426   5.572  14.844  0.00  0.00    +0.000 NA
ENDBRANCH  19  23
ENDBRANCH  18  19
ENDBRANCH  17  18
ENDBRANCH  16  17
ENDBRANCH   1  16
TORSDOF 7
ENDMDL
MODEL 9
REMARK VINA RESULT:      -7.5      1.070      1.286
REMARK  Name = 
REMARK  10 active torsions:
REMARK  status: ('A' for Active; 'I' for Inactive)
REMARK    1  A    between atoms: C_1  and  C_2
REMARK    2  A    between atoms: C_4  and  C_5
REMARK    3  A    between atoms: C_5  and  C_6
REMARK    4  A    between atoms: C_6  and  C_7
REMARK    5  A    between atoms: C_7  and  O_8
REMARK    6  A    between atoms: O_8  and  C_9
REMARK    7  A    between atoms: C_10  and  C_11
REMARK    8  A    between atoms: C_13  and  C_14
REMARK    9  A    between atoms: C_17  and  C_18
REMARK   10  A    between atoms: C_22  and  C_23
REMARK                            x       y       z     vdW  Elec       q    Type
REMARK                         _______ _______ _______ _____ _____    ______ ____
ROOT
ATOM      1  C   UNL     1       2.936   5.785  19.265  0.00  0.00    +0.000 A 
ATOM      2  C   UNL     1       2.958   7.026  18.604  0.00  0.00    +0.000 A 
ATOM      3  C   UNL     1       3.699   7.350  17.335  0.00  0.00    +0.000 C 
ATOM      4  C   UNL     1       2.227   8.099  19.153  0.00  0.00    +0.000 A 
ATOM      5  C   UNL     1       1.422   7.954  20.287  0.00  0.00    +0.000 A 
ATOM      6  C   UNL     1       1.357   6.701  20.897  0.00  0.00    +0.000 A 
ATOM      7  C   UNL     1       2.098   5.614  20.394  0.00  0.00    +0.000 A 
ATOM      8  C   UNL     1       1.973   4.275  21.077  0.00  0.00    +0.000 C 
ENDROOT
BRANCH   5   9
ATOM      9  C   UNL     1       0.657   9.088  20.796  0.00  0.00    +0.000 A 
ATOM     10  N   UNL     1       0.415  10.198  20.077  0.00  0.00    +0.000 NA
ATOM     11  O   UNL     1      -0.333  10.996  20.934  0.00  0.00    +0.000 OA
ATOM     12  C   UNL     1      -0.478  10.292  22.089  0.00  0.00    +0.000 A 
ATOM     13  N   UNL     1       0.100   9.111  22.057  0.00  0.00    +0.000 NA
BRANCH  12  14
ATOM     14  C   UNL     1      -1.266  10.948  23.154  0.00  0.00    +0.000 C 
ATOM     15  F   UNL     1      -2.321  11.635  22.640  0.00  0.00    +0.000 F 
ENDBRANCH  12  14
ENDBRANCH   5   9
BRANCH   1  16
ATOM     16  O   UNL     1       3.625   4.651  18.908  0.00  0.00    +0.000 OA
BRANCH  16  17
ATOM     17  C   UNL     1       5.026   4.616  19.153  0.00  0.00    +0.000 C 
BRANCH  17  18
ATOM     18  C   UNL     1       5.738   3.907  18.010  0.00  0.00    +0.000 C 
BRANCH  18  19
ATOM     19  C   UNL     1       4.935   4.066  16.720  0.00  0.00    +0.000 C 
BRANCH  19  23
ATOM     20  C   UNL     1       7.404   4.685  12.317  0.00  0.00    +0.000 C 
ATOM     21  C   UNL     1       6.932   4.682  13.714  0.00  0.00    +0.000 A 
ATOM     22  C   UNL     1       5.833   3.988  14.261  0.00  0.00    +0.000 A 
ATOM     23  C   UNL     1       5.822   4.365  15.582  0.00  0.00    +0.000 A 
ATOM     24  O   UNL     1       6.861   5.208  15.818  0.00  0.00    +0.000 OA
ATOM     25  N   UNL     1       7.564   5.410  14.644  0.00  0.00    +0.000 NA
ENDBRANCH  19  23
ENDBRANCH  18  19
ENDBRANCH  17  18
ENDBRANCH  16  17
ENDBRANCH   1  16
TORSDOF 7
ENDMDL
