MODEL 1
REMARK VINA RESULT:      -7.1      0.000      0.000
REMARK  Name = 
REMARK  6 active torsions:
REMARK  status: ('A' for Active; 'I' for Inactive)
REMARK    1  A    between atoms: C_1  and  C_2
REMARK    2  A    between atoms: C_2  and  C_11
REMARK    3  A    between atoms: C_3  and  C_4
REMARK    4  A    between atoms: C_7  and  O_8
REMARK    5  A    between atoms: C_13  and  O_14
REMARK    6  A    between atoms: C_16  and  O_17
REMARK                            x       y       z     vdW  Elec       q    Type
REMARK                         _______ _______ _______ _____ _____    ______ ____
ROOT
ATOM      1  C   UNL     1       5.112   5.863  16.863  0.00  0.00    +0.000 C 
ATOM      2  C   UNL     1       5.001   4.550  16.137  0.00  0.00    +0.000 C 
ATOM      3  C   UNL     1       4.266   3.489  16.525  0.00  0.00    +0.000 C 
ENDROOT
BRANCH   3   4
ATOM      4  C   UNL     1       3.427   3.471  17.728  0.00  0.00    +0.000 A 
ATOM      5  C   UNL     1       3.947   2.995  18.938  0.00  0.00    +0.000 A 
ATOM      6  C   UNL     1       3.134   2.906  20.071  0.00  0.00    +0.000 A 
ATOM      7  C   UNL     1       1.802   3.301  19.988  0.00  0.00    +0.000 A 
ATOM      8  C   UNL     1       1.280   3.800  18.800  0.00  0.00    +0.000 A 
ATOM      9  C   UNL     1       2.092   3.885  17.667  0.00  0.00    +0.000 A 
BRANCH   7  10
ATOM     10  O   UNL     1       0.965   3.203  21.060  0.00  0.00    +0.000 OA
ATOM     11  H   UNL     1       0.844   4.088  21.442  0.00  0.00    +0.000 HD
ENDBRANCH   7  10
ENDBRANCH   3   4
BRANCH   2  12
ATOM     12  C   UNL     1       5.771   4.453  14.882  0.00  0.00    +0.000 A 
ATOM     13  C   UNL     1       6.922   5.235  14.704  0.00  0.00    +0.000 A 
ATOM     14  C   UNL     1       7.634   5.156  13.507  0.00  0.00    +0.000 A 
ATOM     15  C   UNL     1       7.225   4.308  12.483  0.00  0.00    +0.000 A 
ATOM     16  C   UNL     1       6.086   3.531  12.668  0.00  0.00    +0.000 A 
ATOM     17  C   UNL     1       5.357   3.596  13.854  0.00  0.00    +0.000 A 
BRANCH  14  18
ATOM     18  O   UNL     1       8.752   5.907  13.296  0.00  0.00    +0.000 OA
ATOM     19  H   UNL     1       9.435   5.636  13.932  0.00  0.00    +0.000 HD
ENDBRANCH  14  18
BRANCH  16  20
ATOM     20  O   UNL     1       5.646   2.681  11.695  0.00  0.00    +0.000 OA
ATOM     21  H   UNL     1       5.301   3.209  10.956  0.00  0.00    +0.000 HD
ENDBRANCH  16  20
ENDBRANCH   2  12
TORSDOF 5
ENDMDL
MODEL 2
REMARK VINA RESULT:      -7.1      0.208      1.960
REMARK  Name = 
REMARK  6 active torsions:
REMARK  status: ('A' for Active; 'I' for Inactive)
REMARK    1  A    between atoms: C_1  and  C_2
REMARK    2  A    between atoms: C_2  and  C_11
REMARK    3  A    between atoms: C_3  and  C_4
REMARK    4  A    between atoms: C_7  and  O_8
REMARK    5  A    between atoms: C_13  and  O_14
REMARK    6  A    between atoms: C_16  and  O_17
REMARK                            x       y       z     vdW  Elec       q    Type
REMARK                         _______ _______ _______ _____ _____    ______ ____
ROOT
ATOM      1  C   UNL     1       4.845   5.909  16.950  0.00  0.00    +0.000 C 
ATOM      2  C   UNL     1       4.851   4.568  16.267  0.00  0.00    +0.000 C 
ATOM      3  C   UNL     1       4.207   3.461  16.687  0.00  0.00    +0.000 C 
ENDROOT
BRANCH   3   4
ATOM      4  C   UNL     1       3.364   3.410  17.886  0.00  0.00    +0.000 A 
ATOM      5  C   UNL     1       3.904   2.979  19.104  0.00  0.00    +0.000 A 
ATOM      6  C   UNL     1       3.092   2.857  20.234  0.00  0.00    +0.000 A 
ATOM      7  C   UNL     1       1.740   3.177  20.142  0.00  0.00    +0.000 A 
ATOM      8  C   UNL     1       1.197   3.631  18.945  0.00  0.00    +0.000 A 
ATOM      9  C   UNL     1       2.008   3.748  17.815  0.00  0.00    +0.000 A 
BRANCH   7  10
ATOM     10  O   UNL     1       0.904   3.045  21.211  0.00  0.00    +0.000 OA
ATOM     11  H   UNL     1       1.365   3.358  22.006  0.00  0.00    +0.000 HD
ENDBRANCH   7  10
ENDBRANCH   3   4
BRANCH   2  12
ATOM     12  C   UNL     1       5.634   4.497  15.019  0.00  0.00    +0.000 A 
ATOM     13  C   UNL     1       5.217   3.655  13.977  0.00  0.00    +0.000 A 
ATOM     14  C   UNL     1       5.973   3.574  12.808  0.00  0.00    +0.000 A 
ATOM     15  C   UNL     1       7.137   4.320  12.652  0.00  0.00    +0.000 A 
ATOM     16  C   UNL     1       7.542   5.157  13.686  0.00  0.00    +0.000 A 
ATOM     17  C   UNL     1       6.805   5.251  14.865  0.00  0.00    +0.000 A 
BRANCH  14  18
ATOM     18  O   UNL     1       5.602   2.760  11.778  0.00  0.00    +0.000 OA
ATOM     19  H   UNL     1       5.112   3.287  11.125  0.00  0.00    +0.000 HD
ENDBRANCH  14  18
BRANCH  16  20
ATOM     20  O   UNL     1       8.675   5.911  13.581  0.00  0.00    +0.000 OA
ATOM     21  H   UNL     1       9.445   5.332  13.702  0.00  0.00    +0.000 HD
ENDBRANCH  16  20
ENDBRANCH   2  12
TORSDOF 5
ENDMDL
MODEL 3
REMARK VINA RESULT:      -7.0      0.225      1.162
REMARK  Name = 
REMARK  6 active torsions:
REMARK  status: ('A' for Active; 'I' for Inactive)
REMARK    1  A    between atoms: C_1  and  C_2
REMARK    2  A    between atoms: C_2  and  C_11
REMARK    3  A    between atoms: C_3  and  C_4
REMARK    4  A    between atoms: C_7  and  O_8
REMARK    5  A    between atoms: C_13  and  O_14
REMARK    6  A    between atoms: C_16  and  O_17
REMARK                            x       y       z     vdW  Elec       q    Type
REMARK                         _______ _______ _______ _____ _____    ______ ____
ROOT
ATOM      1  C   UNL     1       5.256   5.875  16.832  0.00  0.00    +0.000 C 
ATOM      2  C   UNL     1       5.112   4.570  16.099  0.00  0.00    +0.000 C 
ATOM      3  C   UNL     1       4.370   3.516  16.493  0.00  0.00    +0.000 C 
ENDROOT
BRANCH   3   4
ATOM      4  C   UNL     1       3.556   3.499  17.713  0.00  0.00    +0.000 A 
ATOM      5  C   UNL     1       2.231   3.951  17.677  0.00  0.00    +0.000 A 
ATOM      6  C   UNL     1       1.471   4.006  18.848  0.00  0.00    +0.000 A 
ATOM      7  C   UNL     1       2.041   3.601  20.052  0.00  0.00    +0.000 A 
ATOM      8  C   UNL     1       3.347   3.126  20.097  0.00  0.00    +0.000 A 
ATOM      9  C   UNL     1       4.107   3.074  18.927  0.00  0.00    +0.000 A 
BRANCH   7  10
ATOM     10  O   UNL     1       1.347   3.667  21.224  0.00  0.00    +0.000 OA
ATOM     11  H   UNL     1       1.938   4.001  21.918  0.00  0.00    +0.000 HD
ENDBRANCH   7  10
ENDBRANCH   3   4
BRANCH   2  12
ATOM     12  C   UNL     1       5.854   4.472  14.827  0.00  0.00    +0.000 A 
ATOM     13  C   UNL     1       6.999   5.257  14.623  0.00  0.00    +0.000 A 
ATOM     14  C   UNL     1       7.685   5.177  13.411  0.00  0.00    +0.000 A 
ATOM     15  C   UNL     1       7.257   4.326  12.398  0.00  0.00    +0.000 A 
ATOM     16  C   UNL     1       6.124   3.547  12.609  0.00  0.00    +0.000 A 
ATOM     17  C   UNL     1       5.421   3.612  13.810  0.00  0.00    +0.000 A 
BRANCH  14  18
ATOM     18  O   UNL     1       8.797   5.931  13.174  0.00  0.00    +0.000 OA
ATOM     19  H   UNL     1       8.687   6.794  13.607  0.00  0.00    +0.000 HD
ENDBRANCH  14  18
BRANCH  16  20
ATOM     20  O   UNL     1       5.666   2.694  11.647  0.00  0.00    +0.000 OA
ATOM     21  H   UNL     1       5.071   3.185  11.056  0.00  0.00    +0.000 HD
ENDBRANCH  16  20
ENDBRANCH   2  12
TORSDOF 5
ENDMDL
MODEL 4
REMARK VINA RESULT:      -6.9      0.248      2.272
REMARK  Name = 
REMARK  6 active torsions:
REMARK  status: ('A' for Active; 'I' for Inactive)
REMARK    1  A    between atoms: C_1  and  C_2
REMARK    2  A    between atoms: C_2  and  C_11
REMARK    3  A    between atoms: C_3  and  C_4
REMARK    4  A    between atoms: C_7  and  O_8
REMARK    5  A    between atoms: C_13  and  O_14
REMARK    6  A    between atoms: C_16  and  O_17
REMARK                            x       y       z     vdW  Elec       q    Type
REMARK                         _______ _______ _______ _____ _____    ______ ____
ROOT
ATOM      1  C   UNL     1       5.280   5.876  16.849  0.00  0.00    +0.000 C 
ATOM      2  C   UNL     1       5.111   4.579  16.106  0.00  0.00    +0.000 C 
ATOM      3  C   UNL     1       4.364   3.530  16.501  0.00  0.00    +0.000 C 
ENDROOT
BRANCH   3   4
ATOM      4  C   UNL     1       3.568   3.510  17.733  0.00  0.00    +0.000 A 
ATOM      5  C   UNL     1       2.248   3.978  17.722  0.00  0.00    +0.000 A 
ATOM      6  C   UNL     1       1.507   4.031  18.905  0.00  0.00    +0.000 A 
ATOM      7  C   UNL     1       2.089   3.607  20.097  0.00  0.00    +0.000 A 
ATOM      8  C   UNL     1       3.390   3.116  20.117  0.00  0.00    +0.000 A 
ATOM      9  C   UNL     1       4.132   3.067  18.935  0.00  0.00    +0.000 A 
BRANCH   7  10
ATOM     10  O   UNL     1       1.414   3.669  21.279  0.00  0.00    +0.000 OA
ATOM     11  H   UNL     1       0.470   3.804  21.092  0.00  0.00    +0.000 HD
ENDBRANCH   7  10
ENDBRANCH   3   4
BRANCH   2  12
ATOM     12  C   UNL     1       5.833   4.486  14.822  0.00  0.00    +0.000 A 
ATOM     13  C   UNL     1       5.372   3.618  13.821  0.00  0.00    +0.000 A 
ATOM     14  C   UNL     1       6.071   3.516  12.618  0.00  0.00    +0.000 A 
ATOM     15  C   UNL     1       7.219   4.267  12.389  0.00  0.00    +0.000 A 
ATOM     16  C   UNL     1       7.667   5.131  13.383  0.00  0.00    +0.000 A 
ATOM     17  C   UNL     1       6.988   5.246  14.594  0.00  0.00    +0.000 A 
BRANCH  14  18
ATOM     18  O   UNL     1       5.657   2.677  11.626  0.00  0.00    +0.000 OA
ATOM     19  H   UNL     1       5.615   1.773  11.980  0.00  0.00    +0.000 HD
ENDBRANCH  14  18
BRANCH  16  20
ATOM     20  O   UNL     1       8.787   5.891  13.205  0.00  0.00    +0.000 OA
ATOM     21  H   UNL     1       8.550   6.672  12.679  0.00  0.00    +0.000 HD
ENDBRANCH  16  20
ENDBRANCH   2  12
TORSDOF 5
ENDMDL
MODEL 5
REMARK VINA RESULT:      -6.7      4.607      7.410
REMARK  Name = 
REMARK  6 active torsions:
REMARK  status: ('A' for Active; 'I' for Inactive)
REMARK    1  A    between atoms: C_1  and  C_2
REMARK    2  A    between atoms: C_2  and  C_11
REMARK    3  A    between atoms: C_3  and  C_4
REMARK    4  A    between atoms: C_7  and  O_8
REMARK    5  A    between atoms: C_13  and  O_14
REMARK    6  A    between atoms: C_16  and  O_17
REMARK                            x       y       z     vdW  Elec       q    Type
REMARK                         _______ _______ _______ _____ _____    ______ ____
ROOT
ATOM      1  C   UNL     1       3.461   7.070  17.840  0.00  0.00    +0.000 C 
ATOM      2  C   UNL     1       2.445   6.908  18.937  0.00  0.00    +0.000 C 
ATOM      3  C   UNL     1       2.055   5.744  19.492  0.00  0.00    +0.000 C 
ENDROOT
BRANCH   3   4
ATOM      4  C   UNL     1       2.599   4.435  19.114  0.00  0.00    +0.000 A 
ATOM      5  C   UNL     1       1.968   3.673  18.124  0.00  0.00    +0.000 A 
ATOM      6  C   UNL     1       2.437   2.395  17.808  0.00  0.00    +0.000 A 
ATOM      7  C   UNL     1       3.543   1.887  18.484  0.00  0.00    +0.000 A 
ATOM      8  C   UNL     1       4.195   2.643  19.452  0.00  0.00    +0.000 A 
ATOM      9  C   UNL     1       3.724   3.919  19.769  0.00  0.00    +0.000 A 
BRANCH   7  10
ATOM     10  O   UNL     1       4.016   0.634  18.230  0.00  0.00    +0.000 OA
ATOM     11  H   UNL     1       4.936   0.704  17.929  0.00  0.00    +0.000 HD
ENDBRANCH   7  10
ENDBRANCH   3   4
BRANCH   2  12
ATOM     12  C   UNL     1       1.847   8.161  19.438  0.00  0.00    +0.000 A 
ATOM     13  C   UNL     1       1.595   8.318  20.809  0.00  0.00    +0.000 A 
ATOM     14  C   UNL     1       1.010   9.496  21.274  0.00  0.00    +0.000 A 
ATOM     15  C   UNL     1       0.675  10.525  20.401  0.00  0.00    +0.000 A 
ATOM     16  C   UNL     1       0.933  10.366  19.044  0.00  0.00    +0.000 A 
ATOM     17  C   UNL     1       1.513   9.197  18.555  0.00  0.00    +0.000 A 
BRANCH  14  18
ATOM     18  O   UNL     1       0.742   9.680  22.599  0.00  0.00    +0.000 OA
ATOM     19  H   UNL     1       1.096   8.924  23.097  0.00  0.00    +0.000 HD
ENDBRANCH  14  18
BRANCH  16  20
ATOM     20  O   UNL     1       0.625  11.348  18.147  0.00  0.00    +0.000 OA
ATOM     21  H   UNL     1       1.436  11.839  17.935  0.00  0.00    +0.000 HD
ENDBRANCH  16  20
ENDBRANCH   2  12
TORSDOF 5
ENDMDL
MODEL 6
REMARK VINA RESULT:      -6.7      4.628      7.448
REMARK  Name = 
REMARK  6 active torsions:
REMARK  status: ('A' for Active; 'I' for Inactive)
REMARK    1  A    between atoms: C_1  and  C_2
REMARK    2  A    between atoms: C_2  and  C_11
REMARK    3  A    between atoms: C_3  and  C_4
REMARK    4  A    between atoms: C_7  and  O_8
REMARK    5  A    between atoms: C_13  and  O_14
REMARK    6  A    between atoms: C_16  and  O_17
REMARK                            x       y       z     vdW  Elec       q    Type
REMARK                         _______ _______ _______ _____ _____    ______ ____
ROOT
ATOM      1  C   UNL     1       3.371   7.057  17.820  0.00  0.00    +0.000 C 
ATOM      2  C   UNL     1       2.402   6.896  18.959  0.00  0.00    +0.000 C 
ATOM      3  C   UNL     1       2.051   5.734  19.544  0.00  0.00    +0.000 C 
ENDROOT
BRANCH   3   4
ATOM      4  C   UNL     1       2.597   4.427  19.161  0.00  0.00    +0.000 A 
ATOM      5  C   UNL     1       1.966   3.667  18.169  0.00  0.00    +0.000 A 
ATOM      6  C   UNL     1       2.436   2.391  17.849  0.00  0.00    +0.000 A 
ATOM      7  C   UNL     1       3.545   1.883  18.521  0.00  0.00    +0.000 A 
ATOM      8  C   UNL     1       4.197   2.638  19.490  0.00  0.00    +0.000 A 
ATOM      9  C   UNL     1       3.724   3.911  19.812  0.00  0.00    +0.000 A 
BRANCH   7  10
ATOM     10  O   UNL     1       4.020   0.632  18.262  0.00  0.00    +0.000 OA
ATOM     11  H   UNL     1       4.957   0.596  18.514  0.00  0.00    +0.000 HD
ENDBRANCH   7  10
ENDBRANCH   3   4
BRANCH   2  12
ATOM     12  C   UNL     1       1.809   8.147  19.468  0.00  0.00    +0.000 A 
ATOM     13  C   UNL     1       1.503   9.189  18.579  0.00  0.00    +0.000 A 
ATOM     14  C   UNL     1       0.962  10.379  19.068  0.00  0.00    +0.000 A 
ATOM     15  C   UNL     1       0.714  10.550  20.425  0.00  0.00    +0.000 A 
ATOM     16  C   UNL     1       1.013   9.512  21.300  0.00  0.00    +0.000 A 
ATOM     17  C   UNL     1       1.557   8.316  20.836  0.00  0.00    +0.000 A 
BRANCH  14  18
ATOM     18  O   UNL     1       0.662  11.416  18.234  0.00  0.00    +0.000 OA
ATOM     19  H   UNL     1       0.592  12.230  18.761  0.00  0.00    +0.000 HD
ENDBRANCH  14  18
BRANCH  16  20
ATOM     20  O   UNL     1       0.785   9.630  22.640  0.00  0.00    +0.000 OA
ATOM     21  H   UNL     1      -0.166   9.768  22.782  0.00  0.00    +0.000 HD
ENDBRANCH  16  20
ENDBRANCH   2  12
TORSDOF 5
ENDMDL
MODEL 7
REMARK VINA RESULT:      -6.7      4.610      7.276
REMARK  Name = 
REMARK  6 active torsions:
REMARK  status: ('A' for Active; 'I' for Inactive)
REMARK    1  A    between atoms: C_1  and  C_2
REMARK    2  A    between atoms: C_2  and  C_11
REMARK    3  A    between atoms: C_3  and  C_4
REMARK    4  A    between atoms: C_7  and  O_8
REMARK    5  A    between atoms: C_13  and  O_14
REMARK    6  A    between atoms: C_16  and  O_17
REMARK                            x       y       z     vdW  Elec       q    Type
REMARK                         _______ _______ _______ _____ _____    ______ ____
ROOT
ATOM      1  C   UNL     1       3.507   6.830  17.989  0.00  0.00    +0.000 C 
ATOM      2  C   UNL     1       2.439   6.737  19.043  0.00  0.00    +0.000 C 
ATOM      3  C   UNL     1       1.981   5.604  19.611  0.00  0.00    +0.000 C 
ENDROOT
BRANCH   3   4
ATOM      4  C   UNL     1       2.489   4.266  19.293  0.00  0.00    +0.000 A 
ATOM      5  C   UNL     1       3.571   3.738  20.008  0.00  0.00    +0.000 A 
ATOM      6  C   UNL     1       4.108   2.495  19.663  0.00  0.00    +0.000 A 
ATOM      7  C   UNL     1       3.553   1.781  18.605  0.00  0.00    +0.000 A 
ATOM      8  C   UNL     1       2.462   2.281  17.903  0.00  0.00    +0.000 A 
ATOM      9  C   UNL     1       1.929   3.525  18.246  0.00  0.00    +0.000 A 
BRANCH   7  10
ATOM     10  O   UNL     1       4.064   0.578  18.215  0.00  0.00    +0.000 OA
ATOM     11  H   UNL     1       4.506   0.691  17.358  0.00  0.00    +0.000 HD
ENDBRANCH   7  10
ENDBRANCH   3   4
BRANCH   2  12
ATOM     12  C   UNL     1       1.870   8.025  19.483  0.00  0.00    +0.000 A 
ATOM     13  C   UNL     1       1.578   8.236  20.839  0.00  0.00    +0.000 A 
ATOM     14  C   UNL     1       1.019   9.447  21.247  0.00  0.00    +0.000 A 
ATOM     15  C   UNL     1       0.750  10.458  20.330  0.00  0.00    +0.000 A 
ATOM     16  C   UNL     1       1.047  10.246  18.989  0.00  0.00    +0.000 A 
ATOM     17  C   UNL     1       1.601   9.042  18.557  0.00  0.00    +0.000 A 
BRANCH  14  18
ATOM     18  O   UNL     1       0.715   9.683  22.555  0.00  0.00    +0.000 OA
ATOM     19  H   UNL     1       1.462  10.147  22.971  0.00  0.00    +0.000 HD
ENDBRANCH  14  18
BRANCH  16  20
ATOM     20  O   UNL     1       0.803  11.208  18.051  0.00  0.00    +0.000 OA
ATOM     21  H   UNL     1       0.533  10.774  17.225  0.00  0.00    +0.000 HD
ENDBRANCH  16  20
ENDBRANCH   2  12
TORSDOF 5
ENDMDL
MODEL 8
REMARK VINA RESULT:      -6.7      5.171      8.510
REMARK  Name = 
REMARK  6 active torsions:
REMARK  status: ('A' for Active; 'I' for Inactive)
REMARK    1  A    between atoms: C_1  and  C_2
REMARK    2  A    between atoms: C_2  and  C_11
REMARK    3  A    between atoms: C_3  and  C_4
REMARK    4  A    between atoms: C_7  and  O_8
REMARK    5  A    between atoms: C_13  and  O_14
REMARK    6  A    between atoms: C_16  and  O_17
REMARK                            x       y       z     vdW  Elec       q    Type
REMARK                         _______ _______ _______ _____ _____    ______ ____
ROOT
ATOM      1  C   UNL     1       2.258   8.489  18.105  0.00  0.00    +0.000 C 
ATOM      2  C   UNL     1       1.854   7.948  19.449  0.00  0.00    +0.000 C 
ATOM      3  C   UNL     1       2.130   6.718  19.925  0.00  0.00    +0.000 C 
ENDROOT
BRANCH   3   4
ATOM      4  C   UNL     1       2.907   5.712  19.192  0.00  0.00    +0.000 A 
ATOM      5  C   UNL     1       4.278   5.568  19.440  0.00  0.00    +0.000 A 
ATOM      6  C   UNL     1       5.040   4.664  18.696  0.00  0.00    +0.000 A 
ATOM      7  C   UNL     1       4.423   3.901  17.708  0.00  0.00    +0.000 A 
ATOM      8  C   UNL     1       3.058   4.016  17.469  0.00  0.00    +0.000 A 
ATOM      9  C   UNL     1       2.298   4.922  18.211  0.00  0.00    +0.000 A 
BRANCH   7  10
ATOM     10  O   UNL     1       5.133   3.029  16.937  0.00  0.00    +0.000 OA
ATOM     11  H   UNL     1       5.330   3.455  16.087  0.00  0.00    +0.000 HD
ENDBRANCH   7  10
ENDBRANCH   3   4
BRANCH   2  12
ATOM     12  C   UNL     1       1.096   8.880  20.305  0.00  0.00    +0.000 A 
ATOM     13  C   UNL     1       1.177   8.772  21.701  0.00  0.00    +0.000 A 
ATOM     14  C   UNL     1       0.441   9.642  22.507  0.00  0.00    +0.000 A 
ATOM     15  C   UNL     1      -0.371  10.623  21.949  0.00  0.00    +0.000 A 
ATOM     16  C   UNL     1      -0.442  10.729  20.564  0.00  0.00    +0.000 A 
ATOM     17  C   UNL     1       0.280   9.869  19.740  0.00  0.00    +0.000 A 
BRANCH  14  18
ATOM     18  O   UNL     1       0.489   9.560  23.868  0.00  0.00    +0.000 OA
ATOM     19  H   UNL     1       0.230  10.419  24.241  0.00  0.00    +0.000 HD
ENDBRANCH  14  18
BRANCH  16  20
ATOM     20  O   UNL     1      -1.223  11.677  19.969  0.00  0.00    +0.000 OA
ATOM     21  H   UNL     1      -1.273  11.486  19.018  0.00  0.00    +0.000 HD
ENDBRANCH  16  20
ENDBRANCH   2  12
TORSDOF 5
ENDMDL
MODEL 9
REMARK VINA RESULT:      -6.7      4.623      7.321
REMARK  Name = 
REMARK  6 active torsions:
REMARK  status: ('A' for Active; 'I' for Inactive)
REMARK    1  A    between atoms: C_1  and  C_2
REMARK    2  A    between atoms: C_2  and  C_11
REMARK    3  A    between atoms: C_3  and  C_4
REMARK    4  A    between atoms: C_7  and  O_8
REMARK    5  A    between atoms: C_13  and  O_14
REMARK    6  A    between atoms: C_16  and  O_17
REMARK                            x       y       z     vdW  Elec       q    Type
REMARK                         _______ _______ _______ _____ _____    ______ ____
ROOT
ATOM      1  C   UNL     1       3.468   6.867  17.998  0.00  0.00    +0.000 C 
ATOM      2  C   UNL     1       2.410   6.768  19.063  0.00  0.00    +0.000 C 
ATOM      3  C   UNL     1       1.962   5.632  19.634  0.00  0.00    +0.000 C 
ENDROOT
BRANCH   3   4
ATOM      4  C   UNL     1       2.474   4.296  19.309  0.00  0.00    +0.000 A 
ATOM      5  C   UNL     1       3.568   3.775  20.011  0.00  0.00    +0.000 A 
ATOM      6  C   UNL     1       4.108   2.535  19.660  0.00  0.00    +0.000 A 
ATOM      7  C   UNL     1       3.544   1.817  18.609  0.00  0.00    +0.000 A 
ATOM      8  C   UNL     1       2.441   2.311  17.921  0.00  0.00    +0.000 A 
ATOM      9  C   UNL     1       1.905   3.552  18.270  0.00  0.00    +0.000 A 
BRANCH   7  10
ATOM     10  O   UNL     1       4.056   0.618  18.213  0.00  0.00    +0.000 OA
ATOM     11  H   UNL     1       3.369   0.130  17.729  0.00  0.00    +0.000 HD
ENDBRANCH   7  10
ENDBRANCH   3   4
BRANCH   2  12
ATOM     12  C   UNL     1       1.838   8.053  19.509  0.00  0.00    +0.000 A 
ATOM     13  C   UNL     1       1.624   9.084  18.582  0.00  0.00    +0.000 A 
ATOM     14  C   UNL     1       1.104  10.305  19.013  0.00  0.00    +0.000 A 
ATOM     15  C   UNL     1       0.787  10.518  20.350  0.00  0.00    +0.000 A 
ATOM     16  C   UNL     1       0.997   9.490  21.263  0.00  0.00    +0.000 A 
ATOM     17  C   UNL     1       1.519   8.264  20.857  0.00  0.00    +0.000 A 
BRANCH  14  18
ATOM     18  O   UNL     1       0.890  11.332  18.142  0.00  0.00    +0.000 OA
ATOM     19  H   UNL     1       1.750  11.700  17.877  0.00  0.00    +0.000 HD
ENDBRANCH  14  18
BRANCH  16  20
ATOM     20  O   UNL     1       0.699   9.650  22.586  0.00  0.00    +0.000 OA
ATOM     21  H   UNL     1      -0.265   9.724  22.680  0.00  0.00    +0.000 HD
ENDBRANCH  16  20
ENDBRANCH   2  12
TORSDOF 5
ENDMDL
