MODEL 1
REMARK VINA RESULT:      -8.2      0.000      0.000
REMARK  Name = 
REMARK  6 active torsions:
REMARK  status: ('A' for Active; 'I' for Inactive)
REMARK    1  A    between atoms: C_2  and  C_3
REMARK    2  A    between atoms: C_3  and  C_4
REMARK    3  A    between atoms: C_4  and  C_5
REMARK    4  A    between atoms: N_11  and  C_12
REMARK    5  A    between atoms: N_15  and  C_16
REMARK    6  A    between atoms: C_19  and  C_20
REMARK                            x       y       z     vdW  Elec       q    Type
REMARK                         _______ _______ _______ _____ _____    ______ ____
ROOT
ATOM      1  C   UNL     1       6.351   7.002  16.388  0.00  0.00    +0.000 C 
ATOM      2  C   UNL     1       6.835   5.564  16.270  0.00  0.00    +0.000 C 
ATOM      3  C   UNL     1       5.551   4.764  16.110  0.00  0.00    +0.000 C 
ATOM      4  N   UNL     1       4.527   5.502  16.855  0.00  0.00    +0.000 N 
ATOM      5  C   UNL     1       5.002   6.875  17.126  0.00  0.00    +0.000 C 
ENDROOT
BRANCH   4   6
ATOM      6  C   UNL     1       3.934   4.881  17.959  0.00  0.00    +0.000 A 
ATOM      7  N   UNL     1       4.442   3.701  18.398  0.00  0.00    +0.000 NA
ATOM      8  C   UNL     1       3.878   3.101  19.475  0.00  0.00    +0.000 A 
ATOM      9  C   UNL     1       2.799   3.614  20.182  0.00  0.00    +0.000 A 
ATOM     10  C   UNL     1       2.266   4.820  19.731  0.00  0.00    +0.000 A 
ATOM     11  C   UNL     1       2.821   5.452  18.613  0.00  0.00    +0.000 A 
ATOM     12 CL   UNL     1       2.051   6.904  18.070  0.00  0.00    +0.000 Cl
BRANCH   9  13
ATOM     13  C   UNL     1       2.252   2.910  21.382  0.00  0.00    +0.000 C 
ATOM     14  F   UNL     1       1.062   2.287  21.155  0.00  0.00    +0.000 F 
ATOM     15  F   UNL     1       3.094   1.940  21.839  0.00  0.00    +0.000 F 
ATOM     16  F   UNL     1       2.041   3.749  22.430  0.00  0.00    +0.000 F 
ENDBRANCH   9  13
ENDBRANCH   4   6
BRANCH   1  19
ATOM     17  O   UNL     1       7.657   6.410  18.808  0.00  0.00    +0.000 OA
ATOM     18  C   UNL     1       7.901   7.475  18.253  0.00  0.00    +0.000 C 
ATOM     19  N   UNL     1       7.325   7.851  17.060  0.00  0.00    +0.000 N 
ATOM     20  H   UNL     1       7.742   8.616  16.542  0.00  0.00    +0.000 HD
BRANCH  18  21
ATOM     21  C   UNL     1       8.865   8.490  18.834  0.00  0.00    +0.000 C 
BRANCH  21  22
ATOM     22  C   UNL     1       8.604   9.872  18.240  0.00  0.00    +0.000 C 
BRANCH  22  23
ATOM     23  C   UNL     1       9.632  10.891  18.656  0.00  0.00    +0.000 A 
ATOM     24  C   UNL     1       9.848  11.180  20.006  0.00  0.00    +0.000 A 
ATOM     25  C   UNL     1      10.815  12.116  20.338  0.00  0.00    +0.000 A 
ATOM     26  N   UNL     1      11.566  12.776  19.431  0.00  0.00    +0.000 NA
ATOM     27  C   UNL     1      11.338  12.486  18.134  0.00  0.00    +0.000 A 
ATOM     28  C   UNL     1      10.394  11.568  17.701  0.00  0.00    +0.000 A 
ENDBRANCH  22  23
ENDBRANCH  21  22
ENDBRANCH  18  21
ENDBRANCH   1  19
TORSDOF 6
ENDMDL
MODEL 2
REMARK VINA RESULT:      -8.0      1.652      1.940
REMARK  Name = 
REMARK  6 active torsions:
REMARK  status: ('A' for Active; 'I' for Inactive)
REMARK    1  A    between atoms: C_2  and  C_3
REMARK    2  A    between atoms: C_3  and  C_4
REMARK    3  A    between atoms: C_4  and  C_5
REMARK    4  A    between atoms: N_11  and  C_12
REMARK    5  A    between atoms: N_15  and  C_16
REMARK    6  A    between atoms: C_19  and  C_20
REMARK                            x       y       z     vdW  Elec       q    Type
REMARK                         _______ _______ _______ _____ _____    ______ ____
ROOT
ATOM      1  C   UNL     1       7.340   6.713  17.275  0.00  0.00    +0.000 C 
ATOM      2  C   UNL     1       7.711   5.242  17.392  0.00  0.00    +0.000 C 
ATOM      3  C   UNL     1       6.485   4.517  16.857  0.00  0.00    +0.000 C 
ATOM      4  N   UNL     1       5.342   5.373  17.188  0.00  0.00    +0.000 N 
ATOM      5  C   UNL     1       5.819   6.728  17.534  0.00  0.00    +0.000 C 
ENDROOT
BRANCH   4   6
ATOM      6  C   UNL     1       4.372   4.874  18.064  0.00  0.00    +0.000 A 
ATOM      7  N   UNL     1       4.530   3.627  18.575  0.00  0.00    +0.000 NA
ATOM      8  C   UNL     1       3.599   3.143  19.433  0.00  0.00    +0.000 A 
ATOM      9  C   UNL     1       2.473   3.843  19.842  0.00  0.00    +0.000 A 
ATOM     10  C   UNL     1       2.298   5.121  19.314  0.00  0.00    +0.000 A 
ATOM     11  C   UNL     1       3.237   5.637  18.415  0.00  0.00    +0.000 A 
ATOM     12 CL   UNL     1       2.906   7.198  17.743  0.00  0.00    +0.000 Cl
BRANCH   9  13
ATOM     13  C   UNL     1       1.506   3.255  20.819  0.00  0.00    +0.000 C 
ATOM     14  F   UNL     1       0.234   3.723  20.678  0.00  0.00    +0.000 F 
ATOM     15  F   UNL     1       1.415   1.900  20.702  0.00  0.00    +0.000 F 
ATOM     16  F   UNL     1       1.854   3.499  22.110  0.00  0.00    +0.000 F 
ENDBRANCH   9  13
ENDBRANCH   4   6
BRANCH   1  19
ATOM     17  O   UNL     1       7.570   9.515  17.154  0.00  0.00    +0.000 OA
ATOM     18  C   UNL     1       8.171   8.912  18.037  0.00  0.00    +0.000 C 
ATOM     19  N   UNL     1       8.112   7.544  18.189  0.00  0.00    +0.000 N 
ATOM     20  H   UNL     1       8.427   7.142  19.064  0.00  0.00    +0.000 HD
BRANCH  18  21
ATOM     21  C   UNL     1       9.046   9.621  19.051  0.00  0.00    +0.000 C 
BRANCH  21  22
ATOM     22  C   UNL     1       9.793  10.777  18.391  0.00  0.00    +0.000 C 
BRANCH  22  23
ATOM     23  C   UNL     1       9.229  12.124  18.760  0.00  0.00    +0.000 A 
ATOM     24  C   UNL     1       8.678  12.960  17.786  0.00  0.00    +0.000 A 
ATOM     25  C   UNL     1       8.158  14.185  18.178  0.00  0.00    +0.000 A 
ATOM     26  N   UNL     1       8.157  14.627  19.453  0.00  0.00    +0.000 NA
ATOM     27  C   UNL     1       8.699  13.807  20.377  0.00  0.00    +0.000 A 
ATOM     28  C   UNL     1       9.243  12.566  20.085  0.00  0.00    +0.000 A 
ENDBRANCH  22  23
ENDBRANCH  21  22
ENDBRANCH  18  21
ENDBRANCH   1  19
TORSDOF 6
ENDMDL
MODEL 3
REMARK VINA RESULT:      -8.0      6.431      9.281
REMARK  Name = 
REMARK  6 active torsions:
REMARK  status: ('A' for Active; 'I' for Inactive)
REMARK    1  A    between atoms: C_2  and  C_3
REMARK    2  A    between atoms: C_3  and  C_4
REMARK    3  A    between atoms: C_4  and  C_5
REMARK    4  A    between atoms: N_11  and  C_12
REMARK    5  A    between atoms: N_15  and  C_16
REMARK    6  A    between atoms: C_19  and  C_20
REMARK                            x       y       z     vdW  Elec       q    Type
REMARK                         _______ _______ _______ _____ _____    ______ ____
ROOT
ATOM      1  C   UNL     1       2.381   8.087  18.693  0.00  0.00    +0.000 C 
ATOM      2  C   UNL     1       2.527   9.035  17.512  0.00  0.00    +0.000 C 
ATOM      3  C   UNL     1       2.029  10.366  18.055  0.00  0.00    +0.000 C 
ATOM      4  N   UNL     1       1.009  10.031  19.053  0.00  0.00    +0.000 N 
ATOM      5  C   UNL     1       1.128   8.607  19.428  0.00  0.00    +0.000 C 
ENDROOT
BRANCH   4   6
ATOM      6  C   UNL     1      -0.307  10.447  18.821  0.00  0.00    +0.000 A 
ATOM      7  N   UNL     1      -0.967   9.958  17.741  0.00  0.00    +0.000 NA
ATOM      8  C   UNL     1      -2.246  10.349  17.518  0.00  0.00    +0.000 A 
ATOM      9  C   UNL     1      -2.949  11.227  18.331  0.00  0.00    +0.000 A 
ATOM     10  C   UNL     1      -2.274  11.741  19.436  0.00  0.00    +0.000 A 
ATOM     11  C   UNL     1      -0.949  11.364  19.680  0.00  0.00    +0.000 A 
ATOM     12 CL   UNL     1      -0.156  12.108  21.027  0.00  0.00    +0.000 Cl
BRANCH   9  13
ATOM     13  C   UNL     1      -4.371  11.586  18.039  0.00  0.00    +0.000 C 
ATOM     14  F   UNL     1      -5.235  10.540  18.163  0.00  0.00    +0.000 F 
ATOM     15  F   UNL     1      -4.841  12.553  18.876  0.00  0.00    +0.000 F 
ATOM     16  F   UNL     1      -4.540  12.064  16.778  0.00  0.00    +0.000 F 
ENDBRANCH   9  13
ENDBRANCH   4   6
BRANCH   1  19
ATOM     17  O   UNL     1       4.537   6.480  17.865  0.00  0.00    +0.000 OA
ATOM     18  C   UNL     1       3.410   5.997  17.868  0.00  0.00    +0.000 C 
ATOM     19  N   UNL     1       2.293   6.696  18.268  0.00  0.00    +0.000 N 
ATOM     20  H   UNL     1       1.448   6.177  18.475  0.00  0.00    +0.000 HD
BRANCH  18  21
ATOM     21  C   UNL     1       3.137   4.574  17.424  0.00  0.00    +0.000 C 
BRANCH  21  22
ATOM     22  C   UNL     1       1.860   4.050  18.075  0.00  0.00    +0.000 C 
BRANCH  22  23
ATOM     23  C   UNL     1       2.097   3.470  19.445  0.00  0.00    +0.000 A 
ATOM     24  C   UNL     1       3.330   2.901  19.777  0.00  0.00    +0.000 A 
ATOM     25  C   UNL     1       3.504   2.393  21.056  0.00  0.00    +0.000 A 
ATOM     26  N   UNL     1       2.547   2.408  22.007  0.00  0.00    +0.000 NA
ATOM     27  C   UNL     1       1.363   2.956  21.664  0.00  0.00    +0.000 A 
ATOM     28  C   UNL     1       1.092   3.489  20.414  0.00  0.00    +0.000 A 
ENDBRANCH  22  23
ENDBRANCH  21  22
ENDBRANCH  18  21
ENDBRANCH   1  19
TORSDOF 6
ENDMDL
MODEL 4
REMARK VINA RESULT:      -7.9      1.609      1.739
REMARK  Name = 
REMARK  6 active torsions:
REMARK  status: ('A' for Active; 'I' for Inactive)
REMARK    1  A    between atoms: C_2  and  C_3
REMARK    2  A    between atoms: C_3  and  C_4
REMARK    3  A    between atoms: C_4  and  C_5
REMARK    4  A    between atoms: N_11  and  C_12
REMARK    5  A    between atoms: N_15  and  C_16
REMARK    6  A    between atoms: C_19  and  C_20
REMARK                            x       y       z     vdW  Elec       q    Type
REMARK                         _______ _______ _______ _____ _____    ______ ____
ROOT
ATOM      1  C   UNL     1       7.439   6.665  17.366  0.00  0.00    +0.000 C 
ATOM      2  C   UNL     1       7.733   5.191  17.601  0.00  0.00    +0.000 C 
ATOM      3  C   UNL     1       6.567   4.479  16.933  0.00  0.00    +0.000 C 
ATOM      4  N   UNL     1       5.423   5.386  17.059  0.00  0.00    +0.000 N 
ATOM      5  C   UNL     1       5.898   6.741  17.406  0.00  0.00    +0.000 C 
ENDROOT
BRANCH   4   6
ATOM      6  C   UNL     1       4.322   4.964  17.812  0.00  0.00    +0.000 A 
ATOM      7  N   UNL     1       4.279   3.679  18.246  0.00  0.00    +0.000 NA
ATOM      8  C   UNL     1       3.220   3.268  18.986  0.00  0.00    +0.000 A 
ATOM      9  C   UNL     1       2.153   4.079  19.344  0.00  0.00    +0.000 A 
ATOM     10  C   UNL     1       2.184   5.397  18.893  0.00  0.00    +0.000 A 
ATOM     11  C   UNL     1       3.259   5.843  18.116  0.00  0.00    +0.000 A 
ATOM     12 CL   UNL     1       3.184   7.469  17.530  0.00  0.00    +0.000 Cl
BRANCH   9  13
ATOM     13  C   UNL     1       1.035   3.562  20.191  0.00  0.00    +0.000 C 
ATOM     14  F   UNL     1       0.181   2.736  19.524  0.00  0.00    +0.000 F 
ATOM     15  F   UNL     1       1.485   2.844  21.258  0.00  0.00    +0.000 F 
ATOM     16  F   UNL     1       0.266   4.557  20.706  0.00  0.00    +0.000 F 
ENDBRANCH   9  13
ENDBRANCH   4   6
BRANCH   1  19
ATOM     17  O   UNL     1       7.709   9.460  17.195  0.00  0.00    +0.000 OA
ATOM     18  C   UNL     1       8.197   8.880  18.158  0.00  0.00    +0.000 C 
ATOM     19  N   UNL     1       8.107   7.517  18.340  0.00  0.00    +0.000 N 
ATOM     20  H   UNL     1       8.314   7.138  19.257  0.00  0.00    +0.000 HD
BRANCH  18  21
ATOM     21  C   UNL     1       8.955   9.611  19.247  0.00  0.00    +0.000 C 
BRANCH  21  22
ATOM     22  C   UNL     1       9.929  10.615  18.634  0.00  0.00    +0.000 C 
BRANCH  22  23
ATOM     23  C   UNL     1       9.762  12.005  19.189  0.00  0.00    +0.000 A 
ATOM     24  C   UNL     1      10.412  12.389  20.366  0.00  0.00    +0.000 A 
ATOM     25  C   UNL     1      10.238  13.684  20.829  0.00  0.00    +0.000 A 
ATOM     26  N   UNL     1       9.468  14.606  20.212  0.00  0.00    +0.000 NA
ATOM     27  C   UNL     1       8.845  14.213  19.082  0.00  0.00    +0.000 A 
ATOM     28  C   UNL     1       8.956  12.942  18.540  0.00  0.00    +0.000 A 
ENDBRANCH  22  23
ENDBRANCH  21  22
ENDBRANCH  18  21
ENDBRANCH   1  19
TORSDOF 6
ENDMDL
MODEL 5
REMARK VINA RESULT:      -7.9      1.463      1.723
REMARK  Name = 
REMARK  6 active torsions:
REMARK  status: ('A' for Active; 'I' for Inactive)
REMARK    1  A    between atoms: C_2  and  C_3
REMARK    2  A    between atoms: C_3  and  C_4
REMARK    3  A    between atoms: C_4  and  C_5
REMARK    4  A    between atoms: N_11  and  C_12
REMARK    5  A    between atoms: N_15  and  C_16
REMARK    6  A    between atoms: C_19  and  C_20
REMARK                            x       y       z     vdW  Elec       q    Type
REMARK                         _______ _______ _______ _____ _____    ______ ____
ROOT
ATOM      1  C   UNL     1       7.105   7.282  17.077  0.00  0.00    +0.000 C 
ATOM      2  C   UNL     1       7.410   5.814  16.822  0.00  0.00    +0.000 C 
ATOM      3  C   UNL     1       6.095   5.260  16.293  0.00  0.00    +0.000 C 
ATOM      4  N   UNL     1       5.043   6.049  16.940  0.00  0.00    +0.000 N 
ATOM      5  C   UNL     1       5.626   7.279  17.515  0.00  0.00    +0.000 C 
ENDROOT
BRANCH   4   6
ATOM      6  C   UNL     1       4.152   5.391  17.795  0.00  0.00    +0.000 A 
ATOM      7  N   UNL     1       4.390   4.095  18.117  0.00  0.00    +0.000 NA
ATOM      8  C   UNL     1       3.537   3.457  18.955  0.00  0.00    +0.000 A 
ATOM      9  C   UNL     1       2.415   4.042  19.525  0.00  0.00    +0.000 A 
ATOM     10  C   UNL     1       2.158   5.371  19.191  0.00  0.00    +0.000 A 
ATOM     11  C   UNL     1       3.016   6.047  18.317  0.00  0.00    +0.000 A 
ATOM     12 CL   UNL     1       2.584   7.668  17.890  0.00  0.00    +0.000 Cl
BRANCH   9  13
ATOM     13  C   UNL     1       1.537   3.283  20.467  0.00  0.00    +0.000 C 
ATOM     14  F   UNL     1       0.206   3.483  20.256  0.00  0.00    +0.000 F 
ATOM     15  F   UNL     1       1.726   1.936  20.377  0.00  0.00    +0.000 F 
ATOM     16  F   UNL     1       1.762   3.608  21.768  0.00  0.00    +0.000 F 
ENDBRANCH   9  13
ENDBRANCH   4   6
BRANCH   1  19
ATOM     17  O   UNL     1       7.695  10.021  17.342  0.00  0.00    +0.000 OA
ATOM     18  C   UNL     1       8.248   9.225  18.092  0.00  0.00    +0.000 C 
ATOM     19  N   UNL     1       8.017   7.867  18.052  0.00  0.00    +0.000 N 
ATOM     20  H   UNL     1       8.313   7.304  18.840  0.00  0.00    +0.000 HD
BRANCH  18  21
ATOM     21  C   UNL     1       9.250   9.661  19.141  0.00  0.00    +0.000 C 
BRANCH  21  22
ATOM     22  C   UNL     1       9.876  10.999  18.754  0.00  0.00    +0.000 C 
BRANCH  22  23
ATOM     23  C   UNL     1       9.840  12.007  19.873  0.00  0.00    +0.000 A 
ATOM     24  C   UNL     1       9.217  11.707  21.087  0.00  0.00    +0.000 A 
ATOM     25  C   UNL     1       9.222  12.663  22.091  0.00  0.00    +0.000 A 
ATOM     26  N   UNL     1       9.792  13.880  21.966  0.00  0.00    +0.000 NA
ATOM     27  C   UNL     1      10.382  14.152  20.784  0.00  0.00    +0.000 A 
ATOM     28  C   UNL     1      10.429  13.264  19.721  0.00  0.00    +0.000 A 
ENDBRANCH  22  23
ENDBRANCH  21  22
ENDBRANCH  18  21
ENDBRANCH   1  19
TORSDOF 6
ENDMDL
MODEL 6
REMARK VINA RESULT:      -7.9      0.924      1.516
REMARK  Name = 
REMARK  6 active torsions:
REMARK  status: ('A' for Active; 'I' for Inactive)
REMARK    1  A    between atoms: C_2  and  C_3
REMARK    2  A    between atoms: C_3  and  C_4
REMARK    3  A    between atoms: C_4  and  C_5
REMARK    4  A    between atoms: N_11  and  C_12
REMARK    5  A    between atoms: N_15  and  C_16
REMARK    6  A    between atoms: C_19  and  C_20
REMARK                            x       y       z     vdW  Elec       q    Type
REMARK                         _______ _______ _______ _____ _____    ______ ____
ROOT
ATOM      1  C   UNL     1       6.760   6.027  16.268  0.00  0.00    +0.000 C 
ATOM      2  C   UNL     1       7.051   4.535  16.314  0.00  0.00    +0.000 C 
ATOM      3  C   UNL     1       5.697   3.895  16.045  0.00  0.00    +0.000 C 
ATOM      4  N   UNL     1       4.704   4.820  16.598  0.00  0.00    +0.000 N 
ATOM      5  C   UNL     1       5.328   6.138  16.832  0.00  0.00    +0.000 C 
ENDROOT
BRANCH   4   6
ATOM      6  C   UNL     1       3.903   4.378  17.657  0.00  0.00    +0.000 A 
ATOM      7  N   UNL     1       3.990   3.080  18.046  0.00  0.00    +0.000 NA
ATOM      8  C   UNL     1       3.225   2.650  19.079  0.00  0.00    +0.000 A 
ATOM      9  C   UNL     1       2.343   3.453  19.788  0.00  0.00    +0.000 A 
ATOM     10  C   UNL     1       2.241   4.784  19.388  0.00  0.00    +0.000 A 
ATOM     11  C   UNL     1       3.009   5.250  18.315  0.00  0.00    +0.000 A 
ATOM     12 CL   UNL     1       2.766   6.893  17.830  0.00  0.00    +0.000 Cl
BRANCH   9  13
ATOM     13  C   UNL     1       1.556   2.914  20.939  0.00  0.00    +0.000 C 
ATOM     14  F   UNL     1       1.789   3.564  22.113  0.00  0.00    +0.000 F 
ATOM     15  F   UNL     1       0.212   3.000  20.730  0.00  0.00    +0.000 F 
ATOM     16  F   UNL     1       1.815   1.602  21.180  0.00  0.00    +0.000 F 
ENDBRANCH   9  13
ENDBRANCH   4   6
BRANCH   1  19
ATOM     17  O   UNL     1       6.352   8.559  17.425  0.00  0.00    +0.000 OA
ATOM     18  C   UNL     1       7.459   8.040  17.520  0.00  0.00    +0.000 C 
ATOM     19  N   UNL     1       7.755   6.799  17.000  0.00  0.00    +0.000 N 
ATOM     20  H   UNL     1       8.597   6.332  17.315  0.00  0.00    +0.000 HD
BRANCH  18  21
ATOM     21  C   UNL     1       8.617   8.722  18.220  0.00  0.00    +0.000 C 
BRANCH  21  22
ATOM     22  C   UNL     1       8.520  10.236  18.054  0.00  0.00    +0.000 C 
BRANCH  22  23
ATOM     23  C   UNL     1       9.680  10.968  18.677  0.00  0.00    +0.000 A 
ATOM     24  C   UNL     1      10.740  11.429  17.893  0.00  0.00    +0.000 A 
ATOM     25  C   UNL     1      11.778  12.109  18.511  0.00  0.00    +0.000 A 
ATOM     26  N   UNL     1      11.833  12.352  19.838  0.00  0.00    +0.000 NA
ATOM     27  C   UNL     1      10.803  11.893  20.578  0.00  0.00    +0.000 A 
ATOM     28  C   UNL     1       9.721  11.203  20.053  0.00  0.00    +0.000 A 
ENDBRANCH  22  23
ENDBRANCH  21  22
ENDBRANCH  18  21
ENDBRANCH   1  19
TORSDOF 6
ENDMDL
MODEL 7
REMARK VINA RESULT:      -7.8      6.501      8.652
REMARK  Name = 
REMARK  6 active torsions:
REMARK  status: ('A' for Active; 'I' for Inactive)
REMARK    1  A    between atoms: C_2  and  C_3
REMARK    2  A    between atoms: C_3  and  C_4
REMARK    3  A    between atoms: C_4  and  C_5
REMARK    4  A    between atoms: N_11  and  C_12
REMARK    5  A    between atoms: N_15  and  C_16
REMARK    6  A    between atoms: C_19  and  C_20
REMARK                            x       y       z     vdW  Elec       q    Type
REMARK                         _______ _______ _______ _____ _____    ______ ____
ROOT
ATOM      1  C   UNL     1       2.049   8.740  18.761  0.00  0.00    +0.000 C 
ATOM      2  C   UNL     1       2.243   9.922  17.823  0.00  0.00    +0.000 C 
ATOM      3  C   UNL     1       1.555  11.072  18.546  0.00  0.00    +0.000 C 
ATOM      4  N   UNL     1       0.460  10.464  19.307  0.00  0.00    +0.000 N 
ATOM      5  C   UNL     1       0.673   9.005  19.405  0.00  0.00    +0.000 C 
ENDROOT
BRANCH   4   6
ATOM      6  C   UNL     1      -0.852  10.824  18.984  0.00  0.00    +0.000 A 
ATOM      7  N   UNL     1      -1.448  10.238  17.915  0.00  0.00    +0.000 NA
ATOM      8  C   UNL     1      -2.724  10.575  17.604  0.00  0.00    +0.000 A 
ATOM      9  C   UNL     1      -3.486  11.492  18.314  0.00  0.00    +0.000 A 
ATOM     10  C   UNL     1      -2.877  12.106  19.408  0.00  0.00    +0.000 A 
ATOM     11  C   UNL     1      -1.557  11.786  19.740  0.00  0.00    +0.000 A 
ATOM     12 CL   UNL     1      -0.848  12.649  21.062  0.00  0.00    +0.000 Cl
BRANCH   9  13
ATOM     13  C   UNL     1      -4.900  11.789  17.930  0.00  0.00    +0.000 C 
ATOM     14  F   UNL     1      -5.033  12.269  16.662  0.00  0.00    +0.000 F 
ATOM     15  F   UNL     1      -5.694  10.683  17.990  0.00  0.00    +0.000 F 
ATOM     16  F   UNL     1      -5.479  12.712  18.742  0.00  0.00    +0.000 F 
ENDBRANCH   9  13
ENDBRANCH   4   6
BRANCH   1  19
ATOM     17  O   UNL     1       2.913   6.309  19.884  0.00  0.00    +0.000 OA
ATOM     18  C   UNL     1       2.597   6.331  18.699  0.00  0.00    +0.000 C 
ATOM     19  N   UNL     1       2.149   7.467  18.061  0.00  0.00    +0.000 N 
ATOM     20  H   UNL     1       1.683   7.365  17.167  0.00  0.00    +0.000 HD
BRANCH  18  21
ATOM     21  C   UNL     1       2.673   5.102  17.817  0.00  0.00    +0.000 C 
BRANCH  21  22
ATOM     22  C   UNL     1       3.756   4.151  18.322  0.00  0.00    +0.000 C 
BRANCH  22  23
ATOM     23  C   UNL     1       5.066   4.320  17.600  0.00  0.00    +0.000 A 
ATOM     24  C   UNL     1       6.233   4.642  18.299  0.00  0.00    +0.000 A 
ATOM     25  C   UNL     1       7.417   4.773  17.590  0.00  0.00    +0.000 A 
ATOM     26  N   UNL     1       7.515   4.613  16.253  0.00  0.00    +0.000 NA
ATOM     27  C   UNL     1       6.376   4.309  15.597  0.00  0.00    +0.000 A 
ATOM     28  C   UNL     1       5.145   4.157  16.215  0.00  0.00    +0.000 A 
ENDBRANCH  22  23
ENDBRANCH  21  22
ENDBRANCH  18  21
ENDBRANCH   1  19
TORSDOF 6
ENDMDL
MODEL 8
REMARK VINA RESULT:      -7.8      6.665      9.433
REMARK  Name = 
REMARK  6 active torsions:
REMARK  status: ('A' for Active; 'I' for Inactive)
REMARK    1  A    between atoms: C_2  and  C_3
REMARK    2  A    between atoms: C_3  and  C_4
REMARK    3  A    between atoms: C_4  and  C_5
REMARK    4  A    between atoms: N_11  and  C_12
REMARK    5  A    between atoms: N_15  and  C_16
REMARK    6  A    between atoms: C_19  and  C_20
REMARK                            x       y       z     vdW  Elec       q    Type
REMARK                         _______ _______ _______ _____ _____    ______ ____
ROOT
ATOM      1  C   UNL     1       0.694   9.835  19.812  0.00  0.00    +0.000 C 
ATOM      2  C   UNL     1       0.271   9.104  21.078  0.00  0.00    +0.000 C 
ATOM      3  C   UNL     1       1.458   8.204  21.388  0.00  0.00    +0.000 C 
ATOM      4  N   UNL     1       2.048   7.865  20.089  0.00  0.00    +0.000 N 
ATOM      5  C   UNL     1       1.547   8.795  19.057  0.00  0.00    +0.000 C 
ENDROOT
BRANCH   4   6
ATOM      6  C   UNL     1       2.047   6.524  19.691  0.00  0.00    +0.000 A 
ATOM      7  N   UNL     1       1.362   5.619  20.436  0.00  0.00    +0.000 NA
ATOM      8  C   UNL     1       1.347   4.321  20.047  0.00  0.00    +0.000 A 
ATOM      9  C   UNL     1       1.991   3.834  18.918  0.00  0.00    +0.000 A 
ATOM     10  C   UNL     1       2.705   4.755  18.153  0.00  0.00    +0.000 A 
ATOM     11  C   UNL     1       2.747   6.099  18.541  0.00  0.00    +0.000 A 
ATOM     12 CL   UNL     1       3.720   7.163  17.583  0.00  0.00    +0.000 Cl
BRANCH   9  13
ATOM     13  C   UNL     1       1.903   2.392  18.535  0.00  0.00    +0.000 C 
ATOM     14  F   UNL     1       2.667   1.573  19.311  0.00  0.00    +0.000 F 
ATOM     15  F   UNL     1       0.632   1.910  18.631  0.00  0.00    +0.000 F 
ATOM     16  F   UNL     1       2.295   2.167  17.254  0.00  0.00    +0.000 F 
ENDBRANCH   9  13
ENDBRANCH   4   6
BRANCH   1  19
ATOM     17  O   UNL     1       0.434  12.415  18.720  0.00  0.00    +0.000 OA
ATOM     18  C   UNL     1      -0.488  11.619  18.576  0.00  0.00    +0.000 C 
ATOM     19  N   UNL     1      -0.452  10.331  19.060  0.00  0.00    +0.000 N 
ATOM     20  H   UNL     1      -1.126   9.663  18.705  0.00  0.00    +0.000 HD
BRANCH  18  21
ATOM     21  C   UNL     1      -1.766  11.983  17.848  0.00  0.00    +0.000 C 
BRANCH  21  22
ATOM     22  C   UNL     1      -2.832  10.915  18.080  0.00  0.00    +0.000 C 
BRANCH  22  23
ATOM     23  C   UNL     1      -4.184  11.498  18.395  0.00  0.00    +0.000 A 
ATOM     24  C   UNL     1      -4.364  12.336  19.499  0.00  0.00    +0.000 A 
ATOM     25  C   UNL     1      -5.625  12.859  19.739  0.00  0.00    +0.000 A 
ATOM     26  N   UNL     1      -6.704  12.603  18.969  0.00  0.00    +0.000 NA
ATOM     27  C   UNL     1      -6.511  11.787  17.912  0.00  0.00    +0.000 A 
ATOM     28  C   UNL     1      -5.290  11.215  17.590  0.00  0.00    +0.000 A 
ENDBRANCH  22  23
ENDBRANCH  21  22
ENDBRANCH  18  21
ENDBRANCH   1  19
TORSDOF 6
ENDMDL
MODEL 9
REMARK VINA RESULT:      -7.7      6.699      9.620
REMARK  Name = 
REMARK  6 active torsions:
REMARK  status: ('A' for Active; 'I' for Inactive)
REMARK    1  A    between atoms: C_2  and  C_3
REMARK    2  A    between atoms: C_3  and  C_4
REMARK    3  A    between atoms: C_4  and  C_5
REMARK    4  A    between atoms: N_11  and  C_12
REMARK    5  A    between atoms: N_15  and  C_16
REMARK    6  A    between atoms: C_19  and  C_20
REMARK                            x       y       z     vdW  Elec       q    Type
REMARK                         _______ _______ _______ _____ _____    ______ ____
ROOT
ATOM      1  C   UNL     1       1.986   8.720  18.731  0.00  0.00    +0.000 C 
ATOM      2  C   UNL     1       2.178   9.906  17.797  0.00  0.00    +0.000 C 
ATOM      3  C   UNL     1       1.503  11.056  18.531  0.00  0.00    +0.000 C 
ATOM      4  N   UNL     1       0.412  10.450  19.299  0.00  0.00    +0.000 N 
ATOM      5  C   UNL     1       0.617   8.990  19.388  0.00  0.00    +0.000 C 
ENDROOT
BRANCH   4   6
ATOM      6  C   UNL     1      -0.901  10.820  18.990  0.00  0.00    +0.000 A 
ATOM      7  N   UNL     1      -1.530  10.202  17.958  0.00  0.00    +0.000 NA
ATOM      8  C   UNL     1      -2.806  10.548  17.662  0.00  0.00    +0.000 A 
ATOM      9  C   UNL     1      -3.538  11.505  18.350  0.00  0.00    +0.000 A 
ATOM     10  C   UNL     1      -2.896  12.152  19.404  0.00  0.00    +0.000 A 
ATOM     11  C   UNL     1      -1.574  11.822  19.721  0.00  0.00    +0.000 A 
ATOM     12 CL   UNL     1      -0.822  12.726  20.992  0.00  0.00    +0.000 Cl
BRANCH   9  13
ATOM     13  C   UNL     1      -4.955  11.810  17.985  0.00  0.00    +0.000 C 
ATOM     14  F   UNL     1      -5.094  12.363  16.747  0.00  0.00    +0.000 F 
ATOM     15  F   UNL     1      -5.738  10.694  17.979  0.00  0.00    +0.000 F 
ATOM     16  F   UNL     1      -5.543  12.677  18.850  0.00  0.00    +0.000 F 
ENDBRANCH   9  13
ENDBRANCH   4   6
BRANCH   1  19
ATOM     17  O   UNL     1       3.378   6.439  19.611  0.00  0.00    +0.000 OA
ATOM     18  C   UNL     1       2.792   6.392  18.535  0.00  0.00    +0.000 C 
ATOM     19  N   UNL     1       2.072   7.450  18.024  0.00  0.00    +0.000 N 
ATOM     20  H   UNL     1       1.425   7.270  17.265  0.00  0.00    +0.000 HD
BRANCH  18  21
ATOM     21  C   UNL     1       2.807   5.158  17.656  0.00  0.00    +0.000 C 
BRANCH  21  22
ATOM     22  C   UNL     1       1.732   4.172  18.106  0.00  0.00    +0.000 C 
BRANCH  22  23
ATOM     23  C   UNL     1       2.032   3.549  19.444  0.00  0.00    +0.000 A 
ATOM     24  C   UNL     1       3.276   2.968  19.700  0.00  0.00    +0.000 A 
ATOM     25  C   UNL     1       3.508   2.420  20.952  0.00  0.00    +0.000 A 
ATOM     26  N   UNL     1       2.598   2.407  21.948  0.00  0.00    +0.000 NA
ATOM     27  C   UNL     1       1.401   2.968  21.678  0.00  0.00    +0.000 A 
ATOM     28  C   UNL     1       1.073   3.541  20.459  0.00  0.00    +0.000 A 
ENDBRANCH  22  23
ENDBRANCH  21  22
ENDBRANCH  18  21
ENDBRANCH   1  19
TORSDOF 6
ENDMDL
