MODEL 1
REMARK VINA RESULT:      -7.9      0.000      0.000
REMARK  Name = 
REMARK  7 active torsions:
REMARK  status: ('A' for Active; 'I' for Inactive)
REMARK    1  A    between atoms: C_1  and  C_2
REMARK    2  A    between atoms: C_6  and  N_7
REMARK    3  A    between atoms: N_8  and  C_9
REMARK    4  A    between atoms: C_10  and  C_11
REMARK    5  A    between atoms: N_13  and  C_14
REMARK    6  A    between atoms: C_20  and  N_21
REMARK    7  A    between atoms: C_22  and  C_23
REMARK                            x       y       z     vdW  Elec       q    Type
REMARK                         _______ _______ _______ _____ _____    ______ ____
ROOT
ATOM      1  C   UNL     1       2.399   5.876  19.907  0.00  0.00    +0.000 A 
ATOM      2  C   UNL     1       2.694   4.570  20.341  0.00  0.00    +0.000 A 
ATOM      3  C   UNL     1       2.156   3.831  21.509  0.00  0.00    +0.000 C 
ATOM      4  N   UNL     1       3.574   3.972  19.524  0.00  0.00    +0.000 NA
ATOM      5  N   UNL     1       3.975   4.954  18.665  0.00  0.00    +0.000 N 
ATOM      6  C   UNL     1       3.242   6.129  18.844  0.00  0.00    +0.000 A 
ENDROOT
BRANCH   5   7
ATOM      7  C   UNL     1       5.012   4.702  17.724  0.00  0.00    +0.000 A 
ATOM      8  C   UNL     1       4.683   4.312  16.418  0.00  0.00    +0.000 A 
ATOM      9  C   UNL     1       5.694   4.137  15.469  0.00  0.00    +0.000 A 
ATOM     10  C   UNL     1       7.031   4.309  15.828  0.00  0.00    +0.000 A 
ATOM     11  C   UNL     1       7.364   4.647  17.139  0.00  0.00    +0.000 A 
ATOM     12  C   UNL     1       6.358   4.845  18.085  0.00  0.00    +0.000 A 
ENDBRANCH   5   7
BRANCH   6  13
ATOM     13  N   UNL     1       3.328   7.242  18.052  0.00  0.00    +0.000 N 
ATOM     14  H   UNL     1       2.550   7.467  17.436  0.00  0.00    +0.000 HD
ATOM     15  H   UNL     1       3.704   8.078  18.501  0.00  0.00    +0.000 HD
ENDBRANCH   6  13
BRANCH   1  17
ATOM     16  N   UNL     1       1.794   7.934  20.407  0.00  0.00    +0.000 NA
ATOM     17  N   UNL     1       1.434   6.737  20.464  0.00  0.00    +0.000 NA
BRANCH  16  23
ATOM     18  C   UNL     1      -1.198  11.899  19.972  0.00  0.00    +0.000 C 
ATOM     19  C   UNL     1      -0.530  10.829  20.796  0.00  0.00    +0.000 A 
ATOM     20  C   UNL     1      -0.738  10.812  22.182  0.00  0.00    +0.000 A 
ATOM     21  C   UNL     1      -0.132   9.846  22.978  0.00  0.00    +0.000 A 
ATOM     22  C   UNL     1       0.689   8.881  22.397  0.00  0.00    +0.000 A 
ATOM     23  C   UNL     1       0.914   8.857  21.012  0.00  0.00    +0.000 A 
ATOM     24  C   UNL     1       0.307   9.851  20.204  0.00  0.00    +0.000 A 
ATOM     25  C   UNL     1       0.551   9.889  18.714  0.00  0.00    +0.000 C 
ENDBRANCH  16  23
ENDBRANCH   1  17
TORSDOF 4
ENDMDL
MODEL 2
REMARK VINA RESULT:      -7.9      0.077      1.012
REMARK  Name = 
REMARK  7 active torsions:
REMARK  status: ('A' for Active; 'I' for Inactive)
REMARK    1  A    between atoms: C_1  and  C_2
REMARK    2  A    between atoms: C_6  and  N_7
REMARK    3  A    between atoms: N_8  and  C_9
REMARK    4  A    between atoms: C_10  and  C_11
REMARK    5  A    between atoms: N_13  and  C_14
REMARK    6  A    between atoms: C_20  and  N_21
REMARK    7  A    between atoms: C_22  and  C_23
REMARK                            x       y       z     vdW  Elec       q    Type
REMARK                         _______ _______ _______ _____ _____    ______ ____
ROOT
ATOM      1  C   UNL     1       2.383   5.936  19.910  0.00  0.00    +0.000 A 
ATOM      2  C   UNL     1       2.693   4.630  20.336  0.00  0.00    +0.000 A 
ATOM      3  C   UNL     1       2.168   3.879  21.502  0.00  0.00    +0.000 C 
ATOM      4  N   UNL     1       3.575   4.046  19.511  0.00  0.00    +0.000 NA
ATOM      5  N   UNL     1       3.962   5.036  18.656  0.00  0.00    +0.000 N 
ATOM      6  C   UNL     1       3.219   6.203  18.845  0.00  0.00    +0.000 A 
ENDROOT
BRANCH   5   7
ATOM      7  C   UNL     1       4.997   4.800  17.708  0.00  0.00    +0.000 A 
ATOM      8  C   UNL     1       6.337   4.953  18.091  0.00  0.00    +0.000 A 
ATOM      9  C   UNL     1       7.358   4.650  17.187  0.00  0.00    +0.000 A 
ATOM     10  C   UNL     1       7.048   4.235  15.891  0.00  0.00    +0.000 A 
ATOM     11  C   UNL     1       5.717   4.130  15.492  0.00  0.00    +0.000 A 
ATOM     12  C   UNL     1       4.692   4.410  16.397  0.00  0.00    +0.000 A 
ENDBRANCH   5   7
BRANCH   6  13
ATOM     13  N   UNL     1       3.290   7.321  18.059  0.00  0.00    +0.000 N 
ATOM     14  H   UNL     1       3.647   7.232  17.110  0.00  0.00    +0.000 HD
ATOM     15  H   UNL     1       2.482   7.944  18.098  0.00  0.00    +0.000 HD
ENDBRANCH   6  13
BRANCH   1  17
ATOM     16  N   UNL     1       1.763   7.984  20.431  0.00  0.00    +0.000 NA
ATOM     17  N   UNL     1       1.412   6.784  20.477  0.00  0.00    +0.000 NA
BRANCH  16  23
ATOM     18  C   UNL     1      -1.266  11.925  20.036  0.00  0.00    +0.000 C 
ATOM     19  C   UNL     1      -0.586  10.855  20.850  0.00  0.00    +0.000 A 
ATOM     20  C   UNL     1      -0.788  10.826  22.236  0.00  0.00    +0.000 A 
ATOM     21  C   UNL     1      -0.171   9.859  23.023  0.00  0.00    +0.000 A 
ATOM     22  C   UNL     1       0.657   8.905  22.432  0.00  0.00    +0.000 A 
ATOM     23  C   UNL     1       0.877   8.895  21.046  0.00  0.00    +0.000 A 
ATOM     24  C   UNL     1       0.258   9.889  20.248  0.00  0.00    +0.000 A 
ATOM     25  C   UNL     1       0.497   9.941  18.757  0.00  0.00    +0.000 C 
ENDBRANCH  16  23
ENDBRANCH   1  17
TORSDOF 4
ENDMDL
MODEL 3
REMARK VINA RESULT:      -7.2      0.899      1.021
REMARK  Name = 
REMARK  7 active torsions:
REMARK  status: ('A' for Active; 'I' for Inactive)
REMARK    1  A    between atoms: C_1  and  C_2
REMARK    2  A    between atoms: C_6  and  N_7
REMARK    3  A    between atoms: N_8  and  C_9
REMARK    4  A    between atoms: C_10  and  C_11
REMARK    5  A    between atoms: N_13  and  C_14
REMARK    6  A    between atoms: C_20  and  N_21
REMARK    7  A    between atoms: C_22  and  C_23
REMARK                            x       y       z     vdW  Elec       q    Type
REMARK                         _______ _______ _______ _____ _____    ______ ____
ROOT
ATOM      1  C   UNL     1       2.219   6.218  19.955  0.00  0.00    +0.000 A 
ATOM      2  C   UNL     1       2.579   4.886  20.232  0.00  0.00    +0.000 A 
ATOM      3  C   UNL     1       2.251   4.057  21.417  0.00  0.00    +0.000 C 
ATOM      4  N   UNL     1       3.299   4.358  19.231  0.00  0.00    +0.000 NA
ATOM      5  N   UNL     1       3.548   5.404  18.390  0.00  0.00    +0.000 N 
ATOM      6  C   UNL     1       2.863   6.556  18.782  0.00  0.00    +0.000 A 
ENDROOT
BRANCH   5   7
ATOM      7  C   UNL     1       4.402   5.232  17.265  0.00  0.00    +0.000 A 
ATOM      8  C   UNL     1       4.834   3.946  16.913  0.00  0.00    +0.000 A 
ATOM      9  C   UNL     1       5.611   3.763  15.766  0.00  0.00    +0.000 A 
ATOM     10  C   UNL     1       5.991   4.861  14.993  0.00  0.00    +0.000 A 
ATOM     11  C   UNL     1       5.604   6.146  15.369  0.00  0.00    +0.000 A 
ATOM     12  C   UNL     1       4.811   6.333  16.501  0.00  0.00    +0.000 A 
ENDBRANCH   5   7
BRANCH   6  13
ATOM     13  N   UNL     1       2.815   7.726  18.073  0.00  0.00    +0.000 N 
ATOM     14  H   UNL     1       3.516   7.893  17.354  0.00  0.00    +0.000 HD
ATOM     15  H   UNL     1       1.887   8.022  17.768  0.00  0.00    +0.000 HD
ENDBRANCH   6  13
BRANCH   1  17
ATOM     16  N   UNL     1       1.347   8.207  20.321  0.00  0.00    +0.000 NA
ATOM     17  N   UNL     1       1.371   7.027  20.736  0.00  0.00    +0.000 NA
BRANCH  16  23
ATOM     18  C   UNL     1      -1.365  12.384  20.584  0.00  0.00    +0.000 C 
ATOM     19  C   UNL     1      -0.729  11.176  21.223  0.00  0.00    +0.000 A 
ATOM     20  C   UNL     1      -0.852  10.997  22.607  0.00  0.00    +0.000 A 
ATOM     21  C   UNL     1      -0.271   9.900  23.235  0.00  0.00    +0.000 A 
ATOM     22  C   UNL     1       0.439   8.964  22.484  0.00  0.00    +0.000 A 
ATOM     23  C   UNL     1       0.576   9.102  21.094  0.00  0.00    +0.000 A 
ATOM     24  C   UNL     1      -0.004  10.228  20.459  0.00  0.00    +0.000 A 
ATOM     25  C   UNL     1       0.151  10.439  18.971  0.00  0.00    +0.000 C 
ENDBRANCH  16  23
ENDBRANCH   1  17
TORSDOF 4
ENDMDL
MODEL 4
REMARK VINA RESULT:      -7.2      1.988      2.969
REMARK  Name = 
REMARK  7 active torsions:
REMARK  status: ('A' for Active; 'I' for Inactive)
REMARK    1  A    between atoms: C_1  and  C_2
REMARK    2  A    between atoms: C_6  and  N_7
REMARK    3  A    between atoms: N_8  and  C_9
REMARK    4  A    between atoms: C_10  and  C_11
REMARK    5  A    between atoms: N_13  and  C_14
REMARK    6  A    between atoms: C_20  and  N_21
REMARK    7  A    between atoms: C_22  and  C_23
REMARK                            x       y       z     vdW  Elec       q    Type
REMARK                         _______ _______ _______ _____ _____    ______ ____
ROOT
ATOM      1  C   UNL     1       4.373   5.402  17.716  0.00  0.00    +0.000 A 
ATOM      2  C   UNL     1       4.552   4.008  17.799  0.00  0.00    +0.000 A 
ATOM      3  C   UNL     1       4.277   3.097  18.936  0.00  0.00    +0.000 C 
ATOM      4  N   UNL     1       5.021   3.508  16.645  0.00  0.00    +0.000 NA
ATOM      5  N   UNL     1       5.306   4.603  15.881  0.00  0.00    +0.000 N 
ATOM      6  C   UNL     1       4.881   5.784  16.492  0.00  0.00    +0.000 A 
ENDROOT
BRANCH   5   7
ATOM      7  C   UNL     1       5.943   4.448  14.619  0.00  0.00    +0.000 A 
ATOM      8  C   UNL     1       5.348   3.647  13.634  0.00  0.00    +0.000 A 
ATOM      9  C   UNL     1       5.931   3.553  12.368  0.00  0.00    +0.000 A 
ATOM     10  C   UNL     1       7.125   4.221  12.093  0.00  0.00    +0.000 A 
ATOM     11  C   UNL     1       7.745   4.977  13.085  0.00  0.00    +0.000 A 
ATOM     12  C   UNL     1       7.157   5.094  14.345  0.00  0.00    +0.000 A 
ENDBRANCH   5   7
BRANCH   6  13
ATOM     13  N   UNL     1       4.915   7.026  15.918  0.00  0.00    +0.000 N 
ATOM     14  H   UNL     1       4.187   7.280  15.253  0.00  0.00    +0.000 HD
ATOM     15  H   UNL     1       5.134   7.801  16.547  0.00  0.00    +0.000 HD
ENDBRANCH   6  13
BRANCH   1  17
ATOM     16  N   UNL     1       2.632   6.571  18.389  0.00  0.00    +0.000 NA
ATOM     17  N   UNL     1       3.792   6.223  18.703  0.00  0.00    +0.000 NA
BRANCH  16  23
ATOM     18  C   UNL     1       0.810  11.113  19.345  0.00  0.00    +0.000 C 
ATOM     19  C   UNL     1       1.141   9.704  19.765  0.00  0.00    +0.000 A 
ATOM     20  C   UNL     1       0.884   9.313  21.085  0.00  0.00    +0.000 A 
ATOM     21  C   UNL     1       1.184   8.024  21.514  0.00  0.00    +0.000 A 
ATOM     22  C   UNL     1       1.742   7.107  20.625  0.00  0.00    +0.000 A 
ATOM     23  C   UNL     1       2.005   7.457  19.291  0.00  0.00    +0.000 A 
ATOM     24  C   UNL     1       1.712   8.775  18.860  0.00  0.00    +0.000 A 
ATOM     25  C   UNL     1       2.014   9.209  17.445  0.00  0.00    +0.000 C 
ENDBRANCH  16  23
ENDBRANCH   1  17
TORSDOF 4
ENDMDL
MODEL 5
REMARK VINA RESULT:      -7.1      1.995      3.119
REMARK  Name = 
REMARK  7 active torsions:
REMARK  status: ('A' for Active; 'I' for Inactive)
REMARK    1  A    between atoms: C_1  and  C_2
REMARK    2  A    between atoms: C_6  and  N_7
REMARK    3  A    between atoms: N_8  and  C_9
REMARK    4  A    between atoms: C_10  and  C_11
REMARK    5  A    between atoms: N_13  and  C_14
REMARK    6  A    between atoms: C_20  and  N_21
REMARK    7  A    between atoms: C_22  and  C_23
REMARK                            x       y       z     vdW  Elec       q    Type
REMARK                         _______ _______ _______ _____ _____    ______ ____
ROOT
ATOM      1  C   UNL     1       4.375   5.457  17.684  0.00  0.00    +0.000 A 
ATOM      2  C   UNL     1       4.567   4.065  17.774  0.00  0.00    +0.000 A 
ATOM      3  C   UNL     1       4.321   3.161  18.924  0.00  0.00    +0.000 C 
ATOM      4  N   UNL     1       5.018   3.560  16.616  0.00  0.00    +0.000 NA
ATOM      5  N   UNL     1       5.279   4.651  15.838  0.00  0.00    +0.000 N 
ATOM      6  C   UNL     1       4.856   5.834  16.447  0.00  0.00    +0.000 A 
ENDROOT
BRANCH   5   7
ATOM      7  C   UNL     1       5.894   4.491  14.564  0.00  0.00    +0.000 A 
ATOM      8  C   UNL     1       7.107   5.139  14.294  0.00  0.00    +0.000 A 
ATOM      9  C   UNL     1       7.752   4.926  13.074  0.00  0.00    +0.000 A 
ATOM     10  C   UNL     1       7.173   4.103  12.107  0.00  0.00    +0.000 A 
ATOM     11  C   UNL     1       5.942   3.498  12.353  0.00  0.00    +0.000 A 
ATOM     12  C   UNL     1       5.303   3.689  13.579  0.00  0.00    +0.000 A 
ENDBRANCH   5   7
BRANCH   6  13
ATOM     13  N   UNL     1       4.868   7.071  15.863  0.00  0.00    +0.000 N 
ATOM     14  H   UNL     1       4.495   7.863  16.383  0.00  0.00    +0.000 HD
ATOM     15  H   UNL     1       5.725   7.320  15.366  0.00  0.00    +0.000 HD
ENDBRANCH   6  13
BRANCH   1  17
ATOM     16  N   UNL     1       2.621   6.578  18.403  0.00  0.00    +0.000 NA
ATOM     17  N   UNL     1       3.805   6.281  18.675  0.00  0.00    +0.000 NA
BRANCH  16  23
ATOM     18  C   UNL     1       0.804  11.119  19.375  0.00  0.00    +0.000 C 
ATOM     19  C   UNL     1       1.138   9.710  19.792  0.00  0.00    +0.000 A 
ATOM     20  C   UNL     1       0.890   9.317  21.114  0.00  0.00    +0.000 A 
ATOM     21  C   UNL     1       1.193   8.028  21.539  0.00  0.00    +0.000 A 
ATOM     22  C   UNL     1       1.746   7.112  20.645  0.00  0.00    +0.000 A 
ATOM     23  C   UNL     1       1.999   7.463  19.310  0.00  0.00    +0.000 A 
ATOM     24  C   UNL     1       1.703   8.781  18.883  0.00  0.00    +0.000 A 
ATOM     25  C   UNL     1       1.996   9.216  17.466  0.00  0.00    +0.000 C 
ENDBRANCH  16  23
ENDBRANCH   1  17
TORSDOF 4
ENDMDL
MODEL 6
REMARK VINA RESULT:      -7.1      2.097      3.612
REMARK  Name = 
REMARK  7 active torsions:
REMARK  status: ('A' for Active; 'I' for Inactive)
REMARK    1  A    between atoms: C_1  and  C_2
REMARK    2  A    between atoms: C_6  and  N_7
REMARK    3  A    between atoms: N_8  and  C_9
REMARK    4  A    between atoms: C_10  and  C_11
REMARK    5  A    between atoms: N_13  and  C_14
REMARK    6  A    between atoms: C_20  and  N_21
REMARK    7  A    between atoms: C_22  and  C_23
REMARK                            x       y       z     vdW  Elec       q    Type
REMARK                         _______ _______ _______ _____ _____    ______ ____
ROOT
ATOM      1  C   UNL     1       4.668   6.040  17.254  0.00  0.00    +0.000 A 
ATOM      2  C   UNL     1       4.995   4.724  17.634  0.00  0.00    +0.000 A 
ATOM      3  C   UNL     1       4.897   4.085  18.968  0.00  0.00    +0.000 C 
ATOM      4  N   UNL     1       5.430   4.009  16.585  0.00  0.00    +0.000 NA
ATOM      5  N   UNL     1       5.546   4.914  15.570  0.00  0.00    +0.000 N 
ATOM      6  C   UNL     1       5.046   6.166  15.933  0.00  0.00    +0.000 A 
ENDROOT
BRANCH   5   7
ATOM      7  C   UNL     1       6.105   4.522  14.321  0.00  0.00    +0.000 A 
ATOM      8  C   UNL     1       5.427   3.594  13.518  0.00  0.00    +0.000 A 
ATOM      9  C   UNL     1       5.934   3.263  12.259  0.00  0.00    +0.000 A 
ATOM     10  C   UNL     1       7.133   3.823  11.815  0.00  0.00    +0.000 A 
ATOM     11  C   UNL     1       7.834   4.707  12.632  0.00  0.00    +0.000 A 
ATOM     12  C   UNL     1       7.323   5.058  13.882  0.00  0.00    +0.000 A 
ENDBRANCH   5   7
BRANCH   6  13
ATOM     13  N   UNL     1       4.911   7.237  15.092  0.00  0.00    +0.000 N 
ATOM     14  H   UNL     1       3.978   7.602  14.909  0.00  0.00    +0.000 HD
ATOM     15  H   UNL     1       5.589   7.990  15.219  0.00  0.00    +0.000 HD
ENDBRANCH   6  13
BRANCH   1  17
ATOM     16  N   UNL     1       2.872   7.194  17.793  0.00  0.00    +0.000 NA
ATOM     17  N   UNL     1       4.077   7.017  18.079  0.00  0.00    +0.000 NA
BRANCH  16  23
ATOM     18  C   UNL     1       0.509   8.628  21.944  0.00  0.00    +0.000 C 
ATOM     19  C   UNL     1       1.032   8.901  20.557  0.00  0.00    +0.000 A 
ATOM     20  C   UNL     1       0.798  10.155  19.979  0.00  0.00    +0.000 A 
ATOM     21  C   UNL     1       1.256  10.442  18.697  0.00  0.00    +0.000 A 
ATOM     22  C   UNL     1       1.959   9.477  17.977  0.00  0.00    +0.000 A 
ATOM     23  C   UNL     1       2.223   8.212  18.525  0.00  0.00    +0.000 A 
ATOM     24  C   UNL     1       1.743   7.917  19.825  0.00  0.00    +0.000 A 
ATOM     25  C   UNL     1       1.969   6.556  20.440  0.00  0.00    +0.000 C 
ENDBRANCH  16  23
ENDBRANCH   1  17
TORSDOF 4
ENDMDL
MODEL 7
REMARK VINA RESULT:      -7.0      2.314      7.704
REMARK  Name = 
REMARK  7 active torsions:
REMARK  status: ('A' for Active; 'I' for Inactive)
REMARK    1  A    between atoms: C_1  and  C_2
REMARK    2  A    between atoms: C_6  and  N_7
REMARK    3  A    between atoms: N_8  and  C_9
REMARK    4  A    between atoms: C_10  and  C_11
REMARK    5  A    between atoms: N_13  and  C_14
REMARK    6  A    between atoms: C_20  and  N_21
REMARK    7  A    between atoms: C_22  and  C_23
REMARK                            x       y       z     vdW  Elec       q    Type
REMARK                         _______ _______ _______ _____ _____    ______ ____
ROOT
ATOM      1  C   UNL     1       0.859   9.345  20.819  0.00  0.00    +0.000 A 
ATOM      2  C   UNL     1       0.463  10.037  21.979  0.00  0.00    +0.000 A 
ATOM      3  C   UNL     1       0.013   9.494  23.283  0.00  0.00    +0.000 C 
ATOM      4  N   UNL     1       0.552  11.365  21.807  0.00  0.00    +0.000 NA
ATOM      5  N   UNL     1       0.837  11.527  20.483  0.00  0.00    +0.000 N 
ATOM      6  C   UNL     1       1.076  10.305  19.851  0.00  0.00    +0.000 A 
ENDROOT
BRANCH   5   7
ATOM      7  C   UNL     1       0.883  12.831  19.914  0.00  0.00    +0.000 A 
ATOM      8  C   UNL     1      -0.251  13.347  19.271  0.00  0.00    +0.000 A 
ATOM      9  C   UNL     1      -0.235  14.654  18.777  0.00  0.00    +0.000 A 
ATOM     10  C   UNL     1       0.917  15.433  18.887  0.00  0.00    +0.000 A 
ATOM     11  C   UNL     1       2.062  14.905  19.481  0.00  0.00    +0.000 A 
ATOM     12  C   UNL     1       2.047  13.608  19.995  0.00  0.00    +0.000 A 
ENDBRANCH   5   7
BRANCH   6  13
ATOM     13  N   UNL     1       1.505  10.153  18.561  0.00  0.00    +0.000 N 
ATOM     14  H   UNL     1       2.268  10.737  18.226  0.00  0.00    +0.000 HD
ATOM     15  H   UNL     1       1.601   9.190  18.235  0.00  0.00    +0.000 HD
ENDBRANCH   6  13
BRANCH   1  17
ATOM     16  N   UNL     1       2.042   7.641  20.081  0.00  0.00    +0.000 NA
ATOM     17  N   UNL     1       0.996   7.949  20.693  0.00  0.00    +0.000 NA
BRANCH  16  23
ATOM     18  C   UNL     1       3.829   3.991  17.191  0.00  0.00    +0.000 C 
ATOM     19  C   UNL     1       3.072   4.469  18.403  0.00  0.00    +0.000 A 
ATOM     20  C   UNL     1       2.484   3.522  19.251  0.00  0.00    +0.000 A 
ATOM     21  C   UNL     1       1.769   3.924  20.375  0.00  0.00    +0.000 A 
ATOM     22  C   UNL     1       1.635   5.281  20.667  0.00  0.00    +0.000 A 
ATOM     23  C   UNL     1       2.219   6.260  19.848  0.00  0.00    +0.000 A 
ATOM     24  C   UNL     1       2.935   5.849  18.695  0.00  0.00    +0.000 A 
ATOM     25  C   UNL     1       3.546   6.868  17.763  0.00  0.00    +0.000 C 
ENDBRANCH  16  23
ENDBRANCH   1  17
TORSDOF 4
ENDMDL
MODEL 8
REMARK VINA RESULT:      -7.0      2.315      7.766
REMARK  Name = 
REMARK  7 active torsions:
REMARK  status: ('A' for Active; 'I' for Inactive)
REMARK    1  A    between atoms: C_1  and  C_2
REMARK    2  A    between atoms: C_6  and  N_7
REMARK    3  A    between atoms: N_8  and  C_9
REMARK    4  A    between atoms: C_10  and  C_11
REMARK    5  A    between atoms: N_13  and  C_14
REMARK    6  A    between atoms: C_20  and  N_21
REMARK    7  A    between atoms: C_22  and  C_23
REMARK                            x       y       z     vdW  Elec       q    Type
REMARK                         _______ _______ _______ _____ _____    ______ ____
ROOT
ATOM      1  C   UNL     1       0.834   9.364  20.850  0.00  0.00    +0.000 A 
ATOM      2  C   UNL     1       0.426  10.039  22.017  0.00  0.00    +0.000 A 
ATOM      3  C   UNL     1      -0.026   9.475  23.312  0.00  0.00    +0.000 C 
ATOM      4  N   UNL     1       0.505  11.369  21.862  0.00  0.00    +0.000 NA
ATOM      5  N   UNL     1       0.796  11.550  20.542  0.00  0.00    +0.000 N 
ATOM      6  C   UNL     1       1.047  10.338  19.896  0.00  0.00    +0.000 A 
ENDROOT
BRANCH   5   7
ATOM      7  C   UNL     1       0.835  12.861  19.990  0.00  0.00    +0.000 A 
ATOM      8  C   UNL     1       1.996  13.635  20.121  0.00  0.00    +0.000 A 
ATOM      9  C   UNL     1       2.065  14.893  19.516  0.00  0.00    +0.000 A 
ATOM     10  C   UNL     1       0.968  15.398  18.817  0.00  0.00    +0.000 A 
ATOM     11  C   UNL     1      -0.206  14.652  18.729  0.00  0.00    +0.000 A 
ATOM     12  C   UNL     1      -0.274  13.386  19.311  0.00  0.00    +0.000 A 
ENDBRANCH   5   7
BRANCH   6  13
ATOM     13  N   UNL     1       1.485  10.205  18.606  0.00  0.00    +0.000 N 
ATOM     14  H   UNL     1       1.946   9.340  18.331  0.00  0.00    +0.000 HD
ATOM     15  H   UNL     1       0.844  10.534  17.883  0.00  0.00    +0.000 HD
ENDBRANCH   6  13
BRANCH   1  17
ATOM     16  N   UNL     1       2.022   7.680  20.076  0.00  0.00    +0.000 NA
ATOM     17  N   UNL     1       0.982   7.971  20.708  0.00  0.00    +0.000 NA
BRANCH  16  23
ATOM     18  C   UNL     1       3.854   4.080  17.151  0.00  0.00    +0.000 C 
ATOM     19  C   UNL     1       3.084   4.537  18.363  0.00  0.00    +0.000 A 
ATOM     20  C   UNL     1       2.493   3.575  19.193  0.00  0.00    +0.000 A 
ATOM     21  C   UNL     1       1.766   3.958  20.316  0.00  0.00    +0.000 A 
ATOM     22  C   UNL     1       1.623   5.309  20.625  0.00  0.00    +0.000 A 
ATOM     23  C   UNL     1       2.208   6.303  19.825  0.00  0.00    +0.000 A 
ATOM     24  C   UNL     1       2.936   5.912  18.673  0.00  0.00    +0.000 A 
ATOM     25  C   UNL     1       3.550   6.947  17.760  0.00  0.00    +0.000 C 
ENDBRANCH  16  23
ENDBRANCH   1  17
TORSDOF 4
ENDMDL
MODEL 9
REMARK VINA RESULT:      -7.0      1.082      1.260
REMARK  Name = 
REMARK  7 active torsions:
REMARK  status: ('A' for Active; 'I' for Inactive)
REMARK    1  A    between atoms: C_1  and  C_2
REMARK    2  A    between atoms: C_6  and  N_7
REMARK    3  A    between atoms: N_8  and  C_9
REMARK    4  A    between atoms: C_10  and  C_11
REMARK    5  A    between atoms: N_13  and  C_14
REMARK    6  A    between atoms: C_20  and  N_21
REMARK    7  A    between atoms: C_22  and  C_23
REMARK                            x       y       z     vdW  Elec       q    Type
REMARK                         _______ _______ _______ _____ _____    ______ ____
ROOT
ATOM      1  C   UNL     1       2.235   6.476  20.021  0.00  0.00    +0.000 A 
ATOM      2  C   UNL     1       2.463   5.101  20.221  0.00  0.00    +0.000 A 
ATOM      3  C   UNL     1       2.096   4.253  21.381  0.00  0.00    +0.000 C 
ATOM      4  N   UNL     1       3.083   4.552  19.166  0.00  0.00    +0.000 NA
ATOM      5  N   UNL     1       3.408   5.608  18.364  0.00  0.00    +0.000 N 
ATOM      6  C   UNL     1       2.865   6.804  18.838  0.00  0.00    +0.000 A 
ENDROOT
BRANCH   5   7
ATOM      7  C   UNL     1       4.194   5.405  17.195  0.00  0.00    +0.000 A 
ATOM      8  C   UNL     1       4.697   6.511  16.496  0.00  0.00    +0.000 A 
ATOM      9  C   UNL     1       5.531   6.316  15.393  0.00  0.00    +0.000 A 
ATOM     10  C   UNL     1       5.833   5.024  14.960  0.00  0.00    +0.000 A 
ATOM     11  C   UNL     1       5.294   3.923  15.623  0.00  0.00    +0.000 A 
ATOM     12  C   UNL     1       4.478   4.110  16.739  0.00  0.00    +0.000 A 
ENDBRANCH   5   7
BRANCH   6  13
ATOM     13  N   UNL     1       2.912   8.006  18.186  0.00  0.00    +0.000 N 
ATOM     14  H   UNL     1       2.380   8.119  17.325  0.00  0.00    +0.000 HD
ATOM     15  H   UNL     1       2.847   8.835  18.777  0.00  0.00    +0.000 HD
ENDBRANCH   6  13
BRANCH   1  17
ATOM     16  N   UNL     1       0.933   8.239  20.238  0.00  0.00    +0.000 NA
ATOM     17  N   UNL     1       1.508   7.329  20.875  0.00  0.00    +0.000 NA
BRANCH  16  23
ATOM     18  C   UNL     1      -1.466  12.598  20.567  0.00  0.00    +0.000 C 
ATOM     19  C   UNL     1      -0.908  11.344  21.189  0.00  0.00    +0.000 A 
ATOM     20  C   UNL     1      -1.022  11.166  22.574  0.00  0.00    +0.000 A 
ATOM     21  C   UNL     1      -0.512  10.026  23.187  0.00  0.00    +0.000 A 
ATOM     22  C   UNL     1       0.117   9.046  22.420  0.00  0.00    +0.000 A 
ATOM     23  C   UNL     1       0.242   9.182  21.029  0.00  0.00    +0.000 A 
ATOM     24  C   UNL     1      -0.266  10.351  20.409  0.00  0.00    +0.000 A 
ATOM     25  C   UNL     1      -0.120  10.559  18.920  0.00  0.00    +0.000 C 
ENDBRANCH  16  23
ENDBRANCH   1  17
TORSDOF 4
ENDMDL
