MODEL 1
REMARK VINA RESULT:      -7.3      0.000      0.000
REMARK  Name = 
REMARK  9 active torsions:
REMARK  status: ('A' for Active; 'I' for Inactive)
REMARK    1  A    between atoms: C_1  and  O_2
REMARK    2  A    between atoms: O_2  and  C_3
REMARK    3  A    between atoms: C_6  and  N_7
REMARK    4  A    between atoms: C_8  and  C_10
REMARK    5  A    between atoms: N_14  and  C_15
REMARK    6  A    between atoms: C_15  and  C_16
REMARK    7  A    between atoms: C_16  and  C_17
REMARK    8  A    between atoms: C_25  and  O_26
REMARK    9  A    between atoms: O_26  and  C_27
REMARK                            x       y       z     vdW  Elec       q    Type
REMARK                         _______ _______ _______ _____ _____    ______ ____
ROOT
ATOM      1  C   UNL     1       1.113   9.283  22.178  0.00  0.00    +0.000 C 
ATOM      2  C   UNL     1       0.144   9.526  23.333  0.00  0.00    +0.000 C 
ATOM      3  C   UNL     1      -0.820  10.549  22.786  0.00  0.00    +0.000 C 
ATOM      4  O   UNL     1      -1.833  10.919  23.356  0.00  0.00    +0.000 OA
ATOM      5  N   UNL     1      -0.315  11.044  21.589  0.00  0.00    +0.000 N 
ATOM      6  C   UNL     1       1.012  10.537  21.332  0.00  0.00    +0.000 C 
ENDROOT
BRANCH   1   8
ATOM      7  N   UNL     1       1.827   7.364  20.917  0.00  0.00    +0.000 N 
ATOM      8  C   UNL     1       0.722   8.010  21.439  0.00  0.00    +0.000 C 
ATOM      9  O   UNL     1      -0.439   7.638  21.313  0.00  0.00    +0.000 OA
ATOM     10  H   UNL     1       2.623   7.944  20.664  0.00  0.00    +0.000 HD
BRANCH   7  14
ATOM     11  C   UNL     1       1.934   3.701  18.860  0.00  0.00    +0.000 A 
ATOM     12  C   UNL     1       1.289   3.780  20.098  0.00  0.00    +0.000 A 
ATOM     13  C   UNL     1       1.199   4.994  20.783  0.00  0.00    +0.000 A 
ATOM     14  C   UNL     1       1.792   6.130  20.235  0.00  0.00    +0.000 A 
ATOM     15  C   UNL     1       2.460   6.062  18.999  0.00  0.00    +0.000 A 
ATOM     16  C   UNL     1       2.508   4.850  18.304  0.00  0.00    +0.000 A 
BRANCH  11  18
ATOM     17  C   UNL     1       3.198   1.900  17.950  0.00  0.00    +0.000 C 
ATOM     18  O   UNL     1       1.934   2.455  18.292  0.00  0.00    +0.000 OA
ENDBRANCH  11  18
BRANCH  15  19
ATOM     19  O   UNL     1       2.964   7.261  18.548  0.00  0.00    +0.000 OA
ATOM     20  C   UNL     1       3.840   7.220  17.432  0.00  0.00    +0.000 C 
ENDBRANCH  15  19
ENDBRANCH   7  14
ENDBRANCH   1   8
BRANCH   5  21
ATOM     21  C   UNL     1      -0.805  12.293  21.017  0.00  0.00    +0.000 C 
BRANCH  21  22
ATOM     22  C   UNL     1      -0.931  12.278  19.494  0.00  0.00    +0.000 C 
BRANCH  22  23
ATOM     23  C   UNL     1      -2.322  11.906  19.033  0.00  0.00    +0.000 A 
ATOM     24  C   UNL     1      -3.452  12.455  19.658  0.00  0.00    +0.000 A 
ATOM     25  C   UNL     1      -4.735  12.104  19.226  0.00  0.00    +0.000 A 
ATOM     26  C   UNL     1      -4.890  11.211  18.177  0.00  0.00    +0.000 A 
ATOM     27  F   UNL     1      -6.122  10.875  17.772  0.00  0.00    +0.000 F 
ATOM     28  C   UNL     1      -3.781  10.651  17.551  0.00  0.00    +0.000 A 
ATOM     29  C   UNL     1      -2.499  10.998  17.977  0.00  0.00    +0.000 A 
ENDBRANCH  22  23
ENDBRANCH  21  22
ENDBRANCH   5  21
TORSDOF 7
ENDMDL
MODEL 2
REMARK VINA RESULT:      -7.2      3.710      6.411
REMARK  Name = 
REMARK  9 active torsions:
REMARK  status: ('A' for Active; 'I' for Inactive)
REMARK    1  A    between atoms: C_1  and  O_2
REMARK    2  A    between atoms: O_2  and  C_3
REMARK    3  A    between atoms: C_6  and  N_7
REMARK    4  A    between atoms: C_8  and  C_10
REMARK    5  A    between atoms: N_14  and  C_15
REMARK    6  A    between atoms: C_15  and  C_16
REMARK    7  A    between atoms: C_16  and  C_17
REMARK    8  A    between atoms: C_25  and  O_26
REMARK    9  A    between atoms: O_26  and  C_27
REMARK                            x       y       z     vdW  Elec       q    Type
REMARK                         _______ _______ _______ _____ _____    ______ ____
ROOT
ATOM      1  C   UNL     1       3.296   2.661  20.039  0.00  0.00    +0.000 C 
ATOM      2  C   UNL     1       1.827   2.285  19.862  0.00  0.00    +0.000 C 
ATOM      3  C   UNL     1       1.102   3.603  19.963  0.00  0.00    +0.000 C 
ATOM      4  O   UNL     1      -0.089   3.756  19.745  0.00  0.00    +0.000 OA
ATOM      5  N   UNL     1       1.991   4.568  20.421  0.00  0.00    +0.000 N 
ATOM      6  C   UNL     1       3.259   3.982  20.782  0.00  0.00    +0.000 C 
ENDROOT
BRANCH   1   8
ATOM      7  N   UNL     1       4.563   3.976  18.474  0.00  0.00    +0.000 N 
ATOM      8  C   UNL     1       3.972   2.742  18.676  0.00  0.00    +0.000 C 
ATOM      9  O   UNL     1       3.959   1.824  17.866  0.00  0.00    +0.000 OA
ATOM     10  H   UNL     1       4.140   4.772  18.944  0.00  0.00    +0.000 HD
BRANCH   7  14
ATOM     11  C   UNL     1       6.958   4.896  15.145  0.00  0.00    +0.000 A 
ATOM     12  C   UNL     1       5.615   4.554  14.958  0.00  0.00    +0.000 A 
ATOM     13  C   UNL     1       4.784   4.287  16.048  0.00  0.00    +0.000 A 
ATOM     14  C   UNL     1       5.316   4.331  17.335  0.00  0.00    +0.000 A 
ATOM     15  C   UNL     1       6.669   4.656  17.539  0.00  0.00    +0.000 A 
ATOM     16  C   UNL     1       7.480   4.960  16.441  0.00  0.00    +0.000 A 
BRANCH  11  18
ATOM     17  C   UNL     1       7.182   4.519  12.804  0.00  0.00    +0.000 C 
ATOM     18  O   UNL     1       7.652   5.147  13.991  0.00  0.00    +0.000 OA
ENDBRANCH  11  18
BRANCH  15  19
ATOM     19  O   UNL     1       7.060   4.707  18.857  0.00  0.00    +0.000 OA
ATOM     20  C   UNL     1       7.839   5.822  19.264  0.00  0.00    +0.000 C 
ENDBRANCH  15  19
ENDBRANCH   7  14
ENDBRANCH   1   8
BRANCH   5  21
ATOM     21  C   UNL     1       1.520   5.831  20.979  0.00  0.00    +0.000 C 
BRANCH  21  22
ATOM     22  C   UNL     1       2.007   7.069  20.226  0.00  0.00    +0.000 C 
BRANCH  22  23
ATOM     23  C   UNL     1       1.318   8.333  20.685  0.00  0.00    +0.000 A 
ATOM     24  C   UNL     1       0.979   8.513  22.035  0.00  0.00    +0.000 A 
ATOM     25  C   UNL     1       0.340   9.685  22.450  0.00  0.00    +0.000 A 
ATOM     26  C   UNL     1       0.040  10.673  21.524  0.00  0.00    +0.000 A 
ATOM     27  F   UNL     1      -0.578  11.791  21.928  0.00  0.00    +0.000 F 
ATOM     28  C   UNL     1       0.361  10.509  20.181  0.00  0.00    +0.000 A 
ATOM     29  C   UNL     1       0.999   9.342  19.761  0.00  0.00    +0.000 A 
ENDBRANCH  22  23
ENDBRANCH  21  22
ENDBRANCH   5  21
TORSDOF 7
ENDMDL
MODEL 3
REMARK VINA RESULT:      -7.2      3.705      8.826
REMARK  Name = 
REMARK  9 active torsions:
REMARK  status: ('A' for Active; 'I' for Inactive)
REMARK    1  A    between atoms: C_1  and  O_2
REMARK    2  A    between atoms: O_2  and  C_3
REMARK    3  A    between atoms: C_6  and  N_7
REMARK    4  A    between atoms: C_8  and  C_10
REMARK    5  A    between atoms: N_14  and  C_15
REMARK    6  A    between atoms: C_15  and  C_16
REMARK    7  A    between atoms: C_16  and  C_17
REMARK    8  A    between atoms: C_25  and  O_26
REMARK    9  A    between atoms: O_26  and  C_27
REMARK                            x       y       z     vdW  Elec       q    Type
REMARK                         _______ _______ _______ _____ _____    ______ ____
ROOT
ATOM      1  C   UNL     1       2.735   5.986  18.673  0.00  0.00    +0.000 C 
ATOM      2  C   UNL     1       2.846   4.473  18.847  0.00  0.00    +0.000 C 
ATOM      3  C   UNL     1       4.246   4.272  19.369  0.00  0.00    +0.000 C 
ATOM      4  O   UNL     1       4.691   3.206  19.763  0.00  0.00    +0.000 OA
ATOM      5  N   UNL     1       4.946   5.466  19.242  0.00  0.00    +0.000 N 
ATOM      6  C   UNL     1       4.170   6.455  18.534  0.00  0.00    +0.000 C 
ENDROOT
BRANCH   1   8
ATOM      7  N   UNL     1       1.898   7.962  19.757  0.00  0.00    +0.000 N 
ATOM      8  C   UNL     1       2.005   6.588  19.866  0.00  0.00    +0.000 C 
ATOM      9  O   UNL     1       1.595   5.919  20.807  0.00  0.00    +0.000 OA
ATOM     10  H   UNL     1       2.630   8.442  19.241  0.00  0.00    +0.000 HD
BRANCH   7  14
ATOM     11  C   UNL     1      -0.301  10.400  22.381  0.00  0.00    +0.000 A 
ATOM     12  C   UNL     1       0.514   9.387  22.897  0.00  0.00    +0.000 A 
ATOM     13  C   UNL     1       1.290   8.591  22.051  0.00  0.00    +0.000 A 
ATOM     14  C   UNL     1       1.221   8.792  20.674  0.00  0.00    +0.000 A 
ATOM     15  C   UNL     1       0.391   9.795  20.140  0.00  0.00    +0.000 A 
ATOM     16  C   UNL     1      -0.349  10.611  20.999  0.00  0.00    +0.000 A 
BRANCH  11  18
ATOM     17  C   UNL     1      -1.449  12.408  22.949  0.00  0.00    +0.000 C 
ATOM     18  O   UNL     1      -0.994  11.113  23.323  0.00  0.00    +0.000 OA
ENDBRANCH  11  18
BRANCH  15  19
ATOM     19  O   UNL     1       0.445   9.920  18.770  0.00  0.00    +0.000 OA
ATOM     20  C   UNL     1      -0.785  10.100  18.084  0.00  0.00    +0.000 C 
ENDBRANCH  15  19
ENDBRANCH   7  14
ENDBRANCH   1   8
BRANCH   5  21
ATOM     21  C   UNL     1       6.404   5.501  19.298  0.00  0.00    +0.000 C 
BRANCH  21  22
ATOM     22  C   UNL     1       7.062   6.133  18.072  0.00  0.00    +0.000 C 
BRANCH  22  23
ATOM     23  C   UNL     1       6.569   5.532  16.776  0.00  0.00    +0.000 A 
ATOM     24  C   UNL     1       5.794   6.290  15.886  0.00  0.00    +0.000 A 
ATOM     25  C   UNL     1       5.340   5.725  14.690  0.00  0.00    +0.000 A 
ATOM     26  C   UNL     1       5.658   4.410  14.384  0.00  0.00    +0.000 A 
ATOM     27  F   UNL     1       5.216   3.874  13.238  0.00  0.00    +0.000 F 
ATOM     28  C   UNL     1       6.419   3.641  15.258  0.00  0.00    +0.000 A 
ATOM     29  C   UNL     1       6.875   4.200  16.452  0.00  0.00    +0.000 A 
ENDBRANCH  22  23
ENDBRANCH  21  22
ENDBRANCH   5  21
TORSDOF 7
ENDMDL
MODEL 4
REMARK VINA RESULT:      -7.2      0.525      1.035
REMARK  Name = 
REMARK  9 active torsions:
REMARK  status: ('A' for Active; 'I' for Inactive)
REMARK    1  A    between atoms: C_1  and  O_2
REMARK    2  A    between atoms: O_2  and  C_3
REMARK    3  A    between atoms: C_6  and  N_7
REMARK    4  A    between atoms: C_8  and  C_10
REMARK    5  A    between atoms: N_14  and  C_15
REMARK    6  A    between atoms: C_15  and  C_16
REMARK    7  A    between atoms: C_16  and  C_17
REMARK    8  A    between atoms: C_25  and  O_26
REMARK    9  A    between atoms: O_26  and  C_27
REMARK                            x       y       z     vdW  Elec       q    Type
REMARK                         _______ _______ _______ _____ _____    ______ ____
ROOT
ATOM      1  C   UNL     1       1.226   9.387  22.002  0.00  0.00    +0.000 C 
ATOM      2  C   UNL     1       0.383   9.583  23.260  0.00  0.00    +0.000 C 
ATOM      3  C   UNL     1      -0.707  10.528  22.820  0.00  0.00    +0.000 C 
ATOM      4  O   UNL     1      -1.670  10.837  23.502  0.00  0.00    +0.000 OA
ATOM      5  N   UNL     1      -0.380  11.036  21.569  0.00  0.00    +0.000 N 
ATOM      6  C   UNL     1       0.940  10.616  21.162  0.00  0.00    +0.000 C 
ENDROOT
BRANCH   1   8
ATOM      7  N   UNL     1       1.951   7.414  20.833  0.00  0.00    +0.000 N 
ATOM      8  C   UNL     1       0.842   8.077  21.325  0.00  0.00    +0.000 C 
ATOM      9  O   UNL     1      -0.317   7.693  21.220  0.00  0.00    +0.000 OA
ATOM     10  H   UNL     1       2.742   7.986  20.551  0.00  0.00    +0.000 HD
BRANCH   7  14
ATOM     11  C   UNL     1       2.073   3.668  18.933  0.00  0.00    +0.000 A 
ATOM     12  C   UNL     1       1.538   3.773  20.221  0.00  0.00    +0.000 A 
ATOM     13  C   UNL     1       1.444   5.012  20.859  0.00  0.00    +0.000 A 
ATOM     14  C   UNL     1       1.922   6.149  20.210  0.00  0.00    +0.000 A 
ATOM     15  C   UNL     1       2.479   6.056  18.922  0.00  0.00    +0.000 A 
ATOM     16  C   UNL     1       2.531   4.816  18.279  0.00  0.00    +0.000 A 
BRANCH  11  18
ATOM     17  C   UNL     1       3.307   1.952  17.835  0.00  0.00    +0.000 C 
ATOM     18  O   UNL     1       2.090   2.397  18.422  0.00  0.00    +0.000 OA
ENDBRANCH  11  18
BRANCH  15  19
ATOM     19  O   UNL     1       2.875   7.255  18.376  0.00  0.00    +0.000 OA
ATOM     20  C   UNL     1       3.913   7.220  17.408  0.00  0.00    +0.000 C 
ENDBRANCH  15  19
ENDBRANCH   7  14
ENDBRANCH   1   8
BRANCH   5  21
ATOM     21  C   UNL     1      -1.019  12.238  21.047  0.00  0.00    +0.000 C 
BRANCH  21  22
ATOM     22  C   UNL     1      -0.805  12.463  19.550  0.00  0.00    +0.000 C 
BRANCH  22  23
ATOM     23  C   UNL     1      -2.006  12.056  18.727  0.00  0.00    +0.000 A 
ATOM     24  C   UNL     1      -1.843  11.525  17.439  0.00  0.00    +0.000 A 
ATOM     25  C   UNL     1      -2.959  11.153  16.683  0.00  0.00    +0.000 A 
ATOM     26  C   UNL     1      -4.232  11.311  17.211  0.00  0.00    +0.000 A 
ATOM     27  F   UNL     1      -5.298  10.958  16.479  0.00  0.00    +0.000 F 
ATOM     28  C   UNL     1      -4.413  11.842  18.483  0.00  0.00    +0.000 A 
ATOM     29  C   UNL     1      -3.303  12.214  19.241  0.00  0.00    +0.000 A 
ENDBRANCH  22  23
ENDBRANCH  21  22
ENDBRANCH   5  21
TORSDOF 7
ENDMDL
MODEL 5
REMARK VINA RESULT:      -7.1      4.675      8.759
REMARK  Name = 
REMARK  9 active torsions:
REMARK  status: ('A' for Active; 'I' for Inactive)
REMARK    1  A    between atoms: C_1  and  O_2
REMARK    2  A    between atoms: O_2  and  C_3
REMARK    3  A    between atoms: C_6  and  N_7
REMARK    4  A    between atoms: C_8  and  C_10
REMARK    5  A    between atoms: N_14  and  C_15
REMARK    6  A    between atoms: C_15  and  C_16
REMARK    7  A    between atoms: C_16  and  C_17
REMARK    8  A    between atoms: C_25  and  O_26
REMARK    9  A    between atoms: O_26  and  C_27
REMARK                            x       y       z     vdW  Elec       q    Type
REMARK                         _______ _______ _______ _____ _____    ______ ____
ROOT
ATOM      1  C   UNL     1       0.317  11.040  19.488  0.00  0.00    +0.000 C 
ATOM      2  C   UNL     1      -0.584  10.863  20.707  0.00  0.00    +0.000 C 
ATOM      3  C   UNL     1       0.014   9.682  21.429  0.00  0.00    +0.000 C 
ATOM      4  O   UNL     1      -0.337   9.293  22.531  0.00  0.00    +0.000 OA
ATOM      5  N   UNL     1       0.952   9.079  20.599  0.00  0.00    +0.000 N 
ATOM      6  C   UNL     1       0.950   9.677  19.286  0.00  0.00    +0.000 C 
ENDROOT
BRANCH   1   8
ATOM      7  N   UNL     1       1.640  12.838  18.592  0.00  0.00    +0.000 N 
ATOM      8  C   UNL     1       1.324  12.152  19.751  0.00  0.00    +0.000 C 
ATOM      9  O   UNL     1       1.801  12.376  20.856  0.00  0.00    +0.000 OA
ATOM     10  H   UNL     1       1.584  12.319  17.720  0.00  0.00    +0.000 HD
BRANCH   7  14
ATOM     11  C   UNL     1       4.121  16.229  18.594  0.00  0.00    +0.000 A 
ATOM     12  C   UNL     1       4.660  14.978  18.274  0.00  0.00    +0.000 A 
ATOM     13  C   UNL     1       3.849  13.842  18.222  0.00  0.00    +0.000 A 
ATOM     14  C   UNL     1       2.495  13.958  18.526  0.00  0.00    +0.000 A 
ATOM     15  C   UNL     1       1.943  15.206  18.868  0.00  0.00    +0.000 A 
ATOM     16  C   UNL     1       2.756  16.343  18.877  0.00  0.00    +0.000 A 
BRANCH  11  18
ATOM     17  C   UNL     1       5.907  17.347  19.704  0.00  0.00    +0.000 C 
ATOM     18  O   UNL     1       5.025  17.259  18.592  0.00  0.00    +0.000 OA
ENDBRANCH  11  18
BRANCH  15  19
ATOM     19  O   UNL     1       0.587  15.193  19.105  0.00  0.00    +0.000 OA
ATOM     20  C   UNL     1      -0.188  16.222  18.509  0.00  0.00    +0.000 C 
ENDBRANCH  15  19
ENDBRANCH   7  14
ENDBRANCH   1   8
BRANCH   5  21
ATOM     21  C   UNL     1       1.421   7.719  20.844  0.00  0.00    +0.000 C 
BRANCH  21  22
ATOM     22  C   UNL     1       2.281   7.141  19.720  0.00  0.00    +0.000 C 
BRANCH  22  23
ATOM     23  C   UNL     1       1.959   5.693  19.433  0.00  0.00    +0.000 A 
ATOM     24  C   UNL     1       2.124   5.166  18.143  0.00  0.00    +0.000 A 
ATOM     25  C   UNL     1       1.823   3.825  17.885  0.00  0.00    +0.000 A 
ATOM     26  C   UNL     1       1.357   3.014  18.909  0.00  0.00    +0.000 A 
ATOM     27  F   UNL     1       1.065   1.731  18.654  0.00  0.00    +0.000 F 
ATOM     28  C   UNL     1       1.180   3.520  20.193  0.00  0.00    +0.000 A 
ATOM     29  C   UNL     1       1.480   4.857  20.455  0.00  0.00    +0.000 A 
ENDBRANCH  22  23
ENDBRANCH  21  22
ENDBRANCH   5  21
TORSDOF 7
ENDMDL
MODEL 6
REMARK VINA RESULT:      -7.0      4.078      9.254
REMARK  Name = 
REMARK  9 active torsions:
REMARK  status: ('A' for Active; 'I' for Inactive)
REMARK    1  A    between atoms: C_1  and  O_2
REMARK    2  A    between atoms: O_2  and  C_3
REMARK    3  A    between atoms: C_6  and  N_7
REMARK    4  A    between atoms: C_8  and  C_10
REMARK    5  A    between atoms: N_14  and  C_15
REMARK    6  A    between atoms: C_15  and  C_16
REMARK    7  A    between atoms: C_16  and  C_17
REMARK    8  A    between atoms: C_25  and  O_26
REMARK    9  A    between atoms: O_26  and  C_27
REMARK                            x       y       z     vdW  Elec       q    Type
REMARK                         _______ _______ _______ _____ _____    ______ ____
ROOT
ATOM      1  C   UNL     1       2.623   6.509  18.130  0.00  0.00    +0.000 C 
ATOM      2  C   UNL     1       2.088   5.097  17.904  0.00  0.00    +0.000 C 
ATOM      3  C   UNL     1       3.238   4.208  18.305  0.00  0.00    +0.000 C 
ATOM      4  O   UNL     1       3.174   2.992  18.395  0.00  0.00    +0.000 OA
ATOM      5  N   UNL     1       4.374   4.991  18.467  0.00  0.00    +0.000 N 
ATOM      6  C   UNL     1       4.130   6.356  18.067  0.00  0.00    +0.000 C 
ENDROOT
BRANCH   1   8
ATOM      7  N   UNL     1       1.653   8.341  19.351  0.00  0.00    +0.000 N 
ATOM      8  C   UNL     1       2.115   7.042  19.464  0.00  0.00    +0.000 C 
ATOM      9  O   UNL     1       2.147   6.391  20.501  0.00  0.00    +0.000 OA
ATOM     10  H   UNL     1       2.082   8.921  18.636  0.00  0.00    +0.000 HD
BRANCH   7  14
ATOM     11  C   UNL     1      -0.248  10.609  22.334  0.00  0.00    +0.000 A 
ATOM     12  C   UNL     1       0.070   9.269  22.581  0.00  0.00    +0.000 A 
ATOM     13  C   UNL     1       0.741   8.504  21.625  0.00  0.00    +0.000 A 
ATOM     14  C   UNL     1       1.066   9.080  20.398  0.00  0.00    +0.000 A 
ATOM     15  C   UNL     1       0.737  10.421  20.129  0.00  0.00    +0.000 A 
ATOM     16  C   UNL     1       0.101  11.188  21.110  0.00  0.00    +0.000 A 
BRANCH  11  18
ATOM     17  C   UNL     1      -2.147  11.843  23.069  0.00  0.00    +0.000 C 
ATOM     18  O   UNL     1      -0.891  11.244  23.364  0.00  0.00    +0.000 OA
ENDBRANCH  11  18
BRANCH  15  19
ATOM     19  O   UNL     1       1.150  10.882  18.900  0.00  0.00    +0.000 OA
ATOM     20  C   UNL     1       1.693  12.192  18.844  0.00  0.00    +0.000 C 
ENDBRANCH  15  19
ENDBRANCH   7  14
ENDBRANCH   1   8
BRANCH   5  21
ATOM     21  C   UNL     1       5.708   4.401  18.478  0.00  0.00    +0.000 C 
BRANCH  21  22
ATOM     22  C   UNL     1       6.725   5.134  17.603  0.00  0.00    +0.000 C 
BRANCH  22  23
ATOM     23  C   UNL     1       6.613   4.753  16.145  0.00  0.00    +0.000 A 
ATOM     24  C   UNL     1       5.630   3.848  15.716  0.00  0.00    +0.000 A 
ATOM     25  C   UNL     1       5.535   3.500  14.365  0.00  0.00    +0.000 A 
ATOM     26  C   UNL     1       6.416   4.052  13.446  0.00  0.00    +0.000 A 
ATOM     27  F   UNL     1       6.323   3.710  12.154  0.00  0.00    +0.000 F 
ATOM     28  C   UNL     1       7.401   4.945  13.855  0.00  0.00    +0.000 A 
ATOM     29  C   UNL     1       7.501   5.296  15.201  0.00  0.00    +0.000 A 
ENDBRANCH  22  23
ENDBRANCH  21  22
ENDBRANCH   5  21
TORSDOF 7
ENDMDL
MODEL 7
REMARK VINA RESULT:      -7.0      3.768      6.476
REMARK  Name = 
REMARK  9 active torsions:
REMARK  status: ('A' for Active; 'I' for Inactive)
REMARK    1  A    between atoms: C_1  and  O_2
REMARK    2  A    between atoms: O_2  and  C_3
REMARK    3  A    between atoms: C_6  and  N_7
REMARK    4  A    between atoms: C_8  and  C_10
REMARK    5  A    between atoms: N_14  and  C_15
REMARK    6  A    between atoms: C_15  and  C_16
REMARK    7  A    between atoms: C_16  and  C_17
REMARK    8  A    between atoms: C_25  and  O_26
REMARK    9  A    between atoms: O_26  and  C_27
REMARK                            x       y       z     vdW  Elec       q    Type
REMARK                         _______ _______ _______ _____ _____    ______ ____
ROOT
ATOM      1  C   UNL     1       3.796   3.329  19.858  0.00  0.00    +0.000 C 
ATOM      2  C   UNL     1       2.568   2.451  20.085  0.00  0.00    +0.000 C 
ATOM      3  C   UNL     1       1.416   3.423  20.038  0.00  0.00    +0.000 C 
ATOM      4  O   UNL     1       0.239   3.103  20.048  0.00  0.00    +0.000 OA
ATOM      5  N   UNL     1       1.922   4.718  20.068  0.00  0.00    +0.000 N 
ATOM      6  C   UNL     1       3.350   4.716  20.276  0.00  0.00    +0.000 C 
ENDROOT
BRANCH   1   8
ATOM      7  N   UNL     1       4.962   4.346  18.016  0.00  0.00    +0.000 N 
ATOM      8  C   UNL     1       4.230   3.237  18.400  0.00  0.00    +0.000 C 
ATOM      9  O   UNL     1       3.934   2.298  17.671  0.00  0.00    +0.000 OA
ATOM     10  H   UNL     1       4.756   5.220  18.491  0.00  0.00    +0.000 HD
BRANCH   7  14
ATOM     11  C   UNL     1       6.881   4.740  14.298  0.00  0.00    +0.000 A 
ATOM     12  C   UNL     1       5.533   4.371  14.345  0.00  0.00    +0.000 A 
ATOM     13  C   UNL     1       4.858   4.276  15.564  0.00  0.00    +0.000 A 
ATOM     14  C   UNL     1       5.552   4.521  16.747  0.00  0.00    +0.000 A 
ATOM     15  C   UNL     1       6.913   4.874  16.717  0.00  0.00    +0.000 A 
ATOM     16  C   UNL     1       7.567   5.005  15.488  0.00  0.00    +0.000 A 
BRANCH  11  18
ATOM     17  C   UNL     1       6.955   3.854  12.089  0.00  0.00    +0.000 C 
ATOM     18  O   UNL     1       7.413   4.809  13.038  0.00  0.00    +0.000 OA
ENDBRANCH  11  18
BRANCH  15  19
ATOM     19  O   UNL     1       7.471   5.130  17.948  0.00  0.00    +0.000 OA
ATOM     20  C   UNL     1       7.732   6.486  18.276  0.00  0.00    +0.000 C 
ENDBRANCH  15  19
ENDBRANCH   7  14
ENDBRANCH   1   8
BRANCH   5  21
ATOM     21  C   UNL     1       1.078   5.855  20.414  0.00  0.00    +0.000 C 
BRANCH  21  22
ATOM     22  C   UNL     1       1.847   7.077  20.916  0.00  0.00    +0.000 C 
BRANCH  22  23
ATOM     23  C   UNL     1       1.415   8.354  20.231  0.00  0.00    +0.000 A 
ATOM     24  C   UNL     1       1.763   8.601  18.894  0.00  0.00    +0.000 A 
ATOM     25  C   UNL     1       1.360   9.785  18.269  0.00  0.00    +0.000 A 
ATOM     26  C   UNL     1       0.614  10.718  18.974  0.00  0.00    +0.000 A 
ATOM     27  F   UNL     1       0.237  11.853  18.370  0.00  0.00    +0.000 F 
ATOM     28  C   UNL     1       0.266  10.493  20.302  0.00  0.00    +0.000 A 
ATOM     29  C   UNL     1       0.665   9.314  20.930  0.00  0.00    +0.000 A 
ENDBRANCH  22  23
ENDBRANCH  21  22
ENDBRANCH   5  21
TORSDOF 7
ENDMDL
MODEL 8
REMARK VINA RESULT:      -7.0      4.057      8.644
REMARK  Name = 
REMARK  9 active torsions:
REMARK  status: ('A' for Active; 'I' for Inactive)
REMARK    1  A    between atoms: C_1  and  O_2
REMARK    2  A    between atoms: O_2  and  C_3
REMARK    3  A    between atoms: C_6  and  N_7
REMARK    4  A    between atoms: C_8  and  C_10
REMARK    5  A    between atoms: N_14  and  C_15
REMARK    6  A    between atoms: C_15  and  C_16
REMARK    7  A    between atoms: C_16  and  C_17
REMARK    8  A    between atoms: C_25  and  O_26
REMARK    9  A    between atoms: O_26  and  C_27
REMARK                            x       y       z     vdW  Elec       q    Type
REMARK                         _______ _______ _______ _____ _____    ______ ____
ROOT
ATOM      1  C   UNL     1       0.187  11.921  20.294  0.00  0.00    +0.000 C 
ATOM      2  C   UNL     1       1.420  12.723  19.885  0.00  0.00    +0.000 C 
ATOM      3  C   UNL     1       2.001  11.933  18.740  0.00  0.00    +0.000 C 
ATOM      4  O   UNL     1       2.930  12.306  18.042  0.00  0.00    +0.000 OA
ATOM      5  N   UNL     1       1.364  10.699  18.680  0.00  0.00    +0.000 N 
ATOM      6  C   UNL     1       0.470  10.516  19.798  0.00  0.00    +0.000 C 
ENDROOT
BRANCH   1   8
ATOM      7  N   UNL     1      -2.023  11.597  19.403  0.00  0.00    +0.000 N 
ATOM      8  C   UNL     1      -1.060  12.548  19.683  0.00  0.00    +0.000 C 
ATOM      9  O   UNL     1      -1.162  13.747  19.454  0.00  0.00    +0.000 OA
ATOM     10  H   UNL     1      -1.696  10.660  19.184  0.00  0.00    +0.000 HD
BRANCH   7  14
ATOM     11  C   UNL     1      -5.864  12.228  17.818  0.00  0.00    +0.000 A 
ATOM     12  C   UNL     1      -5.574  12.652  19.119  0.00  0.00    +0.000 A 
ATOM     13  C   UNL     1      -4.294  12.495  19.655  0.00  0.00    +0.000 A 
ATOM     14  C   UNL     1      -3.307  11.878  18.890  0.00  0.00    +0.000 A 
ATOM     15  C   UNL     1      -3.588  11.429  17.587  0.00  0.00    +0.000 A 
ATOM     16  C   UNL     1      -4.862  11.628  17.047  0.00  0.00    +0.000 A 
BRANCH  11  18
ATOM     17  C   UNL     1      -7.914  13.385  18.176  0.00  0.00    +0.000 C 
ATOM     18  O   UNL     1      -7.153  12.457  17.414  0.00  0.00    +0.000 OA
ENDBRANCH  11  18
BRANCH  15  19
ATOM     19  O   UNL     1      -2.518  10.876  16.922  0.00  0.00    +0.000 OA
ATOM     20  C   UNL     1      -2.725  10.468  15.579  0.00  0.00    +0.000 C 
ENDBRANCH  15  19
ENDBRANCH   7  14
ENDBRANCH   1   8
BRANCH   5  21
ATOM     21  C   UNL     1       1.944   9.580  17.945  0.00  0.00    +0.000 C 
BRANCH  21  22
ATOM     22  C   UNL     1       1.784   8.226  18.636  0.00  0.00    +0.000 C 
BRANCH  22  23
ATOM     23  C   UNL     1       2.717   7.177  18.076  0.00  0.00    +0.000 A 
ATOM     24  C   UNL     1       3.858   7.550  17.350  0.00  0.00    +0.000 A 
ATOM     25  C   UNL     1       4.715   6.573  16.834  0.00  0.00    +0.000 A 
ATOM     26  C   UNL     1       4.435   5.231  17.041  0.00  0.00    +0.000 A 
ATOM     27  F   UNL     1       5.258   4.299  16.539  0.00  0.00    +0.000 F 
ATOM     28  C   UNL     1       3.305   4.842  17.753  0.00  0.00    +0.000 A 
ATOM     29  C   UNL     1       2.447   5.813  18.270  0.00  0.00    +0.000 A 
ENDBRANCH  22  23
ENDBRANCH  21  22
ENDBRANCH   5  21
TORSDOF 7
ENDMDL
MODEL 9
REMARK VINA RESULT:      -7.0      4.643      8.900
REMARK  Name = 
REMARK  9 active torsions:
REMARK  status: ('A' for Active; 'I' for Inactive)
REMARK    1  A    between atoms: C_1  and  O_2
REMARK    2  A    between atoms: O_2  and  C_3
REMARK    3  A    between atoms: C_6  and  N_7
REMARK    4  A    between atoms: C_8  and  C_10
REMARK    5  A    between atoms: N_14  and  C_15
REMARK    6  A    between atoms: C_15  and  C_16
REMARK    7  A    between atoms: C_16  and  C_17
REMARK    8  A    between atoms: C_25  and  O_26
REMARK    9  A    between atoms: O_26  and  C_27
REMARK                            x       y       z     vdW  Elec       q    Type
REMARK                         _______ _______ _______ _____ _____    ______ ____
ROOT
ATOM      1  C   UNL     1       0.289  11.107  19.422  0.00  0.00    +0.000 C 
ATOM      2  C   UNL     1       0.014  11.165  20.922  0.00  0.00    +0.000 C 
ATOM      3  C   UNL     1       0.801  10.005  21.478  0.00  0.00    +0.000 C 
ATOM      4  O   UNL     1       0.953   9.778  22.668  0.00  0.00    +0.000 OA
ATOM      5  N   UNL     1       1.237   9.213  20.422  0.00  0.00    +0.000 N 
ATOM      6  C   UNL     1       0.687   9.666  19.167  0.00  0.00    +0.000 C 
ENDROOT
BRANCH   1   8
ATOM      7  N   UNL     1       1.186  13.319  19.716  0.00  0.00    +0.000 N 
ATOM      8  C   UNL     1       1.371  12.116  19.059  0.00  0.00    +0.000 C 
ATOM      9  O   UNL     1       2.269  11.877  18.260  0.00  0.00    +0.000 OA
ATOM     10  H   UNL     1       0.232  13.573  19.952  0.00  0.00    +0.000 HD
BRANCH   7  14
ATOM     11  C   UNL     1       3.630  16.734  19.555  0.00  0.00    +0.000 A 
ATOM     12  C   UNL     1       4.126  15.554  20.121  0.00  0.00    +0.000 A 
ATOM     13  C   UNL     1       3.352  14.392  20.148  0.00  0.00    +0.000 A 
ATOM     14  C   UNL     1       2.058  14.424  19.632  0.00  0.00    +0.000 A 
ATOM     15  C   UNL     1       1.539  15.608  19.077  0.00  0.00    +0.000 A 
ATOM     16  C   UNL     1       2.338  16.753  19.020  0.00  0.00    +0.000 A 
BRANCH  11  18
ATOM     17  C   UNL     1       5.859  17.504  19.886  0.00  0.00    +0.000 C 
ATOM     18  O   UNL     1       4.500  17.792  19.582  0.00  0.00    +0.000 OA
ENDBRANCH  11  18
BRANCH  15  19
ATOM     19  O   UNL     1       0.267  15.496  18.564  0.00  0.00    +0.000 OA
ATOM     20  C   UNL     1      -0.534  16.669  18.547  0.00  0.00    +0.000 C 
ENDBRANCH  15  19
ENDBRANCH   7  14
ENDBRANCH   1   8
BRANCH   5  21
ATOM     21  C   UNL     1       1.686   7.842  20.636  0.00  0.00    +0.000 C 
BRANCH  21  22
ATOM     22  C   UNL     1       2.334   7.197  19.411  0.00  0.00    +0.000 C 
BRANCH  22  23
ATOM     23  C   UNL     1       1.950   5.744  19.252  0.00  0.00    +0.000 A 
ATOM     24  C   UNL     1       1.376   5.035  20.318  0.00  0.00    +0.000 A 
ATOM     25  C   UNL     1       1.025   3.691  20.162  0.00  0.00    +0.000 A 
ATOM     26  C   UNL     1       1.246   3.056  18.949  0.00  0.00    +0.000 A 
ATOM     27  F   UNL     1       0.912   1.766  18.808  0.00  0.00    +0.000 F 
ATOM     28  C   UNL     1       1.821   3.741  17.883  0.00  0.00    +0.000 A 
ATOM     29  C   UNL     1       2.173   5.082  18.033  0.00  0.00    +0.000 A 
ENDBRANCH  22  23
ENDBRANCH  21  22
ENDBRANCH   5  21
TORSDOF 7
ENDMDL
