MODEL 1
REMARK VINA RESULT:      -8.7      0.000      0.000
REMARK  Name = 
REMARK  9 active torsions:
REMARK  status: ('A' for Active; 'I' for Inactive)
REMARK    1  A    between atoms: C_1  and  C_2
REMARK    2  A    between atoms: C_4  and  N_5
REMARK    3  A    between atoms: C_6  and  C_8
REMARK    4  A    between atoms: C_8  and  O_9
REMARK    5  A    between atoms: C_8  and  C_10
REMARK    6  A    between atoms: C_20  and  C_21
REMARK    7  A    between atoms: C_24  and  N_25
REMARK    8  A    between atoms: C_26  and  C_27
REMARK    9  A    between atoms: C_27  and  O_29
REMARK                            x       y       z     vdW  Elec       q    Type
REMARK                         _______ _______ _______ _____ _____    ______ ____
ROOT
ATOM      1  C   UNL     1       0.596   8.784  21.768  0.00  0.00    +0.000 C 
ATOM      2  C   UNL     1       1.165   8.626  20.379  0.00  0.00    +0.000 A 
ATOM      3  C   UNL     1       1.924   7.453  20.163  0.00  0.00    +0.000 A 
ATOM      4  C   UNL     1       2.450   7.118  18.920  0.00  0.00    +0.000 A 
ATOM      5  C   UNL     1       2.270   8.017  17.874  0.00  0.00    +0.000 A 
ATOM      6  C   UNL     1       1.551   9.210  18.076  0.00  0.00    +0.000 A 
ATOM      7  C   UNL     1       0.977   9.548  19.323  0.00  0.00    +0.000 A 
ENDROOT
BRANCH   7   8
ATOM      8  C   UNL     1       0.213  10.825  19.459  0.00  0.00    +0.000 A 
ATOM      9  C   UNL     1       0.818  12.025  19.843  0.00  0.00    +0.000 A 
ATOM     10  N   UNL     1       0.181  13.218  20.004  0.00  0.00    +0.000 NA
ATOM     11  C   UNL     1      -1.135  13.259  19.735  0.00  0.00    +0.000 A 
ATOM     12  C   UNL     1      -1.844  12.146  19.298  0.00  0.00    +0.000 A 
ATOM     13  C   UNL     1      -1.162  10.922  19.217  0.00  0.00    +0.000 A 
BRANCH  11  14
ATOM     14  N   UNL     1      -1.750  14.500  19.979  0.00  0.00    +0.000 N 
ATOM     15  H   UNL     1      -1.248  15.158  19.376  0.00  0.00    +0.000 HD
ATOM     16  H   UNL     1      -1.565  14.773  20.948  0.00  0.00    +0.000 HD
ENDBRANCH  11  14
BRANCH  12  17
ATOM     17  C   UNL     1      -3.263  12.181  18.860  0.00  0.00    +0.000 C 
ATOM     18  O   UNL     1      -4.183  12.352  19.644  0.00  0.00    +0.000 OA
BRANCH  17  19
ATOM     19  O   UNL     1      -3.468  11.971  17.542  0.00  0.00    +0.000 OA
ATOM     20  H   UNL     1      -4.422  11.972  17.288  0.00  0.00    +0.000 HD
ENDBRANCH  17  19
ENDBRANCH  12  17
ENDBRANCH   7   8
BRANCH   4  21
ATOM     21  N   UNL     1       3.152   5.913  18.681  0.00  0.00    +0.000 N 
ATOM     22  C   UNL     1       2.594   4.737  18.197  0.00  0.00    +0.000 C 
ATOM     23  O   UNL     1       1.425   4.582  17.838  0.00  0.00    +0.000 OA
ATOM     24  H   UNL     1       4.163   5.963  18.733  0.00  0.00    +0.000 HD
BRANCH  22  25
ATOM     25  C   UNL     1       3.583   3.563  18.033  0.00  0.00    +0.000 C 
BRANCH  25  26
ATOM     26  C   UNL     1       4.911   3.963  17.408  0.00  0.00    +0.000 A 
ATOM     27  C   UNL     1       5.079   3.933  16.011  0.00  0.00    +0.000 A 
ATOM     28  C   UNL     1       6.299   4.283  15.434  0.00  0.00    +0.000 A 
ATOM     29  F   UNL     1       6.435   4.222  14.103  0.00  0.00    +0.000 F 
ATOM     30  C   UNL     1       7.370   4.690  16.211  0.00  0.00    +0.000 A 
ATOM     31  C   UNL     1       7.202   4.754  17.585  0.00  0.00    +0.000 A 
ATOM     32  F   UNL     1       8.223   5.155  18.354  0.00  0.00    +0.000 F 
ATOM     33  C   UNL     1       5.993   4.407  18.189  0.00  0.00    +0.000 A 
ENDBRANCH  25  26
BRANCH  25  34
ATOM     34  O   UNL     1       3.806   3.078  19.367  0.00  0.00    +0.000 OA
ATOM     35  H   UNL     1       4.774   2.938  19.424  0.00  0.00    +0.000 HD
ENDBRANCH  25  34
ENDBRANCH  22  25
ENDBRANCH   4  21
TORSDOF 8
ENDMDL
MODEL 2
REMARK VINA RESULT:      -8.7      0.165      1.506
REMARK  Name = 
REMARK  9 active torsions:
REMARK  status: ('A' for Active; 'I' for Inactive)
REMARK    1  A    between atoms: C_1  and  C_2
REMARK    2  A    between atoms: C_4  and  N_5
REMARK    3  A    between atoms: C_6  and  C_8
REMARK    4  A    between atoms: C_8  and  O_9
REMARK    5  A    between atoms: C_8  and  C_10
REMARK    6  A    between atoms: C_20  and  C_21
REMARK    7  A    between atoms: C_24  and  N_25
REMARK    8  A    between atoms: C_26  and  C_27
REMARK    9  A    between atoms: C_27  and  O_29
REMARK                            x       y       z     vdW  Elec       q    Type
REMARK                         _______ _______ _______ _____ _____    ______ ____
ROOT
ATOM      1  C   UNL     1       0.539   8.893  21.882  0.00  0.00    +0.000 C 
ATOM      2  C   UNL     1       1.116   8.718  20.499  0.00  0.00    +0.000 A 
ATOM      3  C   UNL     1       1.873   7.541  20.302  0.00  0.00    +0.000 A 
ATOM      4  C   UNL     1       2.407   7.189  19.066  0.00  0.00    +0.000 A 
ATOM      5  C   UNL     1       2.236   8.077  18.008  0.00  0.00    +0.000 A 
ATOM      6  C   UNL     1       1.519   9.274  18.192  0.00  0.00    +0.000 A 
ATOM      7  C   UNL     1       0.937   9.629  19.432  0.00  0.00    +0.000 A 
ENDROOT
BRANCH   7   8
ATOM      8  C   UNL     1       0.176  10.908  19.548  0.00  0.00    +0.000 A 
ATOM      9  C   UNL     1       0.798  12.130  19.817  0.00  0.00    +0.000 A 
ATOM     10  N   UNL     1       0.166  13.329  19.954  0.00  0.00    +0.000 NA
ATOM     11  C   UNL     1      -1.167  13.350  19.779  0.00  0.00    +0.000 A 
ATOM     12  C   UNL     1      -1.897  12.212  19.459  0.00  0.00    +0.000 A 
ATOM     13  C   UNL     1      -1.214  10.987  19.400  0.00  0.00    +0.000 A 
BRANCH  11  14
ATOM     14  N   UNL     1      -1.771  14.601  19.995  0.00  0.00    +0.000 N 
ATOM     15  H   UNL     1      -2.329  14.766  19.151  0.00  0.00    +0.000 HD
ATOM     16  H   UNL     1      -1.042  15.319  20.022  0.00  0.00    +0.000 HD
ENDBRANCH  11  14
BRANCH  12  17
ATOM     17  C   UNL     1      -3.344  12.217  19.124  0.00  0.00    +0.000 C 
ATOM     18  O   UNL     1      -4.204  12.476  19.950  0.00  0.00    +0.000 OA
BRANCH  17  19
ATOM     19  O   UNL     1      -3.645  11.875  17.852  0.00  0.00    +0.000 OA
ATOM     20  H   UNL     1      -4.615  11.850  17.672  0.00  0.00    +0.000 HD
ENDBRANCH  17  19
ENDBRANCH  12  17
ENDBRANCH   7   8
BRANCH   4  21
ATOM     21  N   UNL     1       3.107   5.980  18.845  0.00  0.00    +0.000 N 
ATOM     22  C   UNL     1       2.592   4.852  18.220  0.00  0.00    +0.000 C 
ATOM     23  O   UNL     1       1.476   4.754  17.704  0.00  0.00    +0.000 OA
ATOM     24  H   UNL     1       4.104   5.997  19.031  0.00  0.00    +0.000 HD
BRANCH  22  25
ATOM     25  C   UNL     1       3.567   3.661  18.113  0.00  0.00    +0.000 C 
BRANCH  25  26
ATOM     26  C   UNL     1       4.892   4.011  17.453  0.00  0.00    +0.000 A 
ATOM     27  C   UNL     1       5.993   4.410  18.233  0.00  0.00    +0.000 A 
ATOM     28  C   UNL     1       7.205   4.747  17.633  0.00  0.00    +0.000 A 
ATOM     29  F   UNL     1       8.228   5.147  18.401  0.00  0.00    +0.000 F 
ATOM     30  C   UNL     1       7.370   4.679  16.260  0.00  0.00    +0.000 A 
ATOM     31  C   UNL     1       6.301   4.254  15.487  0.00  0.00    +0.000 A 
ATOM     32  F   UNL     1       6.443   4.170  14.158  0.00  0.00    +0.000 F 
ATOM     33  C   UNL     1       5.075   3.913  16.062  0.00  0.00    +0.000 A 
ENDBRANCH  25  26
BRANCH  25  34
ATOM     34  O   UNL     1       3.800   3.250  19.470  0.00  0.00    +0.000 OA
ATOM     35  H   UNL     1       3.752   4.077  19.994  0.00  0.00    +0.000 HD
ENDBRANCH  25  34
ENDBRANCH  22  25
ENDBRANCH   4  21
TORSDOF 8
ENDMDL
MODEL 3
REMARK VINA RESULT:      -8.5      2.820      3.712
REMARK  Name = 
REMARK  9 active torsions:
REMARK  status: ('A' for Active; 'I' for Inactive)
REMARK    1  A    between atoms: C_1  and  C_2
REMARK    2  A    between atoms: C_4  and  N_5
REMARK    3  A    between atoms: C_6  and  C_8
REMARK    4  A    between atoms: C_8  and  O_9
REMARK    5  A    between atoms: C_8  and  C_10
REMARK    6  A    between atoms: C_20  and  C_21
REMARK    7  A    between atoms: C_24  and  N_25
REMARK    8  A    between atoms: C_26  and  C_27
REMARK    9  A    between atoms: C_27  and  O_29
REMARK                            x       y       z     vdW  Elec       q    Type
REMARK                         _______ _______ _______ _____ _____    ______ ____
ROOT
ATOM      1  C   UNL     1       1.427   6.306  20.870  0.00  0.00    +0.000 C 
ATOM      2  C   UNL     1       2.171   6.801  19.654  0.00  0.00    +0.000 A 
ATOM      3  C   UNL     1       3.105   5.895  19.102  0.00  0.00    +0.000 A 
ATOM      4  C   UNL     1       3.814   6.164  17.936  0.00  0.00    +0.000 A 
ATOM      5  C   UNL     1       3.634   7.407  17.339  0.00  0.00    +0.000 A 
ATOM      6  C   UNL     1       2.739   8.341  17.893  0.00  0.00    +0.000 A 
ATOM      7  C   UNL     1       1.982   8.069  19.056  0.00  0.00    +0.000 A 
ENDROOT
BRANCH   7   8
ATOM      8  C   UNL     1       1.038   9.103  19.578  0.00  0.00    +0.000 A 
ATOM      9  C   UNL     1       0.315   9.953  18.737  0.00  0.00    +0.000 A 
ATOM     10  N   UNL     1      -0.546  10.927  19.143  0.00  0.00    +0.000 NA
ATOM     11  C   UNL     1      -0.750  11.061  20.465  0.00  0.00    +0.000 A 
ATOM     12  C   UNL     1      -0.129  10.246  21.404  0.00  0.00    +0.000 A 
ATOM     13  C   UNL     1       0.805   9.305  20.943  0.00  0.00    +0.000 A 
BRANCH  11  14
ATOM     14  N   UNL     1      -1.598  12.122  20.826  0.00  0.00    +0.000 N 
ATOM     15  H   UNL     1      -2.088  12.367  19.960  0.00  0.00    +0.000 HD
ATOM     16  H   UNL     1      -1.024  12.928  21.089  0.00  0.00    +0.000 HD
ENDBRANCH  11  14
BRANCH  12  17
ATOM     17  C   UNL     1      -0.431  10.271  22.858  0.00  0.00    +0.000 C 
ATOM     18  O   UNL     1      -1.440  10.793  23.306  0.00  0.00    +0.000 OA
BRANCH  17  19
ATOM     19  O   UNL     1       0.506   9.712  23.653  0.00  0.00    +0.000 OA
ATOM     20  H   UNL     1       0.141   9.037  24.274  0.00  0.00    +0.000 HD
ENDBRANCH  17  19
ENDBRANCH  12  17
ENDBRANCH   7   8
BRANCH   4  21
ATOM     21  N   UNL     1       4.699   5.234  17.340  0.00  0.00    +0.000 N 
ATOM     22  C   UNL     1       5.985   5.514  16.898  0.00  0.00    +0.000 C 
ATOM     23  O   UNL     1       6.576   6.590  17.018  0.00  0.00    +0.000 OA
ATOM     24  H   UNL     1       4.418   4.261  17.374  0.00  0.00    +0.000 HD
BRANCH  22  25
ATOM     25  C   UNL     1       6.738   4.318  16.279  0.00  0.00    +0.000 C 
BRANCH  25  26
ATOM     26  C   UNL     1       6.820   4.365  14.761  0.00  0.00    +0.000 A 
ATOM     27  C   UNL     1       6.059   3.475  13.979  0.00  0.00    +0.000 A 
ATOM     28  C   UNL     1       6.143   3.503  12.587  0.00  0.00    +0.000 A 
ATOM     29  F   UNL     1       5.425   2.628  11.871  0.00  0.00    +0.000 F 
ATOM     30  C   UNL     1       6.955   4.415  11.934  0.00  0.00    +0.000 A 
ATOM     31  C   UNL     1       7.681   5.316  12.697  0.00  0.00    +0.000 A 
ATOM     32  F   UNL     1       8.464   6.213  12.084  0.00  0.00    +0.000 F 
ATOM     33  C   UNL     1       7.619   5.309  14.091  0.00  0.00    +0.000 A 
ENDBRANCH  25  26
BRANCH  25  34
ATOM     34  O   UNL     1       8.062   4.386  16.834  0.00  0.00    +0.000 OA
ATOM     35  H   UNL     1       7.985   5.003  17.591  0.00  0.00    +0.000 HD
ENDBRANCH  25  34
ENDBRANCH  22  25
ENDBRANCH   4  21
TORSDOF 8
ENDMDL
MODEL 4
REMARK VINA RESULT:      -8.4      2.833      3.769
REMARK  Name = 
REMARK  9 active torsions:
REMARK  status: ('A' for Active; 'I' for Inactive)
REMARK    1  A    between atoms: C_1  and  C_2
REMARK    2  A    between atoms: C_4  and  N_5
REMARK    3  A    between atoms: C_6  and  C_8
REMARK    4  A    between atoms: C_8  and  O_9
REMARK    5  A    between atoms: C_8  and  C_10
REMARK    6  A    between atoms: C_20  and  C_21
REMARK    7  A    between atoms: C_24  and  N_25
REMARK    8  A    between atoms: C_26  and  C_27
REMARK    9  A    between atoms: C_27  and  O_29
REMARK                            x       y       z     vdW  Elec       q    Type
REMARK                         _______ _______ _______ _____ _____    ______ ____
ROOT
ATOM      1  C   UNL     1       1.490   6.539  20.967  0.00  0.00    +0.000 C 
ATOM      2  C   UNL     1       2.178   6.978  19.698  0.00  0.00    +0.000 A 
ATOM      3  C   UNL     1       3.114   6.061  19.166  0.00  0.00    +0.000 A 
ATOM      4  C   UNL     1       3.775   6.277  17.961  0.00  0.00    +0.000 A 
ATOM      5  C   UNL     1       3.545   7.479  17.300  0.00  0.00    +0.000 A 
ATOM      6  C   UNL     1       2.648   8.423  17.831  0.00  0.00    +0.000 A 
ATOM      7  C   UNL     1       1.938   8.204  19.035  0.00  0.00    +0.000 A 
ENDROOT
BRANCH   7   8
ATOM      8  C   UNL     1       0.989   9.246  19.529  0.00  0.00    +0.000 A 
ATOM      9  C   UNL     1       0.270  10.078  18.667  0.00  0.00    +0.000 A 
ATOM     10  N   UNL     1      -0.596  11.058  19.048  0.00  0.00    +0.000 NA
ATOM     11  C   UNL     1      -0.809  11.217  20.365  0.00  0.00    +0.000 A 
ATOM     12  C   UNL     1      -0.194  10.422  21.324  0.00  0.00    +0.000 A 
ATOM     13  C   UNL     1       0.746   9.474  20.889  0.00  0.00    +0.000 A 
BRANCH  11  14
ATOM     14  N   UNL     1      -1.662  12.284  20.700  0.00  0.00    +0.000 N 
ATOM     15  H   UNL     1      -2.546  12.062  20.232  0.00  0.00    +0.000 HD
ATOM     16  H   UNL     1      -1.299  13.141  20.276  0.00  0.00    +0.000 HD
ENDBRANCH  11  14
BRANCH  12  17
ATOM     17  C   UNL     1      -0.505  10.475  22.776  0.00  0.00    +0.000 C 
ATOM     18  O   UNL     1      -0.764  11.521  23.350  0.00  0.00    +0.000 OA
BRANCH  17  19
ATOM     19  O   UNL     1      -0.444   9.292  23.425  0.00  0.00    +0.000 OA
ATOM     20  H   UNL     1      -0.791   8.536  22.894  0.00  0.00    +0.000 HD
ENDBRANCH  17  19
ENDBRANCH  12  17
ENDBRANCH   7   8
BRANCH   4  21
ATOM     21  N   UNL     1       4.661   5.333  17.389  0.00  0.00    +0.000 N 
ATOM     22  C   UNL     1       5.900   5.623  16.834  0.00  0.00    +0.000 C 
ATOM     23  O   UNL     1       6.446   6.729  16.815  0.00  0.00    +0.000 OA
ATOM     24  H   UNL     1       4.429   4.356  17.529  0.00  0.00    +0.000 HD
BRANCH  22  25
ATOM     25  C   UNL     1       6.665   4.407  16.271  0.00  0.00    +0.000 C 
BRANCH  25  26
ATOM     26  C   UNL     1       6.761   4.392  14.753  0.00  0.00    +0.000 A 
ATOM     27  C   UNL     1       7.623   5.282  14.085  0.00  0.00    +0.000 A 
ATOM     28  C   UNL     1       7.703   5.283  12.693  0.00  0.00    +0.000 A 
ATOM     29  F   UNL     1       8.515   6.158  12.084  0.00  0.00    +0.000 F 
ATOM     30  C   UNL     1       6.958   4.400  11.930  0.00  0.00    +0.000 A 
ATOM     31  C   UNL     1       6.132   3.498  12.582  0.00  0.00    +0.000 A 
ATOM     32  F   UNL     1       5.411   2.629  11.862  0.00  0.00    +0.000 F 
ATOM     33  C   UNL     1       6.031   3.477  13.973  0.00  0.00    +0.000 A 
ENDBRANCH  25  26
BRANCH  25  34
ATOM     34  O   UNL     1       7.983   4.506  16.834  0.00  0.00    +0.000 OA
ATOM     35  H   UNL     1       8.313   3.583  16.865  0.00  0.00    +0.000 HD
ENDBRANCH  25  34
ENDBRANCH  22  25
ENDBRANCH   4  21
TORSDOF 8
ENDMDL
MODEL 5
REMARK VINA RESULT:      -8.4      1.686      2.571
REMARK  Name = 
REMARK  9 active torsions:
REMARK  status: ('A' for Active; 'I' for Inactive)
REMARK    1  A    between atoms: C_1  and  C_2
REMARK    2  A    between atoms: C_4  and  N_5
REMARK    3  A    between atoms: C_6  and  C_8
REMARK    4  A    between atoms: C_8  and  O_9
REMARK    5  A    between atoms: C_8  and  C_10
REMARK    6  A    between atoms: C_20  and  C_21
REMARK    7  A    between atoms: C_24  and  N_25
REMARK    8  A    between atoms: C_26  and  C_27
REMARK    9  A    between atoms: C_27  and  O_29
REMARK                            x       y       z     vdW  Elec       q    Type
REMARK                         _______ _______ _______ _____ _____    ______ ____
ROOT
ATOM      1  C   UNL     1       0.468   8.783  21.851  0.00  0.00    +0.000 C 
ATOM      2  C   UNL     1       1.116   8.690  20.492  0.00  0.00    +0.000 A 
ATOM      3  C   UNL     1       1.843   7.503  20.245  0.00  0.00    +0.000 A 
ATOM      4  C   UNL     1       2.433   7.225  19.016  0.00  0.00    +0.000 A 
ATOM      5  C   UNL     1       2.351   8.194  18.022  0.00  0.00    +0.000 A 
ATOM      6  C   UNL     1       1.666   9.401  18.259  0.00  0.00    +0.000 A 
ATOM      7  C   UNL     1       1.028   9.683  19.489  0.00  0.00    +0.000 A 
ENDROOT
BRANCH   7   8
ATOM      8  C   UNL     1       0.305  10.979  19.661  0.00  0.00    +0.000 A 
ATOM      9  C   UNL     1      -0.838  11.305  18.928  0.00  0.00    +0.000 A 
ATOM     10  N   UNL     1      -1.535  12.472  19.021  0.00  0.00    +0.000 NA
ATOM     11  C   UNL     1      -1.112  13.375  19.921  0.00  0.00    +0.000 A 
ATOM     12  C   UNL     1      -0.017  13.152  20.747  0.00  0.00    +0.000 A 
ATOM     13  C   UNL     1       0.713  11.968  20.565  0.00  0.00    +0.000 A 
BRANCH  11  14
ATOM     14  N   UNL     1      -1.831  14.583  19.928  0.00  0.00    +0.000 N 
ATOM     15  H   UNL     1      -2.304  14.606  19.019  0.00  0.00    +0.000 HD
ATOM     16  H   UNL     1      -1.167  15.362  19.944  0.00  0.00    +0.000 HD
ENDBRANCH  11  14
BRANCH  12  17
ATOM     17  C   UNL     1       0.398  14.062  21.845  0.00  0.00    +0.000 C 
ATOM     18  O   UNL     1       1.571  14.301  22.085  0.00  0.00    +0.000 OA
BRANCH  17  19
ATOM     19  O   UNL     1      -0.609  14.576  22.584  0.00  0.00    +0.000 OA
ATOM     20  H   UNL     1      -0.571  15.558  22.669  0.00  0.00    +0.000 HD
ENDBRANCH  17  19
ENDBRANCH  12  17
ENDBRANCH   7   8
BRANCH   4  21
ATOM     21  N   UNL     1       3.103   6.009  18.741  0.00  0.00    +0.000 N 
ATOM     22  C   UNL     1       2.545   4.905  18.111  0.00  0.00    +0.000 C 
ATOM     23  O   UNL     1       1.409   4.838  17.635  0.00  0.00    +0.000 OA
ATOM     24  H   UNL     1       4.106   6.005  18.889  0.00  0.00    +0.000 HD
BRANCH  22  25
ATOM     25  C   UNL     1       3.495   3.701  17.939  0.00  0.00    +0.000 C 
BRANCH  25  26
ATOM     26  C   UNL     1       4.829   4.058  17.303  0.00  0.00    +0.000 A 
ATOM     27  C   UNL     1       5.957   4.313  18.107  0.00  0.00    +0.000 A 
ATOM     28  C   UNL     1       7.178   4.656  17.530  0.00  0.00    +0.000 A 
ATOM     29  F   UNL     1       8.227   4.916  18.322  0.00  0.00    +0.000 F 
ATOM     30  C   UNL     1       7.326   4.736  16.155  0.00  0.00    +0.000 A 
ATOM     31  C   UNL     1       6.229   4.453  15.356  0.00  0.00    +0.000 A 
ATOM     32  F   UNL     1       6.354   4.515  14.024  0.00  0.00    +0.000 F 
ATOM     33  C   UNL     1       4.994   4.110  15.907  0.00  0.00    +0.000 A 
ENDBRANCH  25  26
BRANCH  25  34
ATOM     34  O   UNL     1       3.714   3.210  19.272  0.00  0.00    +0.000 OA
ATOM     35  H   UNL     1       3.683   4.007  19.841  0.00  0.00    +0.000 HD
ENDBRANCH  25  34
ENDBRANCH  22  25
ENDBRANCH   4  21
TORSDOF 8
ENDMDL
MODEL 6
REMARK VINA RESULT:      -8.4      2.345      3.052
REMARK  Name = 
REMARK  9 active torsions:
REMARK  status: ('A' for Active; 'I' for Inactive)
REMARK    1  A    between atoms: C_1  and  C_2
REMARK    2  A    between atoms: C_4  and  N_5
REMARK    3  A    between atoms: C_6  and  C_8
REMARK    4  A    between atoms: C_8  and  O_9
REMARK    5  A    between atoms: C_8  and  C_10
REMARK    6  A    between atoms: C_20  and  C_21
REMARK    7  A    between atoms: C_24  and  N_25
REMARK    8  A    between atoms: C_26  and  C_27
REMARK    9  A    between atoms: C_27  and  O_29
REMARK                            x       y       z     vdW  Elec       q    Type
REMARK                         _______ _______ _______ _____ _____    ______ ____
ROOT
ATOM      1  C   UNL     1       1.457   6.721  20.868  0.00  0.00    +0.000 C 
ATOM      2  C   UNL     1       2.151   7.107  19.585  0.00  0.00    +0.000 A 
ATOM      3  C   UNL     1       3.059   6.152  19.074  0.00  0.00    +0.000 A 
ATOM      4  C   UNL     1       3.720   6.317  17.861  0.00  0.00    +0.000 A 
ATOM      5  C   UNL     1       3.518   7.506  17.168  0.00  0.00    +0.000 A 
ATOM      6  C   UNL     1       2.649   8.489  17.678  0.00  0.00    +0.000 A 
ATOM      7  C   UNL     1       1.940   8.321  18.890  0.00  0.00    +0.000 A 
ENDROOT
BRANCH   7   8
ATOM      8  C   UNL     1       1.021   9.400  19.360  0.00  0.00    +0.000 A 
ATOM      9  C   UNL     1       1.007   9.852  20.682  0.00  0.00    +0.000 A 
ATOM     10  N   UNL     1       0.185  10.816  21.183  0.00  0.00    +0.000 NA
ATOM     11  C   UNL     1      -0.660  11.415  20.327  0.00  0.00    +0.000 A 
ATOM     12  C   UNL     1      -0.710  11.092  18.976  0.00  0.00    +0.000 A 
ATOM     13  C   UNL     1       0.102  10.042  18.520  0.00  0.00    +0.000 A 
BRANCH  11  14
ATOM     14  N   UNL     1      -1.525  12.356  20.912  0.00  0.00    +0.000 N 
ATOM     15  H   UNL     1      -2.375  12.314  20.342  0.00  0.00    +0.000 HD
ATOM     16  H   UNL     1      -1.124  13.290  20.794  0.00  0.00    +0.000 HD
ENDBRANCH  11  14
BRANCH  12  17
ATOM     17  C   UNL     1      -1.529  11.822  17.974  0.00  0.00    +0.000 C 
ATOM     18  O   UNL     1      -2.534  11.339  17.478  0.00  0.00    +0.000 OA
BRANCH  17  19
ATOM     19  O   UNL     1      -1.062  13.038  17.620  0.00  0.00    +0.000 OA
ATOM     20  H   UNL     1      -0.512  13.024  16.801  0.00  0.00    +0.000 HD
ENDBRANCH  17  19
ENDBRANCH  12  17
ENDBRANCH   7   8
BRANCH   4  21
ATOM     21  N   UNL     1       4.577   5.335  17.311  0.00  0.00    +0.000 N 
ATOM     22  C   UNL     1       5.947   5.472  17.128  0.00  0.00    +0.000 C 
ATOM     23  O   UNL     1       6.633   6.435  17.476  0.00  0.00    +0.000 OA
ATOM     24  H   UNL     1       4.178   4.413  17.176  0.00  0.00    +0.000 HD
BRANCH  22  25
ATOM     25  C   UNL     1       6.648   4.249  16.499  0.00  0.00    +0.000 C 
BRANCH  25  26
ATOM     26  C   UNL     1       6.775   4.327  14.985  0.00  0.00    +0.000 A 
ATOM     27  C   UNL     1       5.967   3.523  14.160  0.00  0.00    +0.000 A 
ATOM     28  C   UNL     1       6.091   3.578  12.772  0.00  0.00    +0.000 A 
ATOM     29  F   UNL     1       5.324   2.783  12.014  0.00  0.00    +0.000 F 
ATOM     30  C   UNL     1       6.992   4.436  12.166  0.00  0.00    +0.000 A 
ATOM     31  C   UNL     1       7.768   5.256  12.970  0.00  0.00    +0.000 A 
ATOM     32  F   UNL     1       8.638   6.100  12.403  0.00  0.00    +0.000 F 
ATOM     33  C   UNL     1       7.667   5.218  14.362  0.00  0.00    +0.000 A 
ENDBRANCH  25  26
BRANCH  25  34
ATOM     34  O   UNL     1       7.957   4.227  17.091  0.00  0.00    +0.000 OA
ATOM     35  H   UNL     1       7.795   4.173  18.056  0.00  0.00    +0.000 HD
ENDBRANCH  25  34
ENDBRANCH  22  25
ENDBRANCH   4  21
TORSDOF 8
ENDMDL
MODEL 7
REMARK VINA RESULT:      -8.3      3.581      4.992
REMARK  Name = 
REMARK  9 active torsions:
REMARK  status: ('A' for Active; 'I' for Inactive)
REMARK    1  A    between atoms: C_1  and  C_2
REMARK    2  A    between atoms: C_4  and  N_5
REMARK    3  A    between atoms: C_6  and  C_8
REMARK    4  A    between atoms: C_8  and  O_9
REMARK    5  A    between atoms: C_8  and  C_10
REMARK    6  A    between atoms: C_20  and  C_21
REMARK    7  A    between atoms: C_24  and  N_25
REMARK    8  A    between atoms: C_26  and  C_27
REMARK    9  A    between atoms: C_27  and  O_29
REMARK                            x       y       z     vdW  Elec       q    Type
REMARK                         _______ _______ _______ _____ _____    ______ ____
ROOT
ATOM      1  C   UNL     1      -1.145  11.391  19.558  0.00  0.00    +0.000 C 
ATOM      2  C   UNL     1      -0.435  10.569  20.605  0.00  0.00    +0.000 A 
ATOM      3  C   UNL     1       0.304   9.468  20.116  0.00  0.00    +0.000 A 
ATOM      4  C   UNL     1       1.079   8.657  20.940  0.00  0.00    +0.000 A 
ATOM      5  C   UNL     1       1.061   8.915  22.307  0.00  0.00    +0.000 A 
ATOM      6  C   UNL     1       0.301   9.982  22.821  0.00  0.00    +0.000 A 
ATOM      7  C   UNL     1      -0.462  10.839  21.994  0.00  0.00    +0.000 A 
ENDROOT
BRANCH   7   8
ATOM      8  C   UNL     1      -1.231  11.962  22.609  0.00  0.00    +0.000 A 
ATOM      9  C   UNL     1      -0.799  13.289  22.548  0.00  0.00    +0.000 A 
ATOM     10  N   UNL     1      -1.439  14.358  23.101  0.00  0.00    +0.000 NA
ATOM     11  C   UNL     1      -2.606  14.125  23.726  0.00  0.00    +0.000 A 
ATOM     12  C   UNL     1      -3.168  12.857  23.813  0.00  0.00    +0.000 A 
ATOM     13  C   UNL     1      -2.438  11.777  23.294  0.00  0.00    +0.000 A 
BRANCH  11  14
ATOM     14  N   UNL     1      -3.187  15.254  24.330  0.00  0.00    +0.000 N 
ATOM     15  H   UNL     1      -2.493  15.564  25.018  0.00  0.00    +0.000 HD
ATOM     16  H   UNL     1      -4.018  14.958  24.849  0.00  0.00    +0.000 HD
ENDBRANCH  11  14
BRANCH  12  17
ATOM     17  C   UNL     1      -4.515  12.580  24.373  0.00  0.00    +0.000 C 
ATOM     18  O   UNL     1      -5.503  12.459  23.666  0.00  0.00    +0.000 OA
BRANCH  17  19
ATOM     19  O   UNL     1      -4.580  12.509  25.720  0.00  0.00    +0.000 OA
ATOM     20  H   UNL     1      -4.278  11.642  26.082  0.00  0.00    +0.000 HD
ENDBRANCH  17  19
ENDBRANCH  12  17
ENDBRANCH   7   8
BRANCH   4  21
ATOM     21  N   UNL     1       1.874   7.596  20.448  0.00  0.00    +0.000 N 
ATOM     22  C   UNL     1       2.350   7.479  19.149  0.00  0.00    +0.000 C 
ATOM     23  O   UNL     1       2.211   8.310  18.248  0.00  0.00    +0.000 OA
ATOM     24  H   UNL     1       2.240   6.950  21.139  0.00  0.00    +0.000 HD
BRANCH  22  25
ATOM     25  C   UNL     1       3.192   6.216  18.872  0.00  0.00    +0.000 C 
BRANCH  25  26
ATOM     26  C   UNL     1       2.548   4.929  19.366  0.00  0.00    +0.000 A 
ATOM     27  C   UNL     1       2.832   4.441  20.655  0.00  0.00    +0.000 A 
ATOM     28  C   UNL     1       2.257   3.254  21.108  0.00  0.00    +0.000 A 
ATOM     29  F   UNL     1       2.565   2.802  22.331  0.00  0.00    +0.000 F 
ATOM     30  C   UNL     1       1.378   2.534  20.317  0.00  0.00    +0.000 A 
ATOM     31  C   UNL     1       1.067   3.027  19.059  0.00  0.00    +0.000 A 
ATOM     32  F   UNL     1       0.211   2.351  18.282  0.00  0.00    +0.000 F 
ATOM     33  C   UNL     1       1.630   4.210  18.580  0.00  0.00    +0.000 A 
ENDBRANCH  25  26
BRANCH  25  34
ATOM     34  O   UNL     1       3.326   6.167  17.442  0.00  0.00    +0.000 OA
ATOM     35  H   UNL     1       2.923   5.312  17.181  0.00  0.00    +0.000 HD
ENDBRANCH  25  34
ENDBRANCH  22  25
ENDBRANCH   4  21
TORSDOF 8
ENDMDL
MODEL 8
REMARK VINA RESULT:      -8.3      2.283      3.224
REMARK  Name = 
REMARK  9 active torsions:
REMARK  status: ('A' for Active; 'I' for Inactive)
REMARK    1  A    between atoms: C_1  and  C_2
REMARK    2  A    between atoms: C_4  and  N_5
REMARK    3  A    between atoms: C_6  and  C_8
REMARK    4  A    between atoms: C_8  and  O_9
REMARK    5  A    between atoms: C_8  and  C_10
REMARK    6  A    between atoms: C_20  and  C_21
REMARK    7  A    between atoms: C_24  and  N_25
REMARK    8  A    between atoms: C_26  and  C_27
REMARK    9  A    between atoms: C_27  and  O_29
REMARK                            x       y       z     vdW  Elec       q    Type
REMARK                         _______ _______ _______ _____ _____    ______ ____
ROOT
ATOM      1  C   UNL     1       2.010   9.619  17.851  0.00  0.00    +0.000 C 
ATOM      2  C   UNL     1       2.184   8.331  18.618  0.00  0.00    +0.000 A 
ATOM      3  C   UNL     1       2.913   7.320  17.950  0.00  0.00    +0.000 A 
ATOM      4  C   UNL     1       3.229   6.104  18.547  0.00  0.00    +0.000 A 
ATOM      5  C   UNL     1       2.744   5.863  19.829  0.00  0.00    +0.000 A 
ATOM      6  C   UNL     1       1.983   6.840  20.497  0.00  0.00    +0.000 A 
ATOM      7  C   UNL     1       1.684   8.096  19.920  0.00  0.00    +0.000 A 
ENDROOT
BRANCH   7   8
ATOM      8  C   UNL     1       0.884   9.090  20.696  0.00  0.00    +0.000 A 
ATOM      9  C   UNL     1       1.004   9.235  22.080  0.00  0.00    +0.000 A 
ATOM     10  N   UNL     1       0.295  10.105  22.852  0.00  0.00    +0.000 NA
ATOM     11  C   UNL     1      -0.568  10.924  22.227  0.00  0.00    +0.000 A 
ATOM     12  C   UNL     1      -0.745  10.915  20.849  0.00  0.00    +0.000 A 
ATOM     13  C   UNL     1      -0.048   9.952  20.104  0.00  0.00    +0.000 A 
BRANCH  11  14
ATOM     14  N   UNL     1      -1.316  11.755  23.080  0.00  0.00    +0.000 N 
ATOM     15  H   UNL     1      -2.055  12.139  22.483  0.00  0.00    +0.000 HD
ATOM     16  H   UNL     1      -0.727  12.538  23.377  0.00  0.00    +0.000 HD
ENDBRANCH  11  14
BRANCH  12  17
ATOM     17  C   UNL     1      -1.583  11.893  20.109  0.00  0.00    +0.000 C 
ATOM     18  O   UNL     1      -2.368  11.551  19.239  0.00  0.00    +0.000 OA
BRANCH  17  19
ATOM     19  O   UNL     1      -1.388  13.188  20.437  0.00  0.00    +0.000 OA
ATOM     20  H   UNL     1      -1.466  13.803  19.669  0.00  0.00    +0.000 HD
ENDBRANCH  17  19
ENDBRANCH  12  17
ENDBRANCH   7   8
BRANCH   4  21
ATOM     21  N   UNL     1       4.016   5.115  17.911  0.00  0.00    +0.000 N 
ATOM     22  C   UNL     1       4.760   5.299  16.752  0.00  0.00    +0.000 C 
ATOM     23  O   UNL     1       4.903   6.361  16.142  0.00  0.00    +0.000 OA
ATOM     24  H   UNL     1       4.157   4.252  18.424  0.00  0.00    +0.000 HD
BRANCH  22  25
ATOM     25  C   UNL     1       5.525   4.051  16.262  0.00  0.00    +0.000 C 
BRANCH  25  26
ATOM     26  C   UNL     1       6.024   4.161  14.830  0.00  0.00    +0.000 A 
ATOM     27  C   UNL     1       5.338   3.515  13.785  0.00  0.00    +0.000 A 
ATOM     28  C   UNL     1       5.800   3.599  12.472  0.00  0.00    +0.000 A 
ATOM     29  F   UNL     1       5.139   2.954  11.502  0.00  0.00    +0.000 F 
ATOM     30  C   UNL     1       6.929   4.335  12.154  0.00  0.00    +0.000 A 
ATOM     31  C   UNL     1       7.591   5.002  13.173  0.00  0.00    +0.000 A 
ATOM     32  F   UNL     1       8.679   5.728  12.885  0.00  0.00    +0.000 F 
ATOM     33  C   UNL     1       7.152   4.932  14.496  0.00  0.00    +0.000 A 
ENDBRANCH  25  26
BRANCH  25  34
ATOM     34  O   UNL     1       6.646   3.931  17.154  0.00  0.00    +0.000 OA
ATOM     35  H   UNL     1       6.854   2.973  17.167  0.00  0.00    +0.000 HD
ENDBRANCH  25  34
ENDBRANCH  22  25
ENDBRANCH   4  21
TORSDOF 8
ENDMDL
MODEL 9
REMARK VINA RESULT:      -8.3      3.605      4.832
REMARK  Name = 
REMARK  9 active torsions:
REMARK  status: ('A' for Active; 'I' for Inactive)
REMARK    1  A    between atoms: C_1  and  C_2
REMARK    2  A    between atoms: C_4  and  N_5
REMARK    3  A    between atoms: C_6  and  C_8
REMARK    4  A    between atoms: C_8  and  O_9
REMARK    5  A    between atoms: C_8  and  C_10
REMARK    6  A    between atoms: C_20  and  C_21
REMARK    7  A    between atoms: C_24  and  N_25
REMARK    8  A    between atoms: C_26  and  C_27
REMARK    9  A    between atoms: C_27  and  O_29
REMARK                            x       y       z     vdW  Elec       q    Type
REMARK                         _______ _______ _______ _____ _____    ______ ____
ROOT
ATOM      1  C   UNL     1      -0.912  11.684  19.577  0.00  0.00    +0.000 C 
ATOM      2  C   UNL     1      -0.374  10.761  20.642  0.00  0.00    +0.000 A 
ATOM      3  C   UNL     1       0.353   9.645  20.169  0.00  0.00    +0.000 A 
ATOM      4  C   UNL     1       0.982   8.742  21.020  0.00  0.00    +0.000 A 
ATOM      5  C   UNL     1       0.822   8.922  22.390  0.00  0.00    +0.000 A 
ATOM      6  C   UNL     1       0.069  10.003  22.884  0.00  0.00    +0.000 A 
ATOM      7  C   UNL     1      -0.545  10.952  22.033  0.00  0.00    +0.000 A 
ENDROOT
BRANCH   7   8
ATOM      8  C   UNL     1      -1.316  12.084  22.630  0.00  0.00    +0.000 A 
ATOM      9  C   UNL     1      -0.819  13.389  22.676  0.00  0.00    +0.000 A 
ATOM     10  N   UNL     1      -1.457  14.463  23.220  0.00  0.00    +0.000 NA
ATOM     11  C   UNL     1      -2.688  14.262  23.722  0.00  0.00    +0.000 A 
ATOM     12  C   UNL     1      -3.314  13.023  23.692  0.00  0.00    +0.000 A 
ATOM     13  C   UNL     1      -2.590  11.931  23.189  0.00  0.00    +0.000 A 
BRANCH  11  14
ATOM     14  N   UNL     1      -3.270  15.391  24.325  0.00  0.00    +0.000 N 
ATOM     15  H   UNL     1      -4.009  15.677  23.675  0.00  0.00    +0.000 HD
ATOM     16  H   UNL     1      -2.578  16.144  24.351  0.00  0.00    +0.000 HD
ENDBRANCH  11  14
BRANCH  12  17
ATOM     17  C   UNL     1      -4.721  12.789  24.110  0.00  0.00    +0.000 C 
ATOM     18  O   UNL     1      -5.642  13.489  23.718  0.00  0.00    +0.000 OA
BRANCH  17  19
ATOM     19  O   UNL     1      -4.905  11.776  24.983  0.00  0.00    +0.000 OA
ATOM     20  H   UNL     1      -4.892  10.885  24.559  0.00  0.00    +0.000 HD
ENDBRANCH  17  19
ENDBRANCH  12  17
ENDBRANCH   7   8
BRANCH   4  21
ATOM     21  N   UNL     1       1.768   7.662  20.553  0.00  0.00    +0.000 N 
ATOM     22  C   UNL     1       2.292   7.541  19.273  0.00  0.00    +0.000 C 
ATOM     23  O   UNL     1       2.212   8.380  18.373  0.00  0.00    +0.000 OA
ATOM     24  H   UNL     1       2.088   7.003  21.253  0.00  0.00    +0.000 HD
BRANCH  22  25
ATOM     25  C   UNL     1       3.110   6.257  19.021  0.00  0.00    +0.000 C 
BRANCH  25  26
ATOM     26  C   UNL     1       2.440   4.992  19.533  0.00  0.00    +0.000 A 
ATOM     27  C   UNL     1       1.615   4.229  18.684  0.00  0.00    +0.000 A 
ATOM     28  C   UNL     1       0.985   3.077  19.153  0.00  0.00    +0.000 A 
ATOM     29  F   UNL     1       0.187   2.385  18.328  0.00  0.00    +0.000 F 
ATOM     30  C   UNL     1       1.167   2.637  20.453  0.00  0.00    +0.000 A 
ATOM     31  C   UNL     1       2.005   3.364  21.285  0.00  0.00    +0.000 A 
ATOM     32  F   UNL     1       2.203   2.950  22.543  0.00  0.00    +0.000 F 
ATOM     33  C   UNL     1       2.645   4.522  20.843  0.00  0.00    +0.000 A 
ENDBRANCH  25  26
BRANCH  25  34
ATOM     34  O   UNL     1       3.251   6.182  17.593  0.00  0.00    +0.000 OA
ATOM     35  H   UNL     1       2.333   6.185  17.250  0.00  0.00    +0.000 HD
ENDBRANCH  25  34
ENDBRANCH  22  25
ENDBRANCH   4  21
TORSDOF 8
ENDMDL
