MODEL 1
REMARK VINA RESULT:      -8.0      0.000      0.000
REMARK  Name = 
REMARK  8 active torsions:
REMARK  status: ('A' for Active; 'I' for Inactive)
REMARK    1  A    between atoms: C_2  and  C_3
REMARK    2  A    between atoms: C_3  and  C_4
REMARK    3  A    between atoms: C_4  and  C_5
REMARK    4  A    between atoms: C_5  and  N_6
REMARK    5  A    between atoms: C_7  and  C_8
REMARK    6  A    between atoms: C_8  and  N_9
REMARK    7  A    between atoms: N_12  and  C_13
REMARK    8  A    between atoms: N_30  and  O_31
REMARK                            x       y       z     vdW  Elec       q    Type
REMARK                         _______ _______ _______ _____ _____    ______ ____
ROOT
ATOM      1  N   UNL     1       2.274   6.176  19.610  0.00  0.00    +0.000 N 
ATOM      2  C   UNL     1       2.655   6.000  18.283  0.00  0.00    +0.000 A 
ATOM      3  C   UNL     1       2.508   7.236  17.668  0.00  0.00    +0.000 A 
ATOM      4  C   UNL     1       1.980   8.161  18.604  0.00  0.00    +0.000 A 
ATOM      5  C   UNL     1       1.591   9.515  18.522  0.00  0.00    +0.000 A 
ATOM      6  C   UNL     1       1.079  10.152  19.655  0.00  0.00    +0.000 A 
ATOM      7 CL   UNL     1       0.595  11.803  19.557  0.00  0.00    +0.000 Cl
ATOM      8  C   UNL     1       0.952   9.473  20.860  0.00  0.00    +0.000 A 
ATOM      9  C   UNL     1       1.330   8.132  20.959  0.00  0.00    +0.000 A 
ATOM     10  C   UNL     1       1.841   7.484  19.815  0.00  0.00    +0.000 A 
ENDROOT
BRANCH   1  11
ATOM     11  C   UNL     1       2.186   5.152  20.644  0.00  0.00    +0.000 C 
BRANCH  11  12
ATOM     12  C   UNL     1       1.003   4.184  20.555  0.00  0.00    +0.000 C 
BRANCH  12  13
ATOM     13  C   UNL     1       1.358   2.701  20.650  0.00  0.00    +0.000 C 
BRANCH  13  15
ATOM     14  N   UNL     1       0.492   2.074  18.437  0.00  0.00    +0.000 NA
ATOM     15  C   UNL     1       1.467   2.022  19.295  0.00  0.00    +0.000 C 
ATOM     16  N   UNL     1       2.610   1.352  18.935  0.00  0.00    +0.000 N 
ATOM     17  H   UNL     1      -0.272   2.647  18.812  0.00  0.00    +0.000 HD
ATOM     18  H   UNL     1       2.582   1.142  17.939  0.00  0.00    +0.000 HD
BRANCH  16  19
ATOM     19  O   UNL     1       3.776   1.993  19.371  0.00  0.00    +0.000 OA
ATOM     20  H   UNL     1       4.385   1.264  19.585  0.00  0.00    +0.000 HD
ENDBRANCH  16  19
ENDBRANCH  13  15
ENDBRANCH  12  13
ENDBRANCH  11  12
ENDBRANCH   1  11
BRANCH   2  21
ATOM     21  C   UNL     1       3.068   4.694  17.653  0.00  0.00    +0.000 C 
BRANCH  21  22
ATOM     22  N   UNL     1       4.451   4.715  17.238  0.00  0.00    +0.000 N 
ATOM     23  C   UNL     1       4.900   4.537  15.912  0.00  0.00    +0.000 A 
ATOM     24  O   UNL     1       4.218   4.407  14.908  0.00  0.00    +0.000 OA
ATOM     25  N   UNL     1       6.319   4.552  15.958  0.00  0.00    +0.000 N 
ATOM     26  C   UNL     1       6.722   4.838  17.267  0.00  0.00    +0.000 A 
ATOM     27  C   UNL     1       7.983   5.021  17.787  0.00  0.00    +0.000 A 
ATOM     28  C   UNL     1       8.027   5.310  19.143  0.00  0.00    +0.000 A 
ATOM     29  N   UNL     1       6.933   5.411  19.949  0.00  0.00    +0.000 NA
ATOM     30  C   UNL     1       5.710   5.221  19.388  0.00  0.00    +0.000 A 
ATOM     31  C   UNL     1       5.577   4.934  18.054  0.00  0.00    +0.000 A 
BRANCH  25  32
ATOM     32  C   UNL     1       7.153   4.186  14.864  0.00  0.00    +0.000 C 
ATOM     33  C   UNL     1       6.689   4.060  13.435  0.00  0.00    +0.000 C 
ATOM     34  C   UNL     1       7.473   5.264  13.849  0.00  0.00    +0.000 C 
ENDBRANCH  25  32
ENDBRANCH  21  22
ENDBRANCH   2  21
TORSDOF 8
ENDMDL
MODEL 2
REMARK VINA RESULT:      -7.9      1.135      2.701
REMARK  Name = 
REMARK  8 active torsions:
REMARK  status: ('A' for Active; 'I' for Inactive)
REMARK    1  A    between atoms: C_2  and  C_3
REMARK    2  A    between atoms: C_3  and  C_4
REMARK    3  A    between atoms: C_4  and  C_5
REMARK    4  A    between atoms: C_5  and  N_6
REMARK    5  A    between atoms: C_7  and  C_8
REMARK    6  A    between atoms: C_8  and  N_9
REMARK    7  A    between atoms: N_12  and  C_13
REMARK    8  A    between atoms: N_30  and  O_31
REMARK                            x       y       z     vdW  Elec       q    Type
REMARK                         _______ _______ _______ _____ _____    ______ ____
ROOT
ATOM      1  N   UNL     1       2.162   6.338  19.716  0.00  0.00    +0.000 N 
ATOM      2  C   UNL     1       2.568   6.215  18.390  0.00  0.00    +0.000 A 
ATOM      3  C   UNL     1       2.428   7.473  17.820  0.00  0.00    +0.000 A 
ATOM      4  C   UNL     1       1.879   8.360  18.782  0.00  0.00    +0.000 A 
ATOM      5  C   UNL     1       1.487   9.715  18.744  0.00  0.00    +0.000 A 
ATOM      6  C   UNL     1       0.953  10.306  19.892  0.00  0.00    +0.000 A 
ATOM      7 CL   UNL     1       0.465  11.958  19.849  0.00  0.00    +0.000 Cl
ATOM      8  C   UNL     1       0.807   9.581  21.067  0.00  0.00    +0.000 A 
ATOM      9  C   UNL     1       1.188   8.238  21.122  0.00  0.00    +0.000 A 
ATOM     10  C   UNL     1       1.721   7.637  19.963  0.00  0.00    +0.000 A 
ENDROOT
BRANCH   1  11
ATOM     11  C   UNL     1       2.059   5.275  20.708  0.00  0.00    +0.000 C 
BRANCH  11  12
ATOM     12  C   UNL     1       1.002   4.199  20.454  0.00  0.00    +0.000 C 
BRANCH  12  13
ATOM     13  C   UNL     1       1.488   2.755  20.580  0.00  0.00    +0.000 C 
BRANCH  13  15
ATOM     14  N   UNL     1       0.727   2.069  18.347  0.00  0.00    +0.000 NA
ATOM     15  C   UNL     1       1.672   2.065  19.239  0.00  0.00    +0.000 C 
ATOM     16  N   UNL     1       2.852   1.435  18.930  0.00  0.00    +0.000 N 
ATOM     17  H   UNL     1      -0.072   2.616  18.687  0.00  0.00    +0.000 HD
ATOM     18  H   UNL     1       2.868   1.212  17.936  0.00  0.00    +0.000 HD
BRANCH  16  19
ATOM     19  O   UNL     1       3.976   2.126  19.397  0.00  0.00    +0.000 OA
ATOM     20  H   UNL     1       3.890   2.098  20.367  0.00  0.00    +0.000 HD
ENDBRANCH  16  19
ENDBRANCH  13  15
ENDBRANCH  12  13
ENDBRANCH  11  12
ENDBRANCH   1  11
BRANCH   2  21
ATOM     21  C   UNL     1       2.998   4.936  17.717  0.00  0.00    +0.000 C 
BRANCH  21  22
ATOM     22  N   UNL     1       4.421   4.911  17.475  0.00  0.00    +0.000 N 
ATOM     23  C   UNL     1       5.413   5.067  18.467  0.00  0.00    +0.000 A 
ATOM     24  O   UNL     1       5.248   5.175  19.671  0.00  0.00    +0.000 OA
ATOM     25  N   UNL     1       6.664   5.057  17.795  0.00  0.00    +0.000 N 
ATOM     26  C   UNL     1       6.442   4.797  16.439  0.00  0.00    +0.000 A 
ATOM     27  C   UNL     1       7.340   4.629  15.410  0.00  0.00    +0.000 A 
ATOM     28  C   UNL     1       6.777   4.365  14.170  0.00  0.00    +0.000 A 
ATOM     29  N   UNL     1       5.438   4.276  13.932  0.00  0.00    +0.000 NA
ATOM     30  C   UNL     1       4.593   4.451  14.980  0.00  0.00    +0.000 A 
ATOM     31  C   UNL     1       5.067   4.712  16.240  0.00  0.00    +0.000 A 
BRANCH  25  32
ATOM     32  C   UNL     1       7.899   5.406  18.412  0.00  0.00    +0.000 C 
ATOM     33  C   UNL     1       8.264   6.792  18.880  0.00  0.00    +0.000 C 
ATOM     34  C   UNL     1       7.858   5.762  19.884  0.00  0.00    +0.000 C 
ENDBRANCH  25  32
ENDBRANCH  21  22
ENDBRANCH   2  21
TORSDOF 8
ENDMDL
MODEL 3
REMARK VINA RESULT:      -7.5      0.945      1.009
REMARK  Name = 
REMARK  8 active torsions:
REMARK  status: ('A' for Active; 'I' for Inactive)
REMARK    1  A    between atoms: C_2  and  C_3
REMARK    2  A    between atoms: C_3  and  C_4
REMARK    3  A    between atoms: C_4  and  C_5
REMARK    4  A    between atoms: C_5  and  N_6
REMARK    5  A    between atoms: C_7  and  C_8
REMARK    6  A    between atoms: C_8  and  N_9
REMARK    7  A    between atoms: N_12  and  C_13
REMARK    8  A    between atoms: N_30  and  O_31
REMARK                            x       y       z     vdW  Elec       q    Type
REMARK                         _______ _______ _______ _____ _____    ______ ____
ROOT
ATOM      1  N   UNL     1       2.158   6.550  19.496  0.00  0.00    +0.000 N 
ATOM      2  C   UNL     1       2.650   6.222  18.237  0.00  0.00    +0.000 A 
ATOM      3  C   UNL     1       2.646   7.397  17.498  0.00  0.00    +0.000 A 
ATOM      4  C   UNL     1       2.096   8.439  18.286  0.00  0.00    +0.000 A 
ATOM      5  C   UNL     1       1.810   9.799  18.039  0.00  0.00    +0.000 A 
ATOM      6  C   UNL     1       1.239  10.574  19.052  0.00  0.00    +0.000 A 
ATOM      7 CL   UNL     1       0.879  12.233  18.752  0.00  0.00    +0.000 Cl
ATOM      8  C   UNL     1       0.952  10.027  20.295  0.00  0.00    +0.000 A 
ATOM      9  C   UNL     1       1.227   8.682  20.556  0.00  0.00    +0.000 A 
ATOM     10  C   UNL     1       1.798   7.896  19.534  0.00  0.00    +0.000 A 
ENDROOT
BRANCH   1  11
ATOM     11  C   UNL     1       1.903   5.641  20.607  0.00  0.00    +0.000 C 
BRANCH  11  12
ATOM     12  C   UNL     1       0.725   4.677  20.450  0.00  0.00    +0.000 C 
BRANCH  12  13
ATOM     13  C   UNL     1       1.097   3.226  20.145  0.00  0.00    +0.000 C 
BRANCH  13  15
ATOM     14  N   UNL     1       1.587   2.206  22.326  0.00  0.00    +0.000 NA
ATOM     15  C   UNL     1       2.032   2.618  21.176  0.00  0.00    +0.000 C 
ATOM     16  N   UNL     1       3.370   2.469  20.909  0.00  0.00    +0.000 N 
ATOM     17  H   UNL     1       0.570   2.328  22.370  0.00  0.00    +0.000 HD
ATOM     18  H   UNL     1       3.794   1.870  21.616  0.00  0.00    +0.000 HD
BRANCH  16  19
ATOM     19  O   UNL     1       3.622   2.088  19.585  0.00  0.00    +0.000 OA
ATOM     20  H   UNL     1       4.592   2.034  19.531  0.00  0.00    +0.000 HD
ENDBRANCH  16  19
ENDBRANCH  13  15
ENDBRANCH  12  13
ENDBRANCH  11  12
ENDBRANCH   1  11
BRANCH   2  21
ATOM     21  C   UNL     1       3.031   4.838  17.775  0.00  0.00    +0.000 C 
BRANCH  21  22
ATOM     22  N   UNL     1       4.404   4.782  17.330  0.00  0.00    +0.000 N 
ATOM     23  C   UNL     1       4.814   4.548  16.000  0.00  0.00    +0.000 A 
ATOM     24  O   UNL     1       4.103   4.425  15.015  0.00  0.00    +0.000 OA
ATOM     25  N   UNL     1       6.232   4.497  16.015  0.00  0.00    +0.000 N 
ATOM     26  C   UNL     1       6.678   4.797  17.306  0.00  0.00    +0.000 A 
ATOM     27  C   UNL     1       7.958   4.933  17.794  0.00  0.00    +0.000 A 
ATOM     28  C   UNL     1       8.047   5.255  19.140  0.00  0.00    +0.000 A 
ATOM     29  N   UNL     1       6.977   5.428  19.966  0.00  0.00    +0.000 NA
ATOM     30  C   UNL     1       5.735   5.283  19.438  0.00  0.00    +0.000 A 
ATOM     31  C   UNL     1       5.558   4.968  18.115  0.00  0.00    +0.000 A 
BRANCH  25  32
ATOM     32  C   UNL     1       7.023   4.063  14.912  0.00  0.00    +0.000 C 
ATOM     33  C   UNL     1       6.530   3.956  13.492  0.00  0.00    +0.000 C 
ATOM     34  C   UNL     1       7.400   5.107  13.881  0.00  0.00    +0.000 C 
ENDBRANCH  25  32
ENDBRANCH  21  22
ENDBRANCH   2  21
TORSDOF 8
ENDMDL
MODEL 4
REMARK VINA RESULT:      -7.5      3.526      7.731
REMARK  Name = 
REMARK  8 active torsions:
REMARK  status: ('A' for Active; 'I' for Inactive)
REMARK    1  A    between atoms: C_2  and  C_3
REMARK    2  A    between atoms: C_3  and  C_4
REMARK    3  A    between atoms: C_4  and  C_5
REMARK    4  A    between atoms: C_5  and  N_6
REMARK    5  A    between atoms: C_7  and  C_8
REMARK    6  A    between atoms: C_8  and  N_9
REMARK    7  A    between atoms: N_12  and  C_13
REMARK    8  A    between atoms: N_30  and  O_31
REMARK                            x       y       z     vdW  Elec       q    Type
REMARK                         _______ _______ _______ _____ _____    ______ ____
ROOT
ATOM      1  N   UNL     1       2.867   7.118  18.353  0.00  0.00    +0.000 N 
ATOM      2  C   UNL     1       2.250   8.158  19.041  0.00  0.00    +0.000 A 
ATOM      3  C   UNL     1       1.705   7.597  20.189  0.00  0.00    +0.000 A 
ATOM      4  C   UNL     1       1.937   6.199  20.178  0.00  0.00    +0.000 A 
ATOM      5  C   UNL     1       1.575   5.145  21.043  0.00  0.00    +0.000 A 
ATOM      6  C   UNL     1       1.958   3.838  20.731  0.00  0.00    +0.000 A 
ATOM      7 CL   UNL     1       1.510   2.547  21.780  0.00  0.00    +0.000 Cl
ATOM      8  C   UNL     1       2.692   3.564  19.584  0.00  0.00    +0.000 A 
ATOM      9  C   UNL     1       3.058   4.594  18.715  0.00  0.00    +0.000 A 
ATOM     10  C   UNL     1       2.668   5.913  19.025  0.00  0.00    +0.000 A 
ENDROOT
BRANCH   1  11
ATOM     11  C   UNL     1       3.520   7.188  17.052  0.00  0.00    +0.000 C 
BRANCH  11  12
ATOM     12  C   UNL     1       4.994   6.780  16.999  0.00  0.00    +0.000 C 
BRANCH  12  13
ATOM     13  C   UNL     1       5.295   5.498  16.223  0.00  0.00    +0.000 C 
BRANCH  13  15
ATOM     14  N   UNL     1       7.599   5.790  15.419  0.00  0.00    +0.000 NA
ATOM     15  C   UNL     1       6.773   5.149  16.191  0.00  0.00    +0.000 C 
ATOM     16  N   UNL     1       7.278   4.157  16.996  0.00  0.00    +0.000 N 
ATOM     17  H   UNL     1       7.100   6.533  14.917  0.00  0.00    +0.000 HD
ATOM     18  H   UNL     1       8.296   4.201  16.992  0.00  0.00    +0.000 HD
BRANCH  16  19
ATOM     19  O   UNL     1       6.693   4.139  18.268  0.00  0.00    +0.000 OA
ATOM     20  H   UNL     1       7.448   4.182  18.881  0.00  0.00    +0.000 HD
ENDBRANCH  16  19
ENDBRANCH  13  15
ENDBRANCH  12  13
ENDBRANCH  11  12
ENDBRANCH   1  11
BRANCH   2  21
ATOM     21  C   UNL     1       2.146   9.586  18.568  0.00  0.00    +0.000 C 
BRANCH  21  22
ATOM     22  N   UNL     1       0.814  10.113  18.747  0.00  0.00    +0.000 N 
ATOM     23  C   UNL     1      -0.279   9.856  17.892  0.00  0.00    +0.000 A 
ATOM     24  O   UNL     1      -0.305   9.113  16.924  0.00  0.00    +0.000 OA
ATOM     25  N   UNL     1      -1.368  10.623  18.383  0.00  0.00    +0.000 N 
ATOM     26  C   UNL     1      -0.975  11.251  19.570  0.00  0.00    +0.000 A 
ATOM     27  C   UNL     1      -1.697  12.039  20.438  0.00  0.00    +0.000 A 
ATOM     28  C   UNL     1      -0.996  12.495  21.545  0.00  0.00    +0.000 A 
ATOM     29  N   UNL     1       0.314  12.219  21.798  0.00  0.00    +0.000 NA
ATOM     30  C   UNL     1       0.983  11.438  20.911  0.00  0.00    +0.000 A 
ATOM     31  C   UNL     1       0.364  10.943  19.792  0.00  0.00    +0.000 A 
BRANCH  25  32
ATOM     32  C   UNL     1      -2.589  10.812  17.675  0.00  0.00    +0.000 C 
ATOM     33  C   UNL     1      -3.070   9.938  16.545  0.00  0.00    +0.000 C 
ATOM     34  C   UNL     1      -3.682   9.787  17.900  0.00  0.00    +0.000 C 
ENDBRANCH  25  32
ENDBRANCH  21  22
ENDBRANCH   2  21
TORSDOF 8
ENDMDL
MODEL 5
REMARK VINA RESULT:      -7.5      3.685      8.293
REMARK  Name = 
REMARK  8 active torsions:
REMARK  status: ('A' for Active; 'I' for Inactive)
REMARK    1  A    between atoms: C_2  and  C_3
REMARK    2  A    between atoms: C_3  and  C_4
REMARK    3  A    between atoms: C_4  and  C_5
REMARK    4  A    between atoms: C_5  and  N_6
REMARK    5  A    between atoms: C_7  and  C_8
REMARK    6  A    between atoms: C_8  and  N_9
REMARK    7  A    between atoms: N_12  and  C_13
REMARK    8  A    between atoms: N_30  and  O_31
REMARK                            x       y       z     vdW  Elec       q    Type
REMARK                         _______ _______ _______ _____ _____    ______ ____
ROOT
ATOM      1  N   UNL     1       2.785   7.352  18.362  0.00  0.00    +0.000 N 
ATOM      2  C   UNL     1       2.108   8.379  19.014  0.00  0.00    +0.000 A 
ATOM      3  C   UNL     1       1.544   7.815  20.150  0.00  0.00    +0.000 A 
ATOM      4  C   UNL     1       1.825   6.425  20.167  0.00  0.00    +0.000 A 
ATOM      5  C   UNL     1       1.469   5.371  21.035  0.00  0.00    +0.000 A 
ATOM      6  C   UNL     1       1.909   4.074  20.754  0.00  0.00    +0.000 A 
ATOM      7 CL   UNL     1       1.469   2.782  21.806  0.00  0.00    +0.000 Cl
ATOM      8  C   UNL     1       2.692   3.811  19.638  0.00  0.00    +0.000 A 
ATOM      9  C   UNL     1       3.052   4.842  18.767  0.00  0.00    +0.000 A 
ATOM     10  C   UNL     1       2.604   6.151  19.044  0.00  0.00    +0.000 A 
ENDROOT
BRANCH   1  11
ATOM     11  C   UNL     1       3.480   7.429  17.083  0.00  0.00    +0.000 C 
BRANCH  11  12
ATOM     12  C   UNL     1       4.944   6.981  17.068  0.00  0.00    +0.000 C 
BRANCH  12  13
ATOM     13  C   UNL     1       5.226   5.675  16.325  0.00  0.00    +0.000 C 
BRANCH  13  15
ATOM     14  N   UNL     1       7.585   5.957  15.699  0.00  0.00    +0.000 NA
ATOM     15  C   UNL     1       6.691   5.275  16.351  0.00  0.00    +0.000 C 
ATOM     16  N   UNL     1       7.110   4.192  17.083  0.00  0.00    +0.000 N 
ATOM     17  H   UNL     1       7.144   6.764  15.244  0.00  0.00    +0.000 HD
ATOM     18  H   UNL     1       8.127   4.197  17.146  0.00  0.00    +0.000 HD
BRANCH  16  19
ATOM     19  O   UNL     1       6.443   4.071  18.307  0.00  0.00    +0.000 OA
ATOM     20  H   UNL     1       5.500   4.116  18.073  0.00  0.00    +0.000 HD
ENDBRANCH  16  19
ENDBRANCH  13  15
ENDBRANCH  12  13
ENDBRANCH  11  12
ENDBRANCH   1  11
BRANCH   2  21
ATOM     21  C   UNL     1       1.972   9.796  18.517  0.00  0.00    +0.000 C 
BRANCH  21  22
ATOM     22  N   UNL     1       0.832  10.461  19.104  0.00  0.00    +0.000 N 
ATOM     23  C   UNL     1       0.858  11.203  20.304  0.00  0.00    +0.000 A 
ATOM     24  O   UNL     1       1.829  11.462  20.996  0.00  0.00    +0.000 OA
ATOM     25  N   UNL     1      -0.478  11.614  20.556  0.00  0.00    +0.000 N 
ATOM     26  C   UNL     1      -1.279  11.220  19.479  0.00  0.00    +0.000 A 
ATOM     27  C   UNL     1      -2.614  11.447  19.238  0.00  0.00    +0.000 A 
ATOM     28  C   UNL     1      -3.098  10.921  18.048  0.00  0.00    +0.000 A 
ATOM     29  N   UNL     1      -2.350  10.218  17.153  0.00  0.00    +0.000 NA
ATOM     30  C   UNL     1      -1.037  10.020  17.437  0.00  0.00    +0.000 A 
ATOM     31  C   UNL     1      -0.478  10.509  18.590  0.00  0.00    +0.000 A 
BRANCH  25  32
ATOM     32  C   UNL     1      -0.911  12.197  21.781  0.00  0.00    +0.000 C 
ATOM     33  C   UNL     1      -2.282  12.015  22.380  0.00  0.00    +0.000 C 
ATOM     34  C   UNL     1      -1.126  11.261  22.952  0.00  0.00    +0.000 C 
ENDBRANCH  25  32
ENDBRANCH  21  22
ENDBRANCH   2  21
TORSDOF 8
ENDMDL
MODEL 6
REMARK VINA RESULT:      -7.4      0.954      1.241
REMARK  Name = 
REMARK  8 active torsions:
REMARK  status: ('A' for Active; 'I' for Inactive)
REMARK    1  A    between atoms: C_2  and  C_3
REMARK    2  A    between atoms: C_3  and  C_4
REMARK    3  A    between atoms: C_4  and  C_5
REMARK    4  A    between atoms: C_5  and  N_6
REMARK    5  A    between atoms: C_7  and  C_8
REMARK    6  A    between atoms: C_8  and  N_9
REMARK    7  A    between atoms: N_12  and  C_13
REMARK    8  A    between atoms: N_30  and  O_31
REMARK                            x       y       z     vdW  Elec       q    Type
REMARK                         _______ _______ _______ _____ _____    ______ ____
ROOT
ATOM      1  N   UNL     1       2.052   6.078  19.658  0.00  0.00    +0.000 N 
ATOM      2  C   UNL     1       2.596   5.930  18.386  0.00  0.00    +0.000 A 
ATOM      3  C   UNL     1       2.637   7.201  17.828  0.00  0.00    +0.000 A 
ATOM      4  C   UNL     1       2.062   8.125  18.736  0.00  0.00    +0.000 A 
ATOM      5  C   UNL     1       1.800   9.511  18.680  0.00  0.00    +0.000 A 
ATOM      6  C   UNL     1       1.190  10.138  19.770  0.00  0.00    +0.000 A 
ATOM      7 CL   UNL     1       0.860  11.828  19.703  0.00  0.00    +0.000 Cl
ATOM      8  C   UNL     1       0.844   9.419  20.906  0.00  0.00    +0.000 A 
ATOM      9  C   UNL     1       1.094   8.046  20.978  0.00  0.00    +0.000 A 
ATOM     10  C   UNL     1       1.703   7.409  19.878  0.00  0.00    +0.000 A 
ENDROOT
BRANCH   1  11
ATOM     11  C   UNL     1       1.739   5.020  20.611  0.00  0.00    +0.000 C 
BRANCH  11  12
ATOM     12  C   UNL     1       2.917   4.193  21.130  0.00  0.00    +0.000 C 
BRANCH  12  13
ATOM     13  C   UNL     1       2.805   2.683  20.920  0.00  0.00    +0.000 C 
BRANCH  13  15
ATOM     14  N   UNL     1       5.105   1.830  21.070  0.00  0.00    +0.000 NA
ATOM     15  C   UNL     1       4.061   2.064  20.331  0.00  0.00    +0.000 C 
ATOM     16  N   UNL     1       4.117   1.718  19.003  0.00  0.00    +0.000 N 
ATOM     17  H   UNL     1       4.907   2.085  22.043  0.00  0.00    +0.000 HD
ATOM     18  H   UNL     1       4.942   1.143  18.836  0.00  0.00    +0.000 HD
BRANCH  16  19
ATOM     19  O   UNL     1       2.916   1.179  18.530  0.00  0.00    +0.000 OA
ATOM     20  H   UNL     1       2.271   1.902  18.630  0.00  0.00    +0.000 HD
ENDBRANCH  16  19
ENDBRANCH  13  15
ENDBRANCH  12  13
ENDBRANCH  11  12
ENDBRANCH   1  11
BRANCH   2  21
ATOM     21  C   UNL     1       2.985   4.623  17.742  0.00  0.00    +0.000 C 
BRANCH  21  22
ATOM     22  N   UNL     1       4.355   4.639  17.285  0.00  0.00    +0.000 N 
ATOM     23  C   UNL     1       4.766   4.407  15.956  0.00  0.00    +0.000 A 
ATOM     24  O   UNL     1       4.056   4.227  14.979  0.00  0.00    +0.000 OA
ATOM     25  N   UNL     1       6.186   4.437  15.958  0.00  0.00    +0.000 N 
ATOM     26  C   UNL     1       6.624   4.783  17.241  0.00  0.00    +0.000 A 
ATOM     27  C   UNL     1       7.898   5.000  17.714  0.00  0.00    +0.000 A 
ATOM     28  C   UNL     1       7.980   5.348  19.055  0.00  0.00    +0.000 A 
ATOM     29  N   UNL     1       6.909   5.474  19.888  0.00  0.00    +0.000 NA
ATOM     30  C   UNL     1       5.672   5.249  19.373  0.00  0.00    +0.000 A 
ATOM     31  C   UNL     1       5.503   4.903  18.057  0.00  0.00    +0.000 A 
BRANCH  25  32
ATOM     32  C   UNL     1       6.991   4.032  14.856  0.00  0.00    +0.000 C 
ATOM     33  C   UNL     1       6.518   3.966  13.426  0.00  0.00    +0.000 C 
ATOM     34  C   UNL     1       7.387   5.102  13.860  0.00  0.00    +0.000 C 
ENDBRANCH  25  32
ENDBRANCH  21  22
ENDBRANCH   2  21
TORSDOF 8
ENDMDL
MODEL 7
REMARK VINA RESULT:      -6.9      3.709      8.252
REMARK  Name = 
REMARK  8 active torsions:
REMARK  status: ('A' for Active; 'I' for Inactive)
REMARK    1  A    between atoms: C_2  and  C_3
REMARK    2  A    between atoms: C_3  and  C_4
REMARK    3  A    between atoms: C_4  and  C_5
REMARK    4  A    between atoms: C_5  and  N_6
REMARK    5  A    between atoms: C_7  and  C_8
REMARK    6  A    between atoms: C_8  and  N_9
REMARK    7  A    between atoms: N_12  and  C_13
REMARK    8  A    between atoms: N_30  and  O_31
REMARK                            x       y       z     vdW  Elec       q    Type
REMARK                         _______ _______ _______ _____ _____    ______ ____
ROOT
ATOM      1  N   UNL     1       2.910   7.200  18.454  0.00  0.00    +0.000 N 
ATOM      2  C   UNL     1       2.171   8.194  19.088  0.00  0.00    +0.000 A 
ATOM      3  C   UNL     1       1.553   7.588  20.174  0.00  0.00    +0.000 A 
ATOM      4  C   UNL     1       1.866   6.206  20.174  0.00  0.00    +0.000 A 
ATOM      5  C   UNL     1       1.485   5.121  20.993  0.00  0.00    +0.000 A 
ATOM      6  C   UNL     1       1.971   3.843  20.708  0.00  0.00    +0.000 A 
ATOM      7 CL   UNL     1       1.501   2.514  21.700  0.00  0.00    +0.000 Cl
ATOM      8  C   UNL     1       2.826   3.626  19.636  0.00  0.00    +0.000 A 
ATOM      9  C   UNL     1       3.212   4.687  18.813  0.00  0.00    +0.000 A 
ATOM     10  C   UNL     1       2.718   5.978  19.095  0.00  0.00    +0.000 A 
ENDROOT
BRANCH   1  11
ATOM     11  C   UNL     1       3.679   7.325  17.222  0.00  0.00    +0.000 C 
BRANCH  11  12
ATOM     12  C   UNL     1       4.738   6.251  16.961  0.00  0.00    +0.000 C 
BRANCH  12  13
ATOM     13  C   UNL     1       6.163   6.617  17.378  0.00  0.00    +0.000 C 
BRANCH  13  15
ATOM     14  N   UNL     1       6.478   5.228  19.381  0.00  0.00    +0.000 NA
ATOM     15  C   UNL     1       6.855   5.522  18.172  0.00  0.00    +0.000 C 
ATOM     16  N   UNL     1       7.885   4.800  17.622  0.00  0.00    +0.000 N 
ATOM     17  H   UNL     1       5.670   5.804  19.643  0.00  0.00    +0.000 HD
ATOM     18  H   UNL     1       8.085   3.992  18.209  0.00  0.00    +0.000 HD
BRANCH  16  19
ATOM     19  O   UNL     1       7.684   4.511  16.267  0.00  0.00    +0.000 OA
ATOM     20  H   UNL     1       7.005   5.147  15.983  0.00  0.00    +0.000 HD
ENDBRANCH  16  19
ENDBRANCH  13  15
ENDBRANCH  12  13
ENDBRANCH  11  12
ENDBRANCH   1  11
BRANCH   2  21
ATOM     21  C   UNL     1       2.031   9.620  18.618  0.00  0.00    +0.000 C 
BRANCH  21  22
ATOM     22  N   UNL     1       0.800  10.217  19.082  0.00  0.00    +0.000 N 
ATOM     23  C   UNL     1       0.654  10.936  20.287  0.00  0.00    +0.000 A 
ATOM     24  O   UNL     1       1.528  11.230  21.087  0.00  0.00    +0.000 OA
ATOM     25  N   UNL     1      -0.721  11.277  20.392  0.00  0.00    +0.000 N 
ATOM     26  C   UNL     1      -1.375  10.864  19.227  0.00  0.00    +0.000 A 
ATOM     27  C   UNL     1      -2.685  11.030  18.840  0.00  0.00    +0.000 A 
ATOM     28  C   UNL     1      -3.006  10.503  17.597  0.00  0.00    +0.000 A 
ATOM     29  N   UNL     1      -2.128   9.855  16.782  0.00  0.00    +0.000 NA
ATOM     30  C   UNL     1      -0.846   9.717  17.209  0.00  0.00    +0.000 A 
ATOM     31  C   UNL     1      -0.445  10.210  18.424  0.00  0.00    +0.000 A 
BRANCH  25  32
ATOM     32  C   UNL     1      -1.317  11.815  21.568  0.00  0.00    +0.000 C 
ATOM     33  C   UNL     1      -0.701  12.887  22.430  0.00  0.00    +0.000 C 
ATOM     34  C   UNL     1      -1.813  13.244  21.498  0.00  0.00    +0.000 C 
ENDBRANCH  25  32
ENDBRANCH  21  22
ENDBRANCH   2  21
TORSDOF 8
ENDMDL
MODEL 8
REMARK VINA RESULT:      -6.9      3.627      6.683
REMARK  Name = 
REMARK  8 active torsions:
REMARK  status: ('A' for Active; 'I' for Inactive)
REMARK    1  A    between atoms: C_2  and  C_3
REMARK    2  A    between atoms: C_3  and  C_4
REMARK    3  A    between atoms: C_4  and  C_5
REMARK    4  A    between atoms: C_5  and  N_6
REMARK    5  A    between atoms: C_7  and  C_8
REMARK    6  A    between atoms: C_8  and  N_9
REMARK    7  A    between atoms: N_12  and  C_13
REMARK    8  A    between atoms: N_30  and  O_31
REMARK                            x       y       z     vdW  Elec       q    Type
REMARK                         _______ _______ _______ _____ _____    ______ ____
ROOT
ATOM      1  N   UNL     1       0.406  10.302  19.751  0.00  0.00    +0.000 N 
ATOM      2  C   UNL     1       1.167   9.280  19.193  0.00  0.00    +0.000 A 
ATOM      3  C   UNL     1       0.555   8.948  17.992  0.00  0.00    +0.000 A 
ATOM      4  C   UNL     1      -0.619   9.729  17.838  0.00  0.00    +0.000 A 
ATOM      5  C   UNL     1      -1.634   9.779  16.859  0.00  0.00    +0.000 A 
ATOM      6  C   UNL     1      -2.694  10.676  17.015  0.00  0.00    +0.000 A 
ATOM      7 CL   UNL     1      -3.940  10.735  15.826  0.00  0.00    +0.000 Cl
ATOM      8  C   UNL     1      -2.760  11.519  18.116  0.00  0.00    +0.000 A 
ATOM      9  C   UNL     1      -1.765  11.481  19.097  0.00  0.00    +0.000 A 
ATOM     10  C   UNL     1      -0.698  10.573  18.945  0.00  0.00    +0.000 A 
ENDROOT
BRANCH   1  11
ATOM     11  C   UNL     1       0.603  10.939  21.047  0.00  0.00    +0.000 C 
BRANCH  11  12
ATOM     12  C   UNL     1       0.823  12.454  21.043  0.00  0.00    +0.000 C 
BRANCH  12  13
ATOM     13  C   UNL     1       2.035  12.941  20.248  0.00  0.00    +0.000 C 
BRANCH  13  15
ATOM     14  N   UNL     1       1.398  14.943  18.974  0.00  0.00    +0.000 NA
ATOM     15  C   UNL     1       1.660  13.670  18.969  0.00  0.00    +0.000 C 
ATOM     16  N   UNL     1       1.609  13.003  17.770  0.00  0.00    +0.000 N 
ATOM     17  H   UNL     1       1.525  15.321  19.919  0.00  0.00    +0.000 HD
ATOM     18  H   UNL     1       1.543  13.677  17.009  0.00  0.00    +0.000 HD
BRANCH  16  19
ATOM     19  O   UNL     1       2.628  12.053  17.632  0.00  0.00    +0.000 OA
ATOM     20  H   UNL     1       2.855  11.809  18.546  0.00  0.00    +0.000 HD
ENDBRANCH  16  19
ENDBRANCH  13  15
ENDBRANCH  12  13
ENDBRANCH  11  12
ENDBRANCH   1  11
BRANCH   2  21
ATOM     21  C   UNL     1       2.371   8.631  19.829  0.00  0.00    +0.000 C 
BRANCH  21  22
ATOM     22  N   UNL     1       2.521   7.257  19.411  0.00  0.00    +0.000 N 
ATOM     23  C   UNL     1       1.871   6.155  20.006  0.00  0.00    +0.000 A 
ATOM     24  O   UNL     1       1.043   6.177  20.903  0.00  0.00    +0.000 OA
ATOM     25  N   UNL     1       2.355   4.994  19.347  0.00  0.00    +0.000 N 
ATOM     26  C   UNL     1       3.200   5.389  18.306  0.00  0.00    +0.000 A 
ATOM     27  C   UNL     1       3.850   4.634  17.356  0.00  0.00    +0.000 A 
ATOM     28  C   UNL     1       4.609   5.355  16.445  0.00  0.00    +0.000 A 
ATOM     29  N   UNL     1       4.742   6.711  16.451  0.00  0.00    +0.000 NA
ATOM     30  C   UNL     1       4.082   7.411  17.409  0.00  0.00    +0.000 A 
ATOM     31  C   UNL     1       3.307   6.777  18.346  0.00  0.00    +0.000 A 
BRANCH  25  32
ATOM     32  C   UNL     1       2.110   3.666  19.799  0.00  0.00    +0.000 C 
ATOM     33  C   UNL     1       0.888   3.230  20.565  0.00  0.00    +0.000 C 
ATOM     34  C   UNL     1       1.000   2.897  19.113  0.00  0.00    +0.000 C 
ENDBRANCH  25  32
ENDBRANCH  21  22
ENDBRANCH   2  21
TORSDOF 8
ENDMDL
MODEL 9
REMARK VINA RESULT:      -6.9      3.487      7.418
REMARK  Name = 
REMARK  8 active torsions:
REMARK  status: ('A' for Active; 'I' for Inactive)
REMARK    1  A    between atoms: C_2  and  C_3
REMARK    2  A    between atoms: C_3  and  C_4
REMARK    3  A    between atoms: C_4  and  C_5
REMARK    4  A    between atoms: C_5  and  N_6
REMARK    5  A    between atoms: C_7  and  C_8
REMARK    6  A    between atoms: C_8  and  N_9
REMARK    7  A    between atoms: N_12  and  C_13
REMARK    8  A    between atoms: N_30  and  O_31
REMARK                            x       y       z     vdW  Elec       q    Type
REMARK                         _______ _______ _______ _____ _____    ______ ____
ROOT
ATOM      1  N   UNL     1       2.141   6.574  19.762  0.00  0.00    +0.000 N 
ATOM      2  C   UNL     1       1.663   7.873  19.624  0.00  0.00    +0.000 A 
ATOM      3  C   UNL     1       2.251   8.386  18.476  0.00  0.00    +0.000 A 
ATOM      4  C   UNL     1       3.138   7.420  17.937  0.00  0.00    +0.000 A 
ATOM      5  C   UNL     1       4.018   7.413  16.834  0.00  0.00    +0.000 A 
ATOM      6  C   UNL     1       4.786   6.275  16.575  0.00  0.00    +0.000 A 
ATOM      7 CL   UNL     1       5.868   6.266  15.234  0.00  0.00    +0.000 Cl
ATOM      8  C   UNL     1       4.693   5.151  17.386  0.00  0.00    +0.000 A 
ATOM      9  C   UNL     1       3.829   5.141  18.484  0.00  0.00    +0.000 A 
ATOM     10  C   UNL     1       3.057   6.290  18.750  0.00  0.00    +0.000 A 
ENDROOT
BRANCH   1  11
ATOM     11  C   UNL     1       1.871   5.647  20.854  0.00  0.00    +0.000 C 
BRANCH  11  12
ATOM     12  C   UNL     1       1.043   4.405  20.513  0.00  0.00    +0.000 C 
BRANCH  12  13
ATOM     13  C   UNL     1       1.811   3.083  20.506  0.00  0.00    +0.000 C 
BRANCH  13  15
ATOM     14  N   UNL     1       0.755   2.575  18.346  0.00  0.00    +0.000 NA
ATOM     15  C   UNL     1       1.726   2.347  19.180  0.00  0.00    +0.000 C 
ATOM     16  N   UNL     1       2.688   1.436  18.821  0.00  0.00    +0.000 N 
ATOM     17  H   UNL     1       0.144   3.311  18.716  0.00  0.00    +0.000 HD
ATOM     18  H   UNL     1       2.581   1.199  17.835  0.00  0.00    +0.000 HD
BRANCH  16  19
ATOM     19  O   UNL     1       3.978   1.828  19.197  0.00  0.00    +0.000 OA
ATOM     20  H   UNL     1       4.028   2.766  18.942  0.00  0.00    +0.000 HD
ENDBRANCH  16  19
ENDBRANCH  13  15
ENDBRANCH  12  13
ENDBRANCH  11  12
ENDBRANCH   1  11
BRANCH   2  21
ATOM     21  C   UNL     1       0.747   8.581  20.591  0.00  0.00    +0.000 C 
BRANCH  21  22
ATOM     22  N   UNL     1       0.407   9.907  20.133  0.00  0.00    +0.000 N 
ATOM     23  C   UNL     1       0.975  11.102  20.623  0.00  0.00    +0.000 A 
ATOM     24  O   UNL     1       1.873  11.216  21.442  0.00  0.00    +0.000 OA
ATOM     25  N   UNL     1       0.310  12.169  19.963  0.00  0.00    +0.000 N 
ATOM     26  C   UNL     1      -0.570  11.631  19.017  0.00  0.00    +0.000 A 
ATOM     27  C   UNL     1      -1.378  12.261  18.099  0.00  0.00    +0.000 A 
ATOM     28  C   UNL     1      -2.124  11.417  17.289  0.00  0.00    +0.000 A 
ATOM     29  N   UNL     1      -2.101  10.056  17.362  0.00  0.00    +0.000 NA
ATOM     30  C   UNL     1      -1.287   9.482  18.286  0.00  0.00    +0.000 A 
ATOM     31  C   UNL     1      -0.514  10.244  19.123  0.00  0.00    +0.000 A 
BRANCH  25  32
ATOM     32  C   UNL     1       0.438  13.537  20.336  0.00  0.00    +0.000 C 
ATOM     33  C   UNL     1       1.725  14.192  20.767  0.00  0.00    +0.000 C 
ATOM     34  C   UNL     1       1.200  14.442  19.390  0.00  0.00    +0.000 C 
ENDBRANCH  25  32
ENDBRANCH  21  22
ENDBRANCH   2  21
TORSDOF 8
ENDMDL
