MODEL 1
REMARK VINA RESULT:      -6.1      0.000      0.000
REMARK  Name = 
REMARK  5 active torsions:
REMARK  status: ('A' for Active; 'I' for Inactive)
REMARK    1  A    between atoms: C_1  and  S_2
REMARK    2  A    between atoms: S_2  and  C_4
REMARK    3  A    between atoms: C_4  and  C_5
REMARK    4  A    between atoms: C_10  and  C_11
REMARK    5  A    between atoms: N_15  and  C_16
REMARK                            x       y       z     vdW  Elec       q    Type
REMARK                         _______ _______ _______ _____ _____    ______ ____
ROOT
ATOM      1  C   UNL     1       5.419   4.231  17.400  0.00  0.00    +0.000 A 
ATOM      2  S   UNL     1       3.775   3.969  17.858  0.00  0.00    +0.000 S 
ATOM      3  C   UNL     1       4.062   4.781  19.315  0.00  0.00    +0.000 A 
ATOM      4 CL   UNL     1       2.797   4.983  20.453  0.00  0.00    +0.000 Cl
ATOM      5  N   UNL     1       5.274   5.222  19.520  0.00  0.00    +0.000 NA
ATOM      6  C   UNL     1       6.091   4.907  18.422  0.00  0.00    +0.000 A 
ENDROOT
BRANCH   6   7
ATOM      7  C   UNL     1       7.555   5.285  18.473  0.00  0.00    +0.000 C 
ATOM      8  F   UNL     1       7.973   5.553  19.738  0.00  0.00    +0.000 F 
ATOM      9  F   UNL     1       8.359   4.313  17.978  0.00  0.00    +0.000 F 
ATOM     10  F   UNL     1       7.799   6.412  17.753  0.00  0.00    +0.000 F 
ENDBRANCH   6   7
BRANCH   1  11
ATOM     11  C   UNL     1       5.922   3.683  16.100  0.00  0.00    +0.000 C 
BRANCH  11  13
ATOM     12  C   UNL     1       5.243   6.379  15.564  0.00  0.00    +0.000 C 
ATOM     13  S   UNL     1       6.128   4.992  14.876  0.00  0.00    +0.000 S 
ATOM     14  O   UNL     1       7.527   5.367  14.846  0.00  0.00    +0.000 OA
ATOM     15  N   UNL     1       5.321   4.569  13.631  0.00  0.00    +0.000 NA
BRANCH  15  16
ATOM     16  C   UNL     1       5.947   3.580  12.785  0.00  0.00    +0.000 C 
ATOM     17  N   UNL     1       6.503   2.814  12.120  0.00  0.00    +0.000 NA
ENDBRANCH  15  16
ENDBRANCH  11  13
ENDBRANCH   1  11
TORSDOF 4
ENDMDL
MODEL 2
REMARK VINA RESULT:      -6.0      3.173      5.047
REMARK  Name = 
REMARK  5 active torsions:
REMARK  status: ('A' for Active; 'I' for Inactive)
REMARK    1  A    between atoms: C_1  and  S_2
REMARK    2  A    between atoms: S_2  and  C_4
REMARK    3  A    between atoms: C_4  and  C_5
REMARK    4  A    between atoms: C_10  and  C_11
REMARK    5  A    between atoms: N_15  and  C_16
REMARK                            x       y       z     vdW  Elec       q    Type
REMARK                         _______ _______ _______ _____ _____    ______ ____
ROOT
ATOM      1  C   UNL     1       5.720   4.403  17.453  0.00  0.00    +0.000 A 
ATOM      2  S   UNL     1       5.354   4.038  15.805  0.00  0.00    +0.000 S 
ATOM      3  C   UNL     1       6.786   4.804  15.329  0.00  0.00    +0.000 A 
ATOM      4 CL   UNL     1       7.214   4.877  13.671  0.00  0.00    +0.000 Cl
ATOM      5  N   UNL     1       7.519   5.332  16.272  0.00  0.00    +0.000 NA
ATOM      6  C   UNL     1       6.916   5.121  17.523  0.00  0.00    +0.000 A 
ENDROOT
BRANCH   6   7
ATOM      7  C   UNL     1       7.578   5.697  18.755  0.00  0.00    +0.000 C 
ATOM      8  F   UNL     1       8.103   6.930  18.527  0.00  0.00    +0.000 F 
ATOM      9  F   UNL     1       6.722   5.807  19.800  0.00  0.00    +0.000 F 
ATOM     10  F   UNL     1       8.615   4.920  19.166  0.00  0.00    +0.000 F 
ENDBRANCH   6   7
BRANCH   1  11
ATOM     11  C   UNL     1       4.756   4.009  18.530  0.00  0.00    +0.000 C 
BRANCH  11  13
ATOM     12  C   UNL     1       3.875   6.589  17.767  0.00  0.00    +0.000 C 
ATOM     13  S   UNL     1       3.308   5.083  18.534  0.00  0.00    +0.000 S 
ATOM     14  O   UNL     1       2.318   4.511  17.642  0.00  0.00    +0.000 OA
ATOM     15  N   UNL     1       3.030   5.453  20.006  0.00  0.00    +0.000 NA
BRANCH  15  16
ATOM     16  C   UNL     1       2.370   4.438  20.793  0.00  0.00    +0.000 C 
ATOM     17  N   UNL     1       1.836   3.591  21.373  0.00  0.00    +0.000 NA
ENDBRANCH  15  16
ENDBRANCH  11  13
ENDBRANCH   1  11
TORSDOF 4
ENDMDL
MODEL 3
REMARK VINA RESULT:      -6.0      3.183      5.127
REMARK  Name = 
REMARK  5 active torsions:
REMARK  status: ('A' for Active; 'I' for Inactive)
REMARK    1  A    between atoms: C_1  and  S_2
REMARK    2  A    between atoms: S_2  and  C_4
REMARK    3  A    between atoms: C_4  and  C_5
REMARK    4  A    between atoms: C_10  and  C_11
REMARK    5  A    between atoms: N_15  and  C_16
REMARK                            x       y       z     vdW  Elec       q    Type
REMARK                         _______ _______ _______ _____ _____    ______ ____
ROOT
ATOM      1  C   UNL     1       5.751   4.333  17.896  0.00  0.00    +0.000 A 
ATOM      2  S   UNL     1       5.222   3.921  16.305  0.00  0.00    +0.000 S 
ATOM      3  C   UNL     1       6.580   4.698  15.663  0.00  0.00    +0.000 A 
ATOM      4 CL   UNL     1       6.831   4.736  13.968  0.00  0.00    +0.000 Cl
ATOM      5  N   UNL     1       7.398   5.262  16.510  0.00  0.00    +0.000 NA
ATOM      6  C   UNL     1       6.934   5.072  17.823  0.00  0.00    +0.000 A 
ENDROOT
BRANCH   6   7
ATOM      7  C   UNL     1       7.711   5.690  18.965  0.00  0.00    +0.000 C 
ATOM      8  F   UNL     1       8.761   4.917  19.349  0.00  0.00    +0.000 F 
ATOM      9  F   UNL     1       8.200   6.915  18.656  0.00  0.00    +0.000 F 
ATOM     10  F   UNL     1       6.932   5.836  20.069  0.00  0.00    +0.000 F 
ENDBRANCH   6   7
BRANCH   1  11
ATOM     11  C   UNL     1       4.914   3.951  19.078  0.00  0.00    +0.000 C 
BRANCH  11  13
ATOM     12  C   UNL     1       3.548   6.279  18.223  0.00  0.00    +0.000 C 
ATOM     13  S   UNL     1       3.271   4.688  18.979  0.00  0.00    +0.000 S 
ATOM     14  O   UNL     1       2.483   3.914  18.040  0.00  0.00    +0.000 OA
ATOM     15  N   UNL     1       2.832   4.994  20.426  0.00  0.00    +0.000 NA
BRANCH  15  16
ATOM     16  C   UNL     1       2.357   3.863  21.189  0.00  0.00    +0.000 C 
ATOM     17  N   UNL     1       1.987   2.990  21.852  0.00  0.00    +0.000 NA
ENDBRANCH  15  16
ENDBRANCH  11  13
ENDBRANCH   1  11
TORSDOF 4
ENDMDL
MODEL 4
REMARK VINA RESULT:      -5.9      3.757      5.359
REMARK  Name = 
REMARK  5 active torsions:
REMARK  status: ('A' for Active; 'I' for Inactive)
REMARK    1  A    between atoms: C_1  and  S_2
REMARK    2  A    between atoms: S_2  and  C_4
REMARK    3  A    between atoms: C_4  and  C_5
REMARK    4  A    between atoms: C_10  and  C_11
REMARK    5  A    between atoms: N_15  and  C_16
REMARK                            x       y       z     vdW  Elec       q    Type
REMARK                         _______ _______ _______ _____ _____    ______ ____
ROOT
ATOM      1  C   UNL     1       3.855   5.465  18.665  0.00  0.00    +0.000 A 
ATOM      2  S   UNL     1       2.593   6.517  19.196  0.00  0.00    +0.000 S 
ATOM      3  C   UNL     1       2.998   7.607  17.967  0.00  0.00    +0.000 A 
ATOM      4 CL   UNL     1       2.117   9.066  17.783  0.00  0.00    +0.000 Cl
ATOM      5  N   UNL     1       4.000   7.286  17.194  0.00  0.00    +0.000 NA
ATOM      6  C   UNL     1       4.527   6.043  17.585  0.00  0.00    +0.000 A 
ENDROOT
BRANCH   6   7
ATOM      7  C   UNL     1       5.733   5.501  16.850  0.00  0.00    +0.000 C 
ATOM      8  F   UNL     1       5.859   6.035  15.606  0.00  0.00    +0.000 F 
ATOM      9  F   UNL     1       6.892   5.736  17.512  0.00  0.00    +0.000 F 
ATOM     10  F   UNL     1       5.639   4.157  16.671  0.00  0.00    +0.000 F 
ENDBRANCH   6   7
BRANCH   1  11
ATOM     11  C   UNL     1       4.118   4.191  19.406  0.00  0.00    +0.000 C 
BRANCH  11  13
ATOM     12  C   UNL     1       2.555   3.252  17.241  0.00  0.00    +0.000 C 
ATOM     13  S   UNL     1       2.929   2.914  18.952  0.00  0.00    +0.000 S 
ATOM     14  O   UNL     1       3.607   1.633  18.982  0.00  0.00    +0.000 OA
ATOM     15  N   UNL     1       1.629   3.219  19.723  0.00  0.00    +0.000 NA
BRANCH  15  16
ATOM     16  C   UNL     1       1.620   2.833  21.114  0.00  0.00    +0.000 C 
ATOM     17  N   UNL     1       1.602   2.466  22.212  0.00  0.00    +0.000 NA
ENDBRANCH  15  16
ENDBRANCH  11  13
ENDBRANCH   1  11
TORSDOF 4
ENDMDL
MODEL 5
REMARK VINA RESULT:      -5.9      3.004      4.103
REMARK  Name = 
REMARK  5 active torsions:
REMARK  status: ('A' for Active; 'I' for Inactive)
REMARK    1  A    between atoms: C_1  and  S_2
REMARK    2  A    between atoms: S_2  and  C_4
REMARK    3  A    between atoms: C_4  and  C_5
REMARK    4  A    between atoms: C_10  and  C_11
REMARK    5  A    between atoms: N_15  and  C_16
REMARK                            x       y       z     vdW  Elec       q    Type
REMARK                         _______ _______ _______ _____ _____    ______ ____
ROOT
ATOM      1  C   UNL     1       4.166   4.896  17.703  0.00  0.00    +0.000 A 
ATOM      2  S   UNL     1       3.642   6.541  17.753  0.00  0.00    +0.000 S 
ATOM      3  C   UNL     1       2.906   6.251  19.249  0.00  0.00    +0.000 A 
ATOM      4 CL   UNL     1       2.087   7.515  20.066  0.00  0.00    +0.000 Cl
ATOM      5  N   UNL     1       2.988   5.038  19.726  0.00  0.00    +0.000 NA
ATOM      6  C   UNL     1       3.711   4.222  18.839  0.00  0.00    +0.000 A 
ENDROOT
BRANCH   6   7
ATOM      7  C   UNL     1       3.883   2.758  19.176  0.00  0.00    +0.000 C 
ATOM      8  F   UNL     1       3.827   1.967  18.072  0.00  0.00    +0.000 F 
ATOM      9  F   UNL     1       5.061   2.504  19.797  0.00  0.00    +0.000 F 
ATOM     10  F   UNL     1       2.894   2.321  19.999  0.00  0.00    +0.000 F 
ENDBRANCH   6   7
BRANCH   1  11
ATOM     11  C   UNL     1       4.922   4.396  16.512  0.00  0.00    +0.000 C 
BRANCH  11  13
ATOM     12  C   UNL     1       7.052   4.797  14.691  0.00  0.00    +0.000 C 
ATOM     13  S   UNL     1       6.483   5.276  16.312  0.00  0.00    +0.000 S 
ATOM     14  O   UNL     1       6.197   6.696  16.249  0.00  0.00    +0.000 OA
ATOM     15  N   UNL     1       7.484   4.642  17.300  0.00  0.00    +0.000 NA
BRANCH  15  16
ATOM     16  C   UNL     1       7.347   5.050  18.678  0.00  0.00    +0.000 C 
ATOM     17  N   UNL     1       7.236   5.436  19.764  0.00  0.00    +0.000 NA
ENDBRANCH  15  16
ENDBRANCH  11  13
ENDBRANCH   1  11
TORSDOF 4
ENDMDL
MODEL 6
REMARK VINA RESULT:      -5.9      3.692      5.135
REMARK  Name = 
REMARK  5 active torsions:
REMARK  status: ('A' for Active; 'I' for Inactive)
REMARK    1  A    between atoms: C_1  and  S_2
REMARK    2  A    between atoms: S_2  and  C_4
REMARK    3  A    between atoms: C_4  and  C_5
REMARK    4  A    between atoms: C_10  and  C_11
REMARK    5  A    between atoms: N_15  and  C_16
REMARK                            x       y       z     vdW  Elec       q    Type
REMARK                         _______ _______ _______ _____ _____    ______ ____
ROOT
ATOM      1  C   UNL     1       5.591   4.620  17.747  0.00  0.00    +0.000 A 
ATOM      2  S   UNL     1       6.215   5.477  19.111  0.00  0.00    +0.000 S 
ATOM      3  C   UNL     1       7.334   6.248  18.102  0.00  0.00    +0.000 A 
ATOM      4 CL   UNL     1       8.437   7.387  18.751  0.00  0.00    +0.000 Cl
ATOM      5  N   UNL     1       7.314   5.925  16.837  0.00  0.00    +0.000 NA
ATOM      6  C   UNL     1       6.312   4.968  16.602  0.00  0.00    +0.000 A 
ENDROOT
BRANCH   6   7
ATOM      7  C   UNL     1       6.149   4.416  15.203  0.00  0.00    +0.000 C 
ATOM      8  F   UNL     1       7.175   4.773  14.387  0.00  0.00    +0.000 F 
ATOM      9  F   UNL     1       6.069   3.063  15.186  0.00  0.00    +0.000 F 
ATOM     10  F   UNL     1       5.020   4.892  14.614  0.00  0.00    +0.000 F 
ENDBRANCH   6   7
BRANCH   1  11
ATOM     11  C   UNL     1       4.489   3.624  17.938  0.00  0.00    +0.000 C 
BRANCH  11  13
ATOM     12  C   UNL     1       3.175   6.113  17.630  0.00  0.00    +0.000 C 
ATOM     13  S   UNL     1       2.906   4.446  18.204  0.00  0.00    +0.000 S 
ATOM     14  O   UNL     1       1.932   3.851  17.309  0.00  0.00    +0.000 OA
ATOM     15  N   UNL     1       2.715   4.565  19.730  0.00  0.00    +0.000 NA
BRANCH  15  16
ATOM     16  C   UNL     1       2.286   3.362  20.403  0.00  0.00    +0.000 C 
ATOM     17  N   UNL     1       1.887   2.425  20.953  0.00  0.00    +0.000 NA
ENDBRANCH  15  16
ENDBRANCH  11  13
ENDBRANCH   1  11
TORSDOF 4
ENDMDL
MODEL 7
REMARK VINA RESULT:      -5.8      3.153      5.184
REMARK  Name = 
REMARK  5 active torsions:
REMARK  status: ('A' for Active; 'I' for Inactive)
REMARK    1  A    between atoms: C_1  and  S_2
REMARK    2  A    between atoms: S_2  and  C_4
REMARK    3  A    between atoms: C_4  and  C_5
REMARK    4  A    between atoms: C_10  and  C_11
REMARK    5  A    between atoms: N_15  and  C_16
REMARK                            x       y       z     vdW  Elec       q    Type
REMARK                         _______ _______ _______ _____ _____    ______ ____
ROOT
ATOM      1  C   UNL     1       5.699   5.180  17.437  0.00  0.00    +0.000 A 
ATOM      2  S   UNL     1       5.230   4.018  16.248  0.00  0.00    +0.000 S 
ATOM      3  C   UNL     1       6.389   4.650  15.189  0.00  0.00    +0.000 A 
ATOM      4 CL   UNL     1       6.591   3.972  13.628  0.00  0.00    +0.000 Cl
ATOM      5  N   UNL     1       7.093   5.663  15.615  0.00  0.00    +0.000 NA
ATOM      6  C   UNL     1       6.705   6.001  16.923  0.00  0.00    +0.000 A 
ENDROOT
BRANCH   6   7
ATOM      7  C   UNL     1       7.365   7.186  17.594  0.00  0.00    +0.000 C 
ATOM      8  F   UNL     1       8.324   7.750  16.813  0.00  0.00    +0.000 F 
ATOM      9  F   UNL     1       6.478   8.159  17.914  0.00  0.00    +0.000 F 
ATOM     10  F   UNL     1       7.989   6.817  18.743  0.00  0.00    +0.000 F 
ENDBRANCH   6   7
BRANCH   1  11
ATOM     11  C   UNL     1       4.982   5.225  18.751  0.00  0.00    +0.000 C 
BRANCH  11  13
ATOM     12  C   UNL     1       3.372   7.304  17.703  0.00  0.00    +0.000 C 
ATOM     13  S   UNL     1       3.265   5.733  18.540  0.00  0.00    +0.000 S 
ATOM     14  O   UNL     1       2.630   4.813  17.617  0.00  0.00    +0.000 OA
ATOM     15  N   UNL     1       2.719   6.056  19.946  0.00  0.00    +0.000 NA
BRANCH  15  16
ATOM     16  C   UNL     1       2.358   4.916  20.755  0.00  0.00    +0.000 C 
ATOM     17  N   UNL     1       2.053   3.972  21.351  0.00  0.00    +0.000 NA
ENDBRANCH  15  16
ENDBRANCH  11  13
ENDBRANCH   1  11
TORSDOF 4
ENDMDL
MODEL 8
REMARK VINA RESULT:      -5.8      3.710      5.356
REMARK  Name = 
REMARK  5 active torsions:
REMARK  status: ('A' for Active; 'I' for Inactive)
REMARK    1  A    between atoms: C_1  and  S_2
REMARK    2  A    between atoms: S_2  and  C_4
REMARK    3  A    between atoms: C_4  and  C_5
REMARK    4  A    between atoms: C_10  and  C_11
REMARK    5  A    between atoms: N_15  and  C_16
REMARK                            x       y       z     vdW  Elec       q    Type
REMARK                         _______ _______ _______ _____ _____    ______ ____
ROOT
ATOM      1  C   UNL     1       5.716   4.653  18.008  0.00  0.00    +0.000 A 
ATOM      2  S   UNL     1       6.425   5.668  19.213  0.00  0.00    +0.000 S 
ATOM      3  C   UNL     1       7.286   6.483  18.005  0.00  0.00    +0.000 A 
ATOM      4 CL   UNL     1       8.329   7.779  18.415  0.00  0.00    +0.000 Cl
ATOM      5  N   UNL     1       7.122   6.069  16.777  0.00  0.00    +0.000 NA
ATOM      6  C   UNL     1       6.217   4.995  16.750  0.00  0.00    +0.000 A 
ENDROOT
BRANCH   6   7
ATOM      7  C   UNL     1       5.919   4.329  15.424  0.00  0.00    +0.000 C 
ATOM      8  F   UNL     1       4.610   4.439  15.077  0.00  0.00    +0.000 F 
ATOM      9  F   UNL     1       6.653   4.846  14.408  0.00  0.00    +0.000 F 
ATOM     10  F   UNL     1       6.182   2.997  15.472  0.00  0.00    +0.000 F 
ENDBRANCH   6   7
BRANCH   1  11
ATOM     11  C   UNL     1       4.779   3.560  18.419  0.00  0.00    +0.000 C 
BRANCH  11  13
ATOM     12  C   UNL     1       3.081   5.742  17.810  0.00  0.00    +0.000 C 
ATOM     13  S   UNL     1       3.116   4.197  18.701  0.00  0.00    +0.000 S 
ATOM     14  O   UNL     1       2.175   3.315  18.038  0.00  0.00    +0.000 OA
ATOM     15  N   UNL     1       3.032   4.583  20.192  0.00  0.00    +0.000 NA
BRANCH  15  16
ATOM     16  C   UNL     1       2.847   3.486  21.113  0.00  0.00    +0.000 C 
ATOM     17  N   UNL     1       2.640   2.602  21.831  0.00  0.00    +0.000 NA
ENDBRANCH  15  16
ENDBRANCH  11  13
ENDBRANCH   1  11
TORSDOF 4
ENDMDL
MODEL 9
REMARK VINA RESULT:      -5.8      3.099      4.602
REMARK  Name = 
REMARK  5 active torsions:
REMARK  status: ('A' for Active; 'I' for Inactive)
REMARK    1  A    between atoms: C_1  and  S_2
REMARK    2  A    between atoms: S_2  and  C_4
REMARK    3  A    between atoms: C_4  and  C_5
REMARK    4  A    between atoms: C_10  and  C_11
REMARK    5  A    between atoms: N_15  and  C_16
REMARK                            x       y       z     vdW  Elec       q    Type
REMARK                         _______ _______ _______ _____ _____    ______ ____
ROOT
ATOM      1  C   UNL     1       6.040   4.998  17.451  0.00  0.00    +0.000 A 
ATOM      2  S   UNL     1       5.618   3.840  16.241  0.00  0.00    +0.000 S 
ATOM      3  C   UNL     1       6.574   4.676  15.122  0.00  0.00    +0.000 A 
ATOM      4 CL   UNL     1       6.712   4.107  13.511  0.00  0.00    +0.000 Cl
ATOM      5  N   UNL     1       7.174   5.756  15.544  0.00  0.00    +0.000 NA
ATOM      6  C   UNL     1       6.873   5.974  16.898  0.00  0.00    +0.000 A 
ENDROOT
BRANCH   6   7
ATOM      7  C   UNL     1       7.430   7.206  17.578  0.00  0.00    +0.000 C 
ATOM      8  F   UNL     1       6.461   8.113  17.871  0.00  0.00    +0.000 F 
ATOM      9  F   UNL     1       8.076   6.913  18.733  0.00  0.00    +0.000 F 
ATOM     10  F   UNL     1       8.316   7.853  16.776  0.00  0.00    +0.000 F 
ENDBRANCH   6   7
BRANCH   1  11
ATOM     11  C   UNL     1       5.455   4.881  18.824  0.00  0.00    +0.000 C 
BRANCH  11  13
ATOM     12  C   UNL     1       3.083   6.154  19.702  0.00  0.00    +0.000 C 
ATOM     13  S   UNL     1       3.657   4.754  18.758  0.00  0.00    +0.000 S 
ATOM     14  O   UNL     1       3.237   4.977  17.389  0.00  0.00    +0.000 OA
ATOM     15  N   UNL     1       3.267   3.514  19.589  0.00  0.00    +0.000 NA
BRANCH  15  16
ATOM     16  C   UNL     1       3.453   2.239  18.936  0.00  0.00    +0.000 C 
ATOM     17  N   UNL     1       3.610   1.248  18.360  0.00  0.00    +0.000 NA
ENDBRANCH  15  16
ENDBRANCH  11  13
ENDBRANCH   1  11
TORSDOF 4
ENDMDL
