MODEL 1
REMARK VINA RESULT:      -8.4      0.000      0.000
REMARK  Name = 
REMARK  9 active torsions:
REMARK  status: ('A' for Active; 'I' for Inactive)
REMARK    1  A    between atoms: C_1  and  N_2
REMARK    2  A    between atoms: N_2  and  C_3
REMARK    3  A    between atoms: N_2  and  C_4
REMARK    4  A    between atoms: C_7  and  C_8
REMARK    5  A    between atoms: C_8  and  C_9
REMARK    6  A    between atoms: C_9  and  C_10
REMARK    7  A    between atoms: N_12  and  C_13
REMARK    8  A    between atoms: C_17  and  C_18
REMARK    9  A    between atoms: C_21  and  C_22
REMARK                            x       y       z     vdW  Elec       q    Type
REMARK                         _______ _______ _______ _____ _____    ______ ____
ROOT
ATOM      1  C   UNL     1       2.703   5.805  20.044  0.00  0.00    +0.000 C 
ATOM      2  C   UNL     1       2.698   4.446  20.750  0.00  0.00    +0.000 C 
ATOM      3  N   UNL     1       1.544   3.710  20.198  0.00  0.00    +0.000 NA
ATOM      4  C   UNL     1       1.303   4.241  18.845  0.00  0.00    +0.000 C 
ATOM      5  C   UNL     1       2.245   5.441  18.619  0.00  0.00    +0.000 C 
ATOM      6  H   UNL     1       0.726   3.889  20.780  0.00  0.00    +0.000 HD
ENDROOT
BRANCH   5   7
ATOM      7  C   UNL     1       3.396   5.178  17.660  0.00  0.00    +0.000 A 
ATOM      8  C   UNL     1       4.125   6.264  17.152  0.00  0.00    +0.000 A 
ATOM      9  C   UNL     1       5.176   6.065  16.252  0.00  0.00    +0.000 A 
ATOM     10  C   UNL     1       5.526   4.774  15.837  0.00  0.00    +0.000 A 
ATOM     11  C   UNL     1       4.803   3.687  16.343  0.00  0.00    +0.000 A 
ATOM     12  C   UNL     1       3.758   3.887  17.248  0.00  0.00    +0.000 A 
BRANCH  10  13
ATOM     13  C   UNL     1       6.659   4.537  14.870  0.00  0.00    +0.000 C 
ATOM     14  F   UNL     1       6.785   5.512  13.926  0.00  0.00    +0.000 F 
ATOM     15  F   UNL     1       7.869   4.463  15.492  0.00  0.00    +0.000 F 
ATOM     16  F   UNL     1       6.522   3.369  14.182  0.00  0.00    +0.000 F 
ENDBRANCH  10  13
ENDBRANCH   5   7
BRANCH   1  19
ATOM     17  C   UNL     1       1.549   8.022  20.254  0.00  0.00    +0.000 C 
ATOM     18  O   UNL     1       2.095   8.483  19.259  0.00  0.00    +0.000 OA
ATOM     19  N   UNL     1       1.734   6.722  20.665  0.00  0.00    +0.000 N 
ATOM     20  H   UNL     1       1.465   6.476  21.608  0.00  0.00    +0.000 HD
BRANCH  17  21
ATOM     21  C   UNL     1       0.528   8.826  21.058  0.00  0.00    +0.000 C 
BRANCH  21  22
ATOM     22  C   UNL     1       0.456  10.308  20.686  0.00  0.00    +0.000 C 
BRANCH  22  26
ATOM     23  C   UNL     1      -2.631  11.167  17.726  0.00  0.00    +0.000 A 
ATOM     24  C   UNL     1      -1.650  10.184  17.524  0.00  0.00    +0.000 A 
ATOM     25  C   UNL     1      -0.653   9.924  18.469  0.00  0.00    +0.000 A 
ATOM     26  C   UNL     1      -0.618  10.617  19.679  0.00  0.00    +0.000 A 
ATOM     27  C   UNL     1      -1.598  11.577  19.924  0.00  0.00    +0.000 A 
ATOM     28  C   UNL     1      -2.583  11.841  18.962  0.00  0.00    +0.000 A 
BRANCH  23  30
ATOM     29  C   UNL     1      -4.971  11.762  17.196  0.00  0.00    +0.000 C 
ATOM     30  N   UNL     1      -3.610  11.447  16.771  0.00  0.00    +0.000 N 
ATOM     31  C   UNL     1      -3.452  10.874  15.438  0.00  0.00    +0.000 C 
ENDBRANCH  23  30
ENDBRANCH  22  26
ENDBRANCH  21  22
ENDBRANCH  17  21
ENDBRANCH   1  19
TORSDOF 7
ENDMDL
MODEL 2
REMARK VINA RESULT:      -8.3      6.787      9.279
REMARK  Name = 
REMARK  9 active torsions:
REMARK  status: ('A' for Active; 'I' for Inactive)
REMARK    1  A    between atoms: C_1  and  N_2
REMARK    2  A    between atoms: N_2  and  C_3
REMARK    3  A    between atoms: N_2  and  C_4
REMARK    4  A    between atoms: C_7  and  C_8
REMARK    5  A    between atoms: C_8  and  C_9
REMARK    6  A    between atoms: C_9  and  C_10
REMARK    7  A    between atoms: N_12  and  C_13
REMARK    8  A    between atoms: C_17  and  C_18
REMARK    9  A    between atoms: C_21  and  C_22
REMARK                            x       y       z     vdW  Elec       q    Type
REMARK                         _______ _______ _______ _____ _____    ______ ____
ROOT
ATOM      1  C   UNL     1       6.084   6.308  16.787  0.00  0.00    +0.000 C 
ATOM      2  C   UNL     1       6.614   5.251  15.814  0.00  0.00    +0.000 C 
ATOM      3  N   UNL     1       7.706   4.558  16.526  0.00  0.00    +0.000 NA
ATOM      4  C   UNL     1       7.421   4.674  17.967  0.00  0.00    +0.000 C 
ATOM      5  C   UNL     1       6.195   5.592  18.147  0.00  0.00    +0.000 C 
ATOM      6  H   UNL     1       8.588   5.028  16.318  0.00  0.00    +0.000 HD
ENDROOT
BRANCH   5   7
ATOM      7  C   UNL     1       4.918   4.877  18.562  0.00  0.00    +0.000 A 
ATOM      8  C   UNL     1       3.681   5.496  18.327  0.00  0.00    +0.000 A 
ATOM      9  C   UNL     1       2.485   4.881  18.713  0.00  0.00    +0.000 A 
ATOM     10  C   UNL     1       2.497   3.630  19.343  0.00  0.00    +0.000 A 
ATOM     11  C   UNL     1       3.729   3.007  19.576  0.00  0.00    +0.000 A 
ATOM     12  C   UNL     1       4.922   3.619  19.184  0.00  0.00    +0.000 A 
BRANCH  10  13
ATOM     13  C   UNL     1       1.219   2.948  19.763  0.00  0.00    +0.000 C 
ATOM     14  F   UNL     1       0.259   3.808  20.206  0.00  0.00    +0.000 F 
ATOM     15  F   UNL     1       0.646   2.243  18.747  0.00  0.00    +0.000 F 
ATOM     16  F   UNL     1       1.412   2.055  20.774  0.00  0.00    +0.000 F 
ENDBRANCH  10  13
ENDBRANCH   5   7
BRANCH   1  19
ATOM     17  C   UNL     1       7.781   7.843  17.814  0.00  0.00    +0.000 C 
ATOM     18  O   UNL     1       7.968   7.110  18.778  0.00  0.00    +0.000 OA
ATOM     19  N   UNL     1       6.941   7.505  16.778  0.00  0.00    +0.000 N 
ATOM     20  H   UNL     1       6.638   8.236  16.151  0.00  0.00    +0.000 HD
BRANCH  17  21
ATOM     21  C   UNL     1       8.553   9.149  17.634  0.00  0.00    +0.000 C 
BRANCH  21  22
ATOM     22  C   UNL     1       9.039   9.783  18.938  0.00  0.00    +0.000 C 
BRANCH  22  26
ATOM     23  C   UNL     1      11.052  13.615  18.401  0.00  0.00    +0.000 A 
ATOM     24  C   UNL     1      11.539  12.626  19.269  0.00  0.00    +0.000 A 
ATOM     25  C   UNL     1      10.882  11.406  19.450  0.00  0.00    +0.000 A 
ATOM     26  C   UNL     1       9.721  11.109  18.738  0.00  0.00    +0.000 A 
ATOM     27  C   UNL     1       9.229  12.057  17.842  0.00  0.00    +0.000 A 
ATOM     28  C   UNL     1       9.887  13.284  17.682  0.00  0.00    +0.000 A 
BRANCH  23  30
ATOM     29  C   UNL     1      12.333  15.486  19.386  0.00  0.00    +0.000 C 
ATOM     30  N   UNL     1      11.693  14.845  18.241  0.00  0.00    +0.000 N 
ATOM     31  C   UNL     1      11.239  15.721  17.165  0.00  0.00    +0.000 C 
ENDBRANCH  23  30
ENDBRANCH  22  26
ENDBRANCH  21  22
ENDBRANCH  17  21
ENDBRANCH   1  19
TORSDOF 7
ENDMDL
MODEL 3
REMARK VINA RESULT:      -8.2      6.656      9.260
REMARK  Name = 
REMARK  9 active torsions:
REMARK  status: ('A' for Active; 'I' for Inactive)
REMARK    1  A    between atoms: C_1  and  N_2
REMARK    2  A    between atoms: N_2  and  C_3
REMARK    3  A    between atoms: N_2  and  C_4
REMARK    4  A    between atoms: C_7  and  C_8
REMARK    5  A    between atoms: C_8  and  C_9
REMARK    6  A    between atoms: C_9  and  C_10
REMARK    7  A    between atoms: N_12  and  C_13
REMARK    8  A    between atoms: C_17  and  C_18
REMARK    9  A    between atoms: C_21  and  C_22
REMARK                            x       y       z     vdW  Elec       q    Type
REMARK                         _______ _______ _______ _____ _____    ______ ____
ROOT
ATOM      1  C   UNL     1       5.582   6.768  16.686  0.00  0.00    +0.000 C 
ATOM      2  C   UNL     1       5.407   6.298  15.239  0.00  0.00    +0.000 C 
ATOM      3  N   UNL     1       6.403   5.228  15.039  0.00  0.00    +0.000 NA
ATOM      4  C   UNL     1       6.661   4.628  16.360  0.00  0.00    +0.000 C 
ATOM      5  C   UNL     1       5.910   5.455  17.423  0.00  0.00    +0.000 C 
ATOM      6  H   UNL     1       7.266   5.639  14.682  0.00  0.00    +0.000 HD
ENDROOT
BRANCH   5   7
ATOM      7  C   UNL     1       4.687   4.771  18.017  0.00  0.00    +0.000 A 
ATOM      8  C   UNL     1       4.200   5.202  19.260  0.00  0.00    +0.000 A 
ATOM      9  C   UNL     1       3.092   4.585  19.850  0.00  0.00    +0.000 A 
ATOM     10  C   UNL     1       2.441   3.522  19.210  0.00  0.00    +0.000 A 
ATOM     11  C   UNL     1       2.922   3.092  17.967  0.00  0.00    +0.000 A 
ATOM     12  C   UNL     1       4.025   3.713  17.376  0.00  0.00    +0.000 A 
BRANCH  10  13
ATOM     13  C   UNL     1       1.242   2.847  19.825  0.00  0.00    +0.000 C 
ATOM     14  F   UNL     1       0.483   2.156  18.928  0.00  0.00    +0.000 F 
ATOM     15  F   UNL     1       1.587   1.948  20.789  0.00  0.00    +0.000 F 
ATOM     16  F   UNL     1       0.396   3.730  20.425  0.00  0.00    +0.000 F 
ENDBRANCH  10  13
ENDBRANCH   5   7
BRANCH   1  19
ATOM     17  C   UNL     1       7.584   7.713  17.865  0.00  0.00    +0.000 C 
ATOM     18  O   UNL     1       7.557   6.863  18.747  0.00  0.00    +0.000 OA
ATOM     19  N   UNL     1       6.712   7.703  16.801  0.00  0.00    +0.000 N 
ATOM     20  H   UNL     1       6.618   8.547  16.253  0.00  0.00    +0.000 HD
BRANCH  17  21
ATOM     21  C   UNL     1       8.664   8.792  17.820  0.00  0.00    +0.000 C 
BRANCH  21  22
ATOM     22  C   UNL     1       8.938   9.470  19.164  0.00  0.00    +0.000 C 
BRANCH  22  26
ATOM     23  C   UNL     1      11.094  13.248  18.844  0.00  0.00    +0.000 A 
ATOM     24  C   UNL     1      10.732  12.693  20.080  0.00  0.00    +0.000 A 
ATOM     25  C   UNL     1      10.028  11.489  20.177  0.00  0.00    +0.000 A 
ATOM     26  C   UNL     1       9.684  10.770  19.033  0.00  0.00    +0.000 A 
ATOM     27  C   UNL     1      10.058  11.278  17.791  0.00  0.00    +0.000 A 
ATOM     28  C   UNL     1      10.750  12.494  17.705  0.00  0.00    +0.000 A 
BRANCH  23  30
ATOM     29  C   UNL     1      11.903  15.321  19.920  0.00  0.00    +0.000 C 
ATOM     30  N   UNL     1      11.774  14.464  18.745  0.00  0.00    +0.000 N 
ATOM     31  C   UNL     1      11.821  15.120  17.442  0.00  0.00    +0.000 C 
ENDBRANCH  23  30
ENDBRANCH  22  26
ENDBRANCH  21  22
ENDBRANCH  17  21
ENDBRANCH   1  19
TORSDOF 7
ENDMDL
MODEL 4
REMARK VINA RESULT:      -8.2      2.145      2.639
REMARK  Name = 
REMARK  9 active torsions:
REMARK  status: ('A' for Active; 'I' for Inactive)
REMARK    1  A    between atoms: C_1  and  N_2
REMARK    2  A    between atoms: N_2  and  C_3
REMARK    3  A    between atoms: N_2  and  C_4
REMARK    4  A    between atoms: C_7  and  C_8
REMARK    5  A    between atoms: C_8  and  C_9
REMARK    6  A    between atoms: C_9  and  C_10
REMARK    7  A    between atoms: N_12  and  C_13
REMARK    8  A    between atoms: C_17  and  C_18
REMARK    9  A    between atoms: C_21  and  C_22
REMARK                            x       y       z     vdW  Elec       q    Type
REMARK                         _______ _______ _______ _____ _____    ______ ____
ROOT
ATOM      1  C   UNL     1       2.446   5.538  20.431  0.00  0.00    +0.000 C 
ATOM      2  C   UNL     1       2.569   4.204  21.173  0.00  0.00    +0.000 C 
ATOM      3  N   UNL     1       1.461   3.364  20.678  0.00  0.00    +0.000 NA
ATOM      4  C   UNL     1       1.138   3.835  19.320  0.00  0.00    +0.000 C 
ATOM      5  C   UNL     1       1.976   5.097  19.032  0.00  0.00    +0.000 C 
ATOM      6  H   UNL     1       0.649   3.496  21.282  0.00  0.00    +0.000 HD
ENDROOT
BRANCH   5   7
ATOM      7  C   UNL     1       3.115   4.896  18.043  0.00  0.00    +0.000 A 
ATOM      8  C   UNL     1       3.877   6.004  17.645  0.00  0.00    +0.000 A 
ATOM      9  C   UNL     1       4.919   5.864  16.722  0.00  0.00    +0.000 A 
ATOM     10  C   UNL     1       5.226   4.611  16.176  0.00  0.00    +0.000 A 
ATOM     11  C   UNL     1       4.470   3.502  16.574  0.00  0.00    +0.000 A 
ATOM     12  C   UNL     1       3.434   3.642  17.501  0.00  0.00    +0.000 A 
BRANCH  10  13
ATOM     13  C   UNL     1       6.348   4.438  15.183  0.00  0.00    +0.000 C 
ATOM     14  F   UNL     1       6.400   5.419  14.239  0.00  0.00    +0.000 F 
ATOM     15  F   UNL     1       7.574   4.429  15.778  0.00  0.00    +0.000 F 
ATOM     16  F   UNL     1       6.260   3.265  14.495  0.00  0.00    +0.000 F 
ENDBRANCH  10  13
ENDBRANCH   5   7
BRANCH   1  19
ATOM     17  C   UNL     1       1.288   7.735  20.781  0.00  0.00    +0.000 C 
ATOM     18  O   UNL     1       1.931   8.296  19.902  0.00  0.00    +0.000 OA
ATOM     19  N   UNL     1       1.427   6.394  21.057  0.00  0.00    +0.000 N 
ATOM     20  H   UNL     1       1.067   6.048  21.936  0.00  0.00    +0.000 HD
BRANCH  17  21
ATOM     21  C   UNL     1       0.199   8.460  21.570  0.00  0.00    +0.000 C 
BRANCH  21  22
ATOM     22  C   UNL     1       0.569   9.880  22.002  0.00  0.00    +0.000 C 
BRANCH  22  26
ATOM     23  C   UNL     1      -2.816  12.630  21.953  0.00  0.00    +0.000 A 
ATOM     24  C   UNL     1      -2.407  11.964  23.118  0.00  0.00    +0.000 A 
ATOM     25  C   UNL     1      -1.331  11.071  23.125  0.00  0.00    +0.000 A 
ATOM     26  C   UNL     1      -0.594  10.834  21.966  0.00  0.00    +0.000 A 
ATOM     27  C   UNL     1      -0.954  11.506  20.799  0.00  0.00    +0.000 A 
ATOM     28  C   UNL     1      -2.045  12.386  20.800  0.00  0.00    +0.000 A 
BRANCH  23  30
ATOM     29  C   UNL     1      -5.259  12.975  22.115  0.00  0.00    +0.000 C 
ATOM     30  N   UNL     1      -3.908  13.501  21.939  0.00  0.00    +0.000 N 
ATOM     31  C   UNL     1      -3.779  14.752  21.199  0.00  0.00    +0.000 C 
ENDBRANCH  23  30
ENDBRANCH  22  26
ENDBRANCH  21  22
ENDBRANCH  17  21
ENDBRANCH   1  19
TORSDOF 7
ENDMDL
MODEL 5
REMARK VINA RESULT:      -8.2      2.183      2.787
REMARK  Name = 
REMARK  9 active torsions:
REMARK  status: ('A' for Active; 'I' for Inactive)
REMARK    1  A    between atoms: C_1  and  N_2
REMARK    2  A    between atoms: N_2  and  C_3
REMARK    3  A    between atoms: N_2  and  C_4
REMARK    4  A    between atoms: C_7  and  C_8
REMARK    5  A    between atoms: C_8  and  C_9
REMARK    6  A    between atoms: C_9  and  C_10
REMARK    7  A    between atoms: N_12  and  C_13
REMARK    8  A    between atoms: C_17  and  C_18
REMARK    9  A    between atoms: C_21  and  C_22
REMARK                            x       y       z     vdW  Elec       q    Type
REMARK                         _______ _______ _______ _____ _____    ______ ____
ROOT
ATOM      1  C   UNL     1       2.485   5.608  20.361  0.00  0.00    +0.000 C 
ATOM      2  C   UNL     1       2.553   4.265  21.093  0.00  0.00    +0.000 C 
ATOM      3  N   UNL     1       1.416   3.472  20.587  0.00  0.00    +0.000 NA
ATOM      4  C   UNL     1       1.117   3.965  19.231  0.00  0.00    +0.000 C 
ATOM      5  C   UNL     1       2.004   5.197  18.956  0.00  0.00    +0.000 C 
ATOM      6  H   UNL     1       0.606   3.630  21.188  0.00  0.00    +0.000 HD
ENDROOT
BRANCH   5   7
ATOM      7  C   UNL     1       3.138   4.959  17.971  0.00  0.00    +0.000 A 
ATOM      8  C   UNL     1       3.957   6.037  17.599  0.00  0.00    +0.000 A 
ATOM      9  C   UNL     1       4.997   5.864  16.680  0.00  0.00    +0.000 A 
ATOM     10  C   UNL     1       5.245   4.608  16.110  0.00  0.00    +0.000 A 
ATOM     11  C   UNL     1       4.433   3.530  16.482  0.00  0.00    +0.000 A 
ATOM     12  C   UNL     1       3.399   3.702  17.405  0.00  0.00    +0.000 A 
BRANCH  10  13
ATOM     13  C   UNL     1       6.365   4.399  15.121  0.00  0.00    +0.000 C 
ATOM     14  F   UNL     1       6.248   3.249  14.398  0.00  0.00    +0.000 F 
ATOM     15  F   UNL     1       6.447   5.406  14.207  0.00  0.00    +0.000 F 
ATOM     16  F   UNL     1       7.586   4.339  15.720  0.00  0.00    +0.000 F 
ENDBRANCH  10  13
ENDBRANCH   5   7
BRANCH   1  19
ATOM     17  C   UNL     1       1.364   7.830  20.672  0.00  0.00    +0.000 C 
ATOM     18  O   UNL     1       1.983   8.353  19.752  0.00  0.00    +0.000 OA
ATOM     19  N   UNL     1       1.496   6.498  20.990  0.00  0.00    +0.000 N 
ATOM     20  H   UNL     1       1.163   6.187  21.891  0.00  0.00    +0.000 HD
BRANCH  17  21
ATOM     21  C   UNL     1       0.310   8.595  21.470  0.00  0.00    +0.000 C 
BRANCH  21  22
ATOM     22  C   UNL     1       0.629  10.076  21.682  0.00  0.00    +0.000 C 
BRANCH  22  26
ATOM     23  C   UNL     1      -2.918  12.558  22.220  0.00  0.00    +0.000 A 
ATOM     24  C   UNL     1      -2.248  12.463  20.991  0.00  0.00    +0.000 A 
ATOM     25  C   UNL     1      -1.102  11.678  20.828  0.00  0.00    +0.000 A 
ATOM     26  C   UNL     1      -0.598  10.925  21.887  0.00  0.00    +0.000 A 
ATOM     27  C   UNL     1      -1.260  10.971  23.112  0.00  0.00    +0.000 A 
ATOM     28  C   UNL     1      -2.398  11.775  23.268  0.00  0.00    +0.000 A 
BRANCH  23  30
ATOM     29  C   UNL     1      -4.750  13.366  23.670  0.00  0.00    +0.000 C 
ATOM     30  N   UNL     1      -4.046  13.363  22.391  0.00  0.00    +0.000 N 
ATOM     31  C   UNL     1      -4.828  13.709  21.208  0.00  0.00    +0.000 C 
ENDBRANCH  23  30
ENDBRANCH  22  26
ENDBRANCH  21  22
ENDBRANCH  17  21
ENDBRANCH   1  19
TORSDOF 7
ENDMDL
MODEL 6
REMARK VINA RESULT:      -8.1      2.093      2.877
REMARK  Name = 
REMARK  9 active torsions:
REMARK  status: ('A' for Active; 'I' for Inactive)
REMARK    1  A    between atoms: C_1  and  N_2
REMARK    2  A    between atoms: N_2  and  C_3
REMARK    3  A    between atoms: N_2  and  C_4
REMARK    4  A    between atoms: C_7  and  C_8
REMARK    5  A    between atoms: C_8  and  C_9
REMARK    6  A    between atoms: C_9  and  C_10
REMARK    7  A    between atoms: N_12  and  C_13
REMARK    8  A    between atoms: C_17  and  C_18
REMARK    9  A    between atoms: C_21  and  C_22
REMARK                            x       y       z     vdW  Elec       q    Type
REMARK                         _______ _______ _______ _____ _____    ______ ____
ROOT
ATOM      1  C   UNL     1       2.474   5.593  20.358  0.00  0.00    +0.000 C 
ATOM      2  C   UNL     1       2.631   4.247  21.071  0.00  0.00    +0.000 C 
ATOM      3  N   UNL     1       1.533   3.396  20.572  0.00  0.00    +0.000 NA
ATOM      4  C   UNL     1       1.186   3.888  19.227  0.00  0.00    +0.000 C 
ATOM      5  C   UNL     1       1.995   5.172  18.955  0.00  0.00    +0.000 C 
ATOM      6  H   UNL     1       0.726   3.500  21.188  0.00  0.00    +0.000 HD
ENDROOT
BRANCH   5   7
ATOM      7  C   UNL     1       3.126   5.012  17.950  0.00  0.00    +0.000 A 
ATOM      8  C   UNL     1       3.462   3.727  17.498  0.00  0.00    +0.000 A 
ATOM      9  C   UNL     1       4.509   3.536  16.591  0.00  0.00    +0.000 A 
ATOM     10  C   UNL     1       5.245   4.627  16.110  0.00  0.00    +0.000 A 
ATOM     11  C   UNL     1       4.910   5.911  16.555  0.00  0.00    +0.000 A 
ATOM     12  C   UNL     1       3.860   6.101  17.457  0.00  0.00    +0.000 A 
BRANCH  10  13
ATOM     13  C   UNL     1       6.375   4.444  15.127  0.00  0.00    +0.000 C 
ATOM     14  F   UNL     1       6.232   3.349  14.328  0.00  0.00    +0.000 F 
ATOM     15  F   UNL     1       6.509   5.505  14.284  0.00  0.00    +0.000 F 
ATOM     16  F   UNL     1       7.582   4.301  15.741  0.00  0.00    +0.000 F 
ENDBRANCH  10  13
ENDBRANCH   5   7
BRANCH   1  19
ATOM     17  C   UNL     1       1.278   7.760  20.765  0.00  0.00    +0.000 C 
ATOM     18  O   UNL     1       1.898   8.351  19.889  0.00  0.00    +0.000 OA
ATOM     19  N   UNL     1       1.446   6.417  21.013  0.00  0.00    +0.000 N 
ATOM     20  H   UNL     1       1.105   6.047  21.889  0.00  0.00    +0.000 HD
BRANCH  17  21
ATOM     21  C   UNL     1       0.186   8.448  21.582  0.00  0.00    +0.000 C 
BRANCH  21  22
ATOM     22  C   UNL     1       0.553   9.847  22.079  0.00  0.00    +0.000 C 
BRANCH  22  26
ATOM     23  C   UNL     1      -2.780  12.656  21.938  0.00  0.00    +0.000 A 
ATOM     24  C   UNL     1      -2.425  11.972  23.110  0.00  0.00    +0.000 A 
ATOM     25  C   UNL     1      -1.366  11.061  23.146  0.00  0.00    +0.000 A 
ATOM     26  C   UNL     1      -0.592  10.821  22.011  0.00  0.00    +0.000 A 
ATOM     27  C   UNL     1      -0.898  11.510  20.839  0.00  0.00    +0.000 A 
ATOM     28  C   UNL     1      -1.973  12.410  20.811  0.00  0.00    +0.000 A 
BRANCH  23  30
ATOM     29  C   UNL     1      -4.527  13.937  23.130  0.00  0.00    +0.000 C 
ATOM     30  N   UNL     1      -3.856  13.546  21.893  0.00  0.00    +0.000 N 
ATOM     31  C   UNL     1      -4.646  13.608  20.668  0.00  0.00    +0.000 C 
ENDBRANCH  23  30
ENDBRANCH  22  26
ENDBRANCH  21  22
ENDBRANCH  17  21
ENDBRANCH   1  19
TORSDOF 7
ENDMDL
MODEL 7
REMARK VINA RESULT:      -8.1      6.892      8.947
REMARK  Name = 
REMARK  9 active torsions:
REMARK  status: ('A' for Active; 'I' for Inactive)
REMARK    1  A    between atoms: C_1  and  N_2
REMARK    2  A    between atoms: N_2  and  C_3
REMARK    3  A    between atoms: N_2  and  C_4
REMARK    4  A    between atoms: C_7  and  C_8
REMARK    5  A    between atoms: C_8  and  C_9
REMARK    6  A    between atoms: C_9  and  C_10
REMARK    7  A    between atoms: N_12  and  C_13
REMARK    8  A    between atoms: C_17  and  C_18
REMARK    9  A    between atoms: C_21  and  C_22
REMARK                            x       y       z     vdW  Elec       q    Type
REMARK                         _______ _______ _______ _____ _____    ______ ____
ROOT
ATOM      1  C   UNL     1       6.681   6.634  17.820  0.00  0.00    +0.000 C 
ATOM      2  C   UNL     1       6.755   6.131  16.375  0.00  0.00    +0.000 C 
ATOM      3  N   UNL     1       7.628   4.941  16.406  0.00  0.00    +0.000 NA
ATOM      4  C   UNL     1       7.527   4.369  17.760  0.00  0.00    +0.000 C 
ATOM      5  C   UNL     1       6.680   5.322  18.628  0.00  0.00    +0.000 C 
ATOM      6  H   UNL     1       8.591   5.232  16.235  0.00  0.00    +0.000 HD
ENDROOT
BRANCH   5   7
ATOM      7  C   UNL     1       5.285   4.813  18.959  0.00  0.00    +0.000 A 
ATOM      8  C   UNL     1       4.203   5.705  18.908  0.00  0.00    +0.000 A 
ATOM      9  C   UNL     1       2.909   5.282  19.226  0.00  0.00    +0.000 A 
ATOM     10  C   UNL     1       2.663   3.954  19.601  0.00  0.00    +0.000 A 
ATOM     11  C   UNL     1       3.740   3.061  19.649  0.00  0.00    +0.000 A 
ATOM     12  C   UNL     1       5.031   3.483  19.325  0.00  0.00    +0.000 A 
BRANCH  10  13
ATOM     13  C   UNL     1       1.275   3.476  19.943  0.00  0.00    +0.000 C 
ATOM     14  F   UNL     1       1.254   2.468  20.860  0.00  0.00    +0.000 F 
ATOM     15  F   UNL     1       0.495   4.466  20.461  0.00  0.00    +0.000 F 
ATOM     16  F   UNL     1       0.603   3.003  18.856  0.00  0.00    +0.000 F 
ENDBRANCH  10  13
ENDBRANCH   5   7
BRANCH   1  19
ATOM     17  C   UNL     1       7.976   8.780  17.904  0.00  0.00    +0.000 C 
ATOM     18  O   UNL     1       7.039   9.446  17.480  0.00  0.00    +0.000 OA
ATOM     19  N   UNL     1       7.870   7.432  18.158  0.00  0.00    +0.000 N 
ATOM     20  H   UNL     1       8.721   6.897  18.262  0.00  0.00    +0.000 HD
BRANCH  17  21
ATOM     21  C   UNL     1       9.310   9.418  18.287  0.00  0.00    +0.000 C 
BRANCH  21  22
ATOM     22  C   UNL     1       9.225  10.416  19.444  0.00  0.00    +0.000 C 
BRANCH  22  26
ATOM     23  C   UNL     1       9.987  14.550  18.281  0.00  0.00    +0.000 A 
ATOM     24  C   UNL     1       9.390  14.212  19.505  0.00  0.00    +0.000 A 
ATOM     25  C   UNL     1       9.134  12.887  19.866  0.00  0.00    +0.000 A 
ATOM     26  C   UNL     1       9.499  11.835  19.026  0.00  0.00    +0.000 A 
ATOM     27  C   UNL     1      10.124  12.135  17.818  0.00  0.00    +0.000 A 
ATOM     28  C   UNL     1      10.361  13.470  17.459  0.00  0.00    +0.000 A 
BRANCH  23  30
ATOM     29  C   UNL     1       9.233  16.904  18.229  0.00  0.00    +0.000 C 
ATOM     30  N   UNL     1      10.219  15.875  17.907  0.00  0.00    +0.000 N 
ATOM     31  C   UNL     1      11.077  16.124  16.753  0.00  0.00    +0.000 C 
ENDBRANCH  23  30
ENDBRANCH  22  26
ENDBRANCH  21  22
ENDBRANCH  17  21
ENDBRANCH   1  19
TORSDOF 7
ENDMDL
MODEL 8
REMARK VINA RESULT:      -8.1      7.086      9.428
REMARK  Name = 
REMARK  9 active torsions:
REMARK  status: ('A' for Active; 'I' for Inactive)
REMARK    1  A    between atoms: C_1  and  N_2
REMARK    2  A    between atoms: N_2  and  C_3
REMARK    3  A    between atoms: N_2  and  C_4
REMARK    4  A    between atoms: C_7  and  C_8
REMARK    5  A    between atoms: C_8  and  C_9
REMARK    6  A    between atoms: C_9  and  C_10
REMARK    7  A    between atoms: N_12  and  C_13
REMARK    8  A    between atoms: C_17  and  C_18
REMARK    9  A    between atoms: C_21  and  C_22
REMARK                            x       y       z     vdW  Elec       q    Type
REMARK                         _______ _______ _______ _____ _____    ______ ____
ROOT
ATOM      1  C   UNL     1       6.656   6.613  17.709  0.00  0.00    +0.000 C 
ATOM      2  C   UNL     1       6.719   6.102  16.267  0.00  0.00    +0.000 C 
ATOM      3  N   UNL     1       7.588   4.910  16.299  0.00  0.00    +0.000 NA
ATOM      4  C   UNL     1       7.493   4.345  17.657  0.00  0.00    +0.000 C 
ATOM      5  C   UNL     1       6.654   5.305  18.524  0.00  0.00    +0.000 C 
ATOM      6  H   UNL     1       8.551   5.195  16.121  0.00  0.00    +0.000 HD
ENDROOT
BRANCH   5   7
ATOM      7  C   UNL     1       5.259   4.804  18.866  0.00  0.00    +0.000 A 
ATOM      8  C   UNL     1       4.888   3.505  18.486  0.00  0.00    +0.000 A 
ATOM      9  C   UNL     1       3.608   3.015  18.763  0.00  0.00    +0.000 A 
ATOM     10  C   UNL     1       2.666   3.811  19.428  0.00  0.00    +0.000 A 
ATOM     11  C   UNL     1       3.034   5.106  19.811  0.00  0.00    +0.000 A 
ATOM     12  C   UNL     1       4.315   5.593  19.541  0.00  0.00    +0.000 A 
BRANCH  10  13
ATOM     13  C   UNL     1       1.282   3.301  19.740  0.00  0.00    +0.000 C 
ATOM     14  F   UNL     1       0.429   4.267  20.184  0.00  0.00    +0.000 F 
ATOM     15  F   UNL     1       0.676   2.740  18.656  0.00  0.00    +0.000 F 
ATOM     16  F   UNL     1       1.286   2.338  20.704  0.00  0.00    +0.000 F 
ENDBRANCH  10  13
ENDBRANCH   5   7
BRANCH   1  19
ATOM     17  C   UNL     1       7.927   8.770  17.857  0.00  0.00    +0.000 C 
ATOM     18  O   UNL     1       6.963   9.446  17.519  0.00  0.00    +0.000 OA
ATOM     19  N   UNL     1       7.850   7.408  18.037  0.00  0.00    +0.000 N 
ATOM     20  H   UNL     1       8.712   6.881  18.069  0.00  0.00    +0.000 HD
BRANCH  17  21
ATOM     21  C   UNL     1       9.271   9.405  18.214  0.00  0.00    +0.000 C 
BRANCH  21  22
ATOM     22  C   UNL     1       9.236  10.306  19.449  0.00  0.00    +0.000 C 
BRANCH  22  26
ATOM     23  C   UNL     1      11.220  14.134  18.788  0.00  0.00    +0.000 A 
ATOM     24  C   UNL     1      10.328  13.581  17.857  0.00  0.00    +0.000 A 
ATOM     25  C   UNL     1       9.707  12.346  18.067  0.00  0.00    +0.000 A 
ATOM     26  C   UNL     1       9.928  11.627  19.240  0.00  0.00    +0.000 A 
ATOM     27  C   UNL     1      10.782  12.165  20.200  0.00  0.00    +0.000 A 
ATOM     28  C   UNL     1      11.412  13.397  19.972  0.00  0.00    +0.000 A 
BRANCH  23  30
ATOM     29  C   UNL     1      11.788  16.408  19.576  0.00  0.00    +0.000 C 
ATOM     30  N   UNL     1      11.862  15.355  18.568  0.00  0.00    +0.000 N 
ATOM     31  C   UNL     1      12.075  15.779  17.188  0.00  0.00    +0.000 C 
ENDBRANCH  23  30
ENDBRANCH  22  26
ENDBRANCH  21  22
ENDBRANCH  17  21
ENDBRANCH   1  19
TORSDOF 7
ENDMDL
MODEL 9
REMARK VINA RESULT:      -8.1      7.004      9.205
REMARK  Name = 
REMARK  9 active torsions:
REMARK  status: ('A' for Active; 'I' for Inactive)
REMARK    1  A    between atoms: C_1  and  N_2
REMARK    2  A    between atoms: N_2  and  C_3
REMARK    3  A    between atoms: N_2  and  C_4
REMARK    4  A    between atoms: C_7  and  C_8
REMARK    5  A    between atoms: C_8  and  C_9
REMARK    6  A    between atoms: C_9  and  C_10
REMARK    7  A    between atoms: N_12  and  C_13
REMARK    8  A    between atoms: C_17  and  C_18
REMARK    9  A    between atoms: C_21  and  C_22
REMARK                            x       y       z     vdW  Elec       q    Type
REMARK                         _______ _______ _______ _____ _____    ______ ____
ROOT
ATOM      1  C   UNL     1       6.672   6.637  17.918  0.00  0.00    +0.000 C 
ATOM      2  C   UNL     1       6.667   6.155  16.464  0.00  0.00    +0.000 C 
ATOM      3  N   UNL     1       7.540   4.965  16.431  0.00  0.00    +0.000 NA
ATOM      4  C   UNL     1       7.512   4.373  17.780  0.00  0.00    +0.000 C 
ATOM      5  C   UNL     1       6.714   5.313  18.706  0.00  0.00    +0.000 C 
ATOM      6  H   UNL     1       8.493   5.258  16.212  0.00  0.00    +0.000 HD
ENDROOT
BRANCH   5   7
ATOM      7  C   UNL     1       5.338   4.800  19.105  0.00  0.00    +0.000 A 
ATOM      8  C   UNL     1       5.076   3.424  19.032  0.00  0.00    +0.000 A 
ATOM      9  C   UNL     1       3.817   2.915  19.370  0.00  0.00    +0.000 A 
ATOM     10  C   UNL     1       2.790   3.770  19.790  0.00  0.00    +0.000 A 
ATOM     11  C   UNL     1       3.050   5.143  19.867  0.00  0.00    +0.000 A 
ATOM     12  C   UNL     1       4.309   5.650  19.536  0.00  0.00    +0.000 A 
BRANCH  10  13
ATOM     13  C   UNL     1       1.428   3.241  20.163  0.00  0.00    +0.000 C 
ATOM     14  F   UNL     1       1.036   2.167  19.420  0.00  0.00    +0.000 F 
ATOM     15  F   UNL     1       1.363   2.838  21.462  0.00  0.00    +0.000 F 
ATOM     16  F   UNL     1       0.447   4.174  20.013  0.00  0.00    +0.000 F 
ENDBRANCH  10  13
ENDBRANCH   5   7
BRANCH   1  19
ATOM     17  C   UNL     1       7.992   8.769  17.910  0.00  0.00    +0.000 C 
ATOM     18  O   UNL     1       7.051   9.435  17.495  0.00  0.00    +0.000 OA
ATOM     19  N   UNL     1       7.879   7.430  18.203  0.00  0.00    +0.000 N 
ATOM     20  H   UNL     1       8.726   6.888  18.298  0.00  0.00    +0.000 HD
BRANCH  17  21
ATOM     21  C   UNL     1       9.343   9.402  18.241  0.00  0.00    +0.000 C 
BRANCH  21  22
ATOM     22  C   UNL     1       9.283  10.504  19.301  0.00  0.00    +0.000 C 
BRANCH  22  26
ATOM     23  C   UNL     1      10.502  14.393  17.748  0.00  0.00    +0.000 A 
ATOM     24  C   UNL     1      10.957  13.187  17.193  0.00  0.00    +0.000 A 
ATOM     25  C   UNL     1      10.575  11.944  17.704  0.00  0.00    +0.000 A 
ATOM     26  C   UNL     1       9.690  11.855  18.777  0.00  0.00    +0.000 A 
ATOM     27  C   UNL     1       9.195  13.034  19.330  0.00  0.00    +0.000 A 
ATOM     28  C   UNL     1       9.597  14.276  18.820  0.00  0.00    +0.000 A 
BRANCH  23  30
ATOM     29  C   UNL     1      12.326  15.962  17.178  0.00  0.00    +0.000 C 
ATOM     30  N   UNL     1      10.905  15.636  17.255  0.00  0.00    +0.000 N 
ATOM     31  C   UNL     1       9.978  16.757  17.380  0.00  0.00    +0.000 C 
ENDBRANCH  23  30
ENDBRANCH  22  26
ENDBRANCH  21  22
ENDBRANCH  17  21
ENDBRANCH   1  19
TORSDOF 7
ENDMDL
