MODEL 1
REMARK VINA RESULT:      -8.2      0.000      0.000
REMARK  Name = 
REMARK  8 active torsions:
REMARK  status: ('A' for Active; 'I' for Inactive)
REMARK    1  A    between atoms: C_2  and  C_3
REMARK    2  A    between atoms: C_3  and  S_4
REMARK    3  A    between atoms: S_4  and  C_5
REMARK    4  A    between atoms: N_9  and  C_10
REMARK    5  A    between atoms: C_10  and  C_11
REMARK    6  A    between atoms: C_11  and  C_12
REMARK    7  A    between atoms: C_12  and  N_13
REMARK    8  A    between atoms: N_25  and  C_26
REMARK                            x       y       z     vdW  Elec       q    Type
REMARK                         _______ _______ _______ _____ _____    ______ ____
ROOT
ATOM      1  C   UNL     1       5.341   4.028  18.296  0.00  0.00    +0.000 A 
ATOM      2  N   UNL     1       5.867   4.487  19.374  0.00  0.00    +0.000 NA
ATOM      3  C   UNL     1       6.855   5.425  19.274  0.00  0.00    +0.000 A 
ATOM      4  O   UNL     1       7.466   5.748  20.289  0.00  0.00    +0.000 OA
ATOM      5  N   UNL     1       7.121   6.005  18.019  0.00  0.00    +0.000 N 
ATOM      6  C   UNL     1       6.647   5.391  16.848  0.00  0.00    +0.000 A 
ATOM      7  C   UNL     1       5.728   4.404  16.920  0.00  0.00    +0.000 A 
ATOM      8  C   UNL     1       5.121   3.731  15.713  0.00  0.00    +0.000 C 
ATOM      9  C   UNL     1       5.346   4.520  14.428  0.00  0.00    +0.000 C 
ATOM     10  C   UNL     1       6.808   4.912  14.318  0.00  0.00    +0.000 C 
ATOM     11  C   UNL     1       7.214   5.799  15.501  0.00  0.00    +0.000 C 
ENDROOT
BRANCH   1  12
ATOM     12  S   UNL     1       4.083   2.815  18.475  0.00  0.00    +0.000 S 
BRANCH  12  13
ATOM     13  C   UNL     1       3.103   3.522  19.832  0.00  0.00    +0.000 C 
BRANCH  13  15
ATOM     14  O   UNL     1       1.378   4.635  18.598  0.00  0.00    +0.000 OA
ATOM     15  C   UNL     1       2.326   4.748  19.370  0.00  0.00    +0.000 C 
ATOM     16  N   UNL     1       2.808   5.944  19.874  0.00  0.00    +0.000 N 
ATOM     17  H   UNL     1       3.740   5.921  20.294  0.00  0.00    +0.000 HD
BRANCH  16  18
ATOM     18  C   UNL     1       2.275   7.229  19.630  0.00  0.00    +0.000 A 
ATOM     19  C   UNL     1       1.491   7.926  20.551  0.00  0.00    +0.000 A 
ATOM     20  C   UNL     1       0.967   9.179  20.224  0.00  0.00    +0.000 A 
ATOM     21  C   UNL     1       1.238   9.744  18.984  0.00  0.00    +0.000 A 
ATOM     22  F   UNL     1       0.705  10.931  18.665  0.00  0.00    +0.000 F 
ATOM     23  C   UNL     1       2.044   9.091  18.068  0.00  0.00    +0.000 A 
ATOM     24  C   UNL     1       2.563   7.848  18.404  0.00  0.00    +0.000 A 
ATOM     25  F   UNL     1       3.322   7.217  17.498  0.00  0.00    +0.000 F 
ENDBRANCH  16  18
ENDBRANCH  13  15
ENDBRANCH  12  13
ENDBRANCH   1  12
BRANCH   5  26
ATOM     26  C   UNL     1       8.129   7.077  18.026  0.00  0.00    +0.000 C 
BRANCH  26  27
ATOM     27  C   UNL     1       7.708   8.543  17.819  0.00  0.00    +0.000 C 
BRANCH  27  28
ATOM     28  C   UNL     1       8.801   9.600  17.559  0.00  0.00    +0.000 C 
BRANCH  28  29
ATOM     29  N   UNL     1       8.593  10.771  18.440  0.00  0.00    +0.000 NA
ATOM     30  C   UNL     1       8.695  12.092  17.780  0.00  0.00    +0.000 C 
ATOM     31  C   UNL     1      10.130  12.611  17.593  0.00  0.00    +0.000 C 
ATOM     32  O   UNL     1      10.819  12.668  18.846  0.00  0.00    +0.000 OA
ATOM     33  C   UNL     1      10.862  11.369  19.445  0.00  0.00    +0.000 C 
ATOM     34  C   UNL     1       9.451  10.785  19.646  0.00  0.00    +0.000 C 
ENDBRANCH  28  29
ENDBRANCH  27  28
ENDBRANCH  26  27
ENDBRANCH   5  26
TORSDOF 8
ENDMDL
MODEL 2
REMARK VINA RESULT:      -8.0      0.811      1.165
REMARK  Name = 
REMARK  8 active torsions:
REMARK  status: ('A' for Active; 'I' for Inactive)
REMARK    1  A    between atoms: C_2  and  C_3
REMARK    2  A    between atoms: C_3  and  S_4
REMARK    3  A    between atoms: S_4  and  C_5
REMARK    4  A    between atoms: N_9  and  C_10
REMARK    5  A    between atoms: C_10  and  C_11
REMARK    6  A    between atoms: C_11  and  C_12
REMARK    7  A    between atoms: C_12  and  N_13
REMARK    8  A    between atoms: N_25  and  C_26
REMARK                            x       y       z     vdW  Elec       q    Type
REMARK                         _______ _______ _______ _____ _____    ______ ____
ROOT
ATOM      1  C   UNL     1       5.232   3.934  18.072  0.00  0.00    +0.000 A 
ATOM      2  N   UNL     1       5.703   4.381  19.180  0.00  0.00    +0.000 NA
ATOM      3  C   UNL     1       6.704   5.309  19.140  0.00  0.00    +0.000 A 
ATOM      4  O   UNL     1       7.262   5.620  20.188  0.00  0.00    +0.000 OA
ATOM      5  N   UNL     1       7.045   5.891  17.905  0.00  0.00    +0.000 N 
ATOM      6  C   UNL     1       6.630   5.288  16.705  0.00  0.00    +0.000 A 
ATOM      7  C   UNL     1       5.698   4.311  16.721  0.00  0.00    +0.000 A 
ATOM      8  C   UNL     1       5.151   3.650  15.480  0.00  0.00    +0.000 C 
ATOM      9  C   UNL     1       5.456   4.443  14.213  0.00  0.00    +0.000 C 
ATOM     10  C   UNL     1       6.926   4.818  14.186  0.00  0.00    +0.000 C 
ATOM     11  C   UNL     1       7.276   5.696  15.394  0.00  0.00    +0.000 C 
ENDROOT
BRANCH   1  12
ATOM     12  S   UNL     1       3.953   2.734  18.175  0.00  0.00    +0.000 S 
BRANCH  12  13
ATOM     13  C   UNL     1       2.871   3.480  19.430  0.00  0.00    +0.000 C 
BRANCH  13  15
ATOM     14  O   UNL     1       1.339   4.700  18.050  0.00  0.00    +0.000 OA
ATOM     15  C   UNL     1       2.217   4.752  18.908  0.00  0.00    +0.000 C 
ATOM     16  N   UNL     1       2.724   5.916  19.463  0.00  0.00    +0.000 N 
ATOM     17  H   UNL     1       3.610   5.834  19.966  0.00  0.00    +0.000 HD
BRANCH  16  18
ATOM     18  C   UNL     1       2.297   7.232  19.180  0.00  0.00    +0.000 A 
ATOM     19  C   UNL     1       2.516   7.867  17.956  0.00  0.00    +0.000 A 
ATOM     20  C   UNL     1       2.097   9.185  17.762  0.00  0.00    +0.000 A 
ATOM     21  C   UNL     1       1.446   9.866  18.784  0.00  0.00    +0.000 A 
ATOM     22  F   UNL     1       1.077  11.141  18.602  0.00  0.00    +0.000 F 
ATOM     23  C   UNL     1       1.183   9.246  19.993  0.00  0.00    +0.000 A 
ATOM     24  C   UNL     1       1.600   7.934  20.174  0.00  0.00    +0.000 A 
ATOM     25  F   UNL     1       1.360   7.356  21.359  0.00  0.00    +0.000 F 
ENDBRANCH  16  18
ENDBRANCH  13  15
ENDBRANCH  12  13
ENDBRANCH   1  12
BRANCH   5  26
ATOM     26  C   UNL     1       8.064   6.952  17.972  0.00  0.00    +0.000 C 
BRANCH  26  27
ATOM     27  C   UNL     1       7.645   8.434  17.979  0.00  0.00    +0.000 C 
BRANCH  27  28
ATOM     28  C   UNL     1       8.710   9.508  17.672  0.00  0.00    +0.000 C 
BRANCH  28  29
ATOM     29  N   UNL     1       8.465  10.712  18.497  0.00  0.00    +0.000 NA
ATOM     30  C   UNL     1       8.603  12.006  17.791  0.00  0.00    +0.000 C 
ATOM     31  C   UNL     1      10.046  12.515  17.651  0.00  0.00    +0.000 C 
ATOM     32  O   UNL     1      10.677  12.619  18.932  0.00  0.00    +0.000 OA
ATOM     33  C   UNL     1      10.687  11.345  19.582  0.00  0.00    +0.000 C 
ATOM     34  C   UNL     1       9.266  10.771  19.740  0.00  0.00    +0.000 C 
ENDBRANCH  28  29
ENDBRANCH  27  28
ENDBRANCH  26  27
ENDBRANCH   5  26
TORSDOF 8
ENDMDL
MODEL 3
REMARK VINA RESULT:      -7.9      1.081      1.519
REMARK  Name = 
REMARK  8 active torsions:
REMARK  status: ('A' for Active; 'I' for Inactive)
REMARK    1  A    between atoms: C_2  and  C_3
REMARK    2  A    between atoms: C_3  and  S_4
REMARK    3  A    between atoms: S_4  and  C_5
REMARK    4  A    between atoms: N_9  and  C_10
REMARK    5  A    between atoms: C_10  and  C_11
REMARK    6  A    between atoms: C_11  and  C_12
REMARK    7  A    between atoms: C_12  and  N_13
REMARK    8  A    between atoms: N_25  and  C_26
REMARK                            x       y       z     vdW  Elec       q    Type
REMARK                         _______ _______ _______ _____ _____    ______ ____
ROOT
ATOM      1  C   UNL     1       5.382   4.218  18.654  0.00  0.00    +0.000 A 
ATOM      2  N   UNL     1       6.008   4.660  19.685  0.00  0.00    +0.000 NA
ATOM      3  C   UNL     1       7.038   5.537  19.501  0.00  0.00    +0.000 A 
ATOM      4  O   UNL     1       7.736   5.837  20.465  0.00  0.00    +0.000 OA
ATOM      5  N   UNL     1       7.250   6.082  18.220  0.00  0.00    +0.000 N 
ATOM      6  C   UNL     1       6.661   5.481  17.095  0.00  0.00    +0.000 A 
ATOM      7  C   UNL     1       5.694   4.551  17.247  0.00  0.00    +0.000 A 
ATOM      8  C   UNL     1       4.966   3.898  16.098  0.00  0.00    +0.000 C 
ATOM      9  C   UNL     1       5.147   4.655  14.786  0.00  0.00    +0.000 C 
ATOM     10  C   UNL     1       6.618   4.958  14.569  0.00  0.00    +0.000 C 
ATOM     11  C   UNL     1       7.156   5.836  15.705  0.00  0.00    +0.000 C 
ENDROOT
BRANCH   1  12
ATOM     12  S   UNL     1       4.072   3.084  18.940  0.00  0.00    +0.000 S 
BRANCH  12  13
ATOM     13  C   UNL     1       2.978   4.071  20.003  0.00  0.00    +0.000 C 
BRANCH  13  15
ATOM     14  O   UNL     1       2.020   5.172  18.104  0.00  0.00    +0.000 OA
ATOM     15  C   UNL     1       2.428   5.280  19.258  0.00  0.00    +0.000 C 
ATOM     16  N   UNL     1       2.467   6.458  19.985  0.00  0.00    +0.000 N 
ATOM     17  H   UNL     1       3.055   6.459  20.822  0.00  0.00    +0.000 HD
BRANCH  16  18
ATOM     18  C   UNL     1       2.010   7.722  19.554  0.00  0.00    +0.000 A 
ATOM     19  C   UNL     1       2.189   8.204  18.256  0.00  0.00    +0.000 A 
ATOM     20  C   UNL     1       1.742   9.482  17.911  0.00  0.00    +0.000 A 
ATOM     21  C   UNL     1       1.103  10.275  18.858  0.00  0.00    +0.000 A 
ATOM     22  F   UNL     1       0.707  11.511  18.530  0.00  0.00    +0.000 F 
ATOM     23  C   UNL     1       0.879   9.805  20.140  0.00  0.00    +0.000 A 
ATOM     24  C   UNL     1       1.324   8.532  20.471  0.00  0.00    +0.000 A 
ATOM     25  F   UNL     1       1.123   8.100  21.724  0.00  0.00    +0.000 F 
ENDBRANCH  16  18
ENDBRANCH  13  15
ENDBRANCH  12  13
ENDBRANCH   1  12
BRANCH   5  26
ATOM     26  C   UNL     1       8.316   7.093  18.138  0.00  0.00    +0.000 C 
BRANCH  26  27
ATOM     27  C   UNL     1       7.967   8.579  17.935  0.00  0.00    +0.000 C 
BRANCH  27  28
ATOM     28  C   UNL     1       8.746   9.641  18.740  0.00  0.00    +0.000 C 
BRANCH  28  29
ATOM     29  N   UNL     1       9.275  10.679  17.827  0.00  0.00    +0.000 NA
ATOM     30  C   UNL     1      10.716  10.985  17.978  0.00  0.00    +0.000 C 
ATOM     31  C   UNL     1      11.053  11.957  19.120  0.00  0.00    +0.000 C 
ATOM     32  O   UNL     1      10.334  13.185  18.974  0.00  0.00    +0.000 OA
ATOM     33  C   UNL     1       8.925  12.934  18.969  0.00  0.00    +0.000 C 
ATOM     34  C   UNL     1       8.522  11.953  17.852  0.00  0.00    +0.000 C 
ENDBRANCH  28  29
ENDBRANCH  27  28
ENDBRANCH  26  27
ENDBRANCH   5  26
TORSDOF 8
ENDMDL
MODEL 4
REMARK VINA RESULT:      -7.7      5.931     10.498
REMARK  Name = 
REMARK  8 active torsions:
REMARK  status: ('A' for Active; 'I' for Inactive)
REMARK    1  A    between atoms: C_2  and  C_3
REMARK    2  A    between atoms: C_3  and  S_4
REMARK    3  A    between atoms: S_4  and  C_5
REMARK    4  A    between atoms: N_9  and  C_10
REMARK    5  A    between atoms: C_10  and  C_11
REMARK    6  A    between atoms: C_11  and  C_12
REMARK    7  A    between atoms: C_12  and  N_13
REMARK    8  A    between atoms: N_25  and  C_26
REMARK                            x       y       z     vdW  Elec       q    Type
REMARK                         _______ _______ _______ _____ _____    ______ ____
ROOT
ATOM      1  C   UNL     1       0.410  10.405  18.920  0.00  0.00    +0.000 A 
ATOM      2  N   UNL     1       0.971  11.045  19.882  0.00  0.00    +0.000 NA
ATOM      3  C   UNL     1       0.234  11.960  20.578  0.00  0.00    +0.000 A 
ATOM      4  O   UNL     1       0.805  12.683  21.389  0.00  0.00    +0.000 OA
ATOM      5  N   UNL     1      -1.155  12.026  20.359  0.00  0.00    +0.000 N 
ATOM      6  C   UNL     1      -1.715  11.433  19.214  0.00  0.00    +0.000 A 
ATOM      7  C   UNL     1      -0.983  10.585  18.461  0.00  0.00    +0.000 A 
ATOM      8  C   UNL     1      -1.519   9.858  17.251  0.00  0.00    +0.000 C 
ATOM      9  C   UNL     1      -3.044   9.869  17.191  0.00  0.00    +0.000 C 
ATOM     10  C   UNL     1      -3.553  11.281  17.412  0.00  0.00    +0.000 C 
ATOM     11  C   UNL     1      -3.127  11.794  18.793  0.00  0.00    +0.000 C 
ENDROOT
BRANCH   1  12
ATOM     12  S   UNL     1       1.402   9.246  18.047  0.00  0.00    +0.000 S 
BRANCH  12  13
ATOM     13  C   UNL     1       1.949   8.162  19.399  0.00  0.00    +0.000 C 
BRANCH  13  15
ATOM     14  O   UNL     1       3.497   6.997  17.991  0.00  0.00    +0.000 OA
ATOM     15  C   UNL     1       2.634   6.913  18.860  0.00  0.00    +0.000 C 
ATOM     16  N   UNL     1       2.172   5.731  19.416  0.00  0.00    +0.000 N 
ATOM     17  H   UNL     1       1.291   5.783  19.932  0.00  0.00    +0.000 HD
BRANCH  16  18
ATOM     18  C   UNL     1       2.636   4.431  19.120  0.00  0.00    +0.000 A 
ATOM     19  C   UNL     1       3.650   3.793  19.837  0.00  0.00    +0.000 A 
ATOM     20  C   UNL     1       4.082   2.518  19.462  0.00  0.00    +0.000 A 
ATOM     21  C   UNL     1       3.493   1.874  18.380  0.00  0.00    +0.000 A 
ATOM     22  F   UNL     1       3.936   0.666  18.006  0.00  0.00    +0.000 F 
ATOM     23  C   UNL     1       2.460   2.469  17.678  0.00  0.00    +0.000 A 
ATOM     24  C   UNL     1       2.035   3.735  18.061  0.00  0.00    +0.000 A 
ATOM     25  F   UNL     1       1.051   4.308  17.355  0.00  0.00    +0.000 F 
ENDBRANCH  16  18
ENDBRANCH  13  15
ENDBRANCH  12  13
ENDBRANCH   1  12
BRANCH   5  26
ATOM     26  C   UNL     1      -1.882  12.969  21.225  0.00  0.00    +0.000 C 
BRANCH  26  27
ATOM     27  C   UNL     1      -2.744  12.450  22.391  0.00  0.00    +0.000 C 
BRANCH  27  28
ATOM     28  C   UNL     1      -4.261  12.730  22.375  0.00  0.00    +0.000 C 
BRANCH  28  29
ATOM     29  N   UNL     1      -4.716  13.120  23.728  0.00  0.00    +0.000 NA
ATOM     30  C   UNL     1      -6.159  13.430  23.850  0.00  0.00    +0.000 C 
ATOM     31  C   UNL     1      -6.554  14.850  23.414  0.00  0.00    +0.000 C 
ATOM     32  O   UNL     1      -5.809  15.832  24.141  0.00  0.00    +0.000 OA
ATOM     33  C   UNL     1      -4.406  15.646  23.927  0.00  0.00    +0.000 C 
ATOM     34  C   UNL     1      -3.948  14.232  24.332  0.00  0.00    +0.000 C 
ENDBRANCH  28  29
ENDBRANCH  27  28
ENDBRANCH  26  27
ENDBRANCH   5  26
TORSDOF 8
ENDMDL
MODEL 5
REMARK VINA RESULT:      -7.5      5.889     10.467
REMARK  Name = 
REMARK  8 active torsions:
REMARK  status: ('A' for Active; 'I' for Inactive)
REMARK    1  A    between atoms: C_2  and  C_3
REMARK    2  A    between atoms: C_3  and  S_4
REMARK    3  A    between atoms: S_4  and  C_5
REMARK    4  A    between atoms: N_9  and  C_10
REMARK    5  A    between atoms: C_10  and  C_11
REMARK    6  A    between atoms: C_11  and  C_12
REMARK    7  A    between atoms: C_12  and  N_13
REMARK    8  A    between atoms: N_25  and  C_26
REMARK                            x       y       z     vdW  Elec       q    Type
REMARK                         _______ _______ _______ _____ _____    ______ ____
ROOT
ATOM      1  C   UNL     1       0.489  10.564  18.924  0.00  0.00    +0.000 A 
ATOM      2  N   UNL     1       1.093  11.213  19.854  0.00  0.00    +0.000 NA
ATOM      3  C   UNL     1       0.382  12.115  20.593  0.00  0.00    +0.000 A 
ATOM      4  O   UNL     1       0.986  12.846  21.371  0.00  0.00    +0.000 OA
ATOM      5  N   UNL     1      -1.019  12.158  20.454  0.00  0.00    +0.000 N 
ATOM      6  C   UNL     1      -1.633  11.557  19.342  0.00  0.00    +0.000 A 
ATOM      7  C   UNL     1      -0.931  10.722  18.546  0.00  0.00    +0.000 A 
ATOM      8  C   UNL     1      -1.524   9.987  17.368  0.00  0.00    +0.000 C 
ATOM      9  C   UNL     1      -3.049   9.973  17.395  0.00  0.00    +0.000 C 
ATOM     10  C   UNL     1      -3.569  11.376  17.647  0.00  0.00    +0.000 C 
ATOM     11  C   UNL     1      -3.072  11.895  19.002  0.00  0.00    +0.000 C 
ENDROOT
BRANCH   1  12
ATOM     12  S   UNL     1       1.448   9.424  17.994  0.00  0.00    +0.000 S 
BRANCH  12  13
ATOM     13  C   UNL     1       1.984   8.272  19.293  0.00  0.00    +0.000 C 
BRANCH  13  15
ATOM     14  O   UNL     1       3.312   7.050  17.718  0.00  0.00    +0.000 OA
ATOM     15  C   UNL     1       2.569   7.000  18.695  0.00  0.00    +0.000 C 
ATOM     16  N   UNL     1       2.160   5.838  19.329  0.00  0.00    +0.000 N 
ATOM     17  H   UNL     1       1.355   5.918  19.955  0.00  0.00    +0.000 HD
BRANCH  16  18
ATOM     18  C   UNL     1       2.556   4.523  19.001  0.00  0.00    +0.000 A 
ATOM     19  C   UNL     1       1.717   3.600  18.373  0.00  0.00    +0.000 A 
ATOM     20  C   UNL     1       2.167   2.303  18.112  0.00  0.00    +0.000 A 
ATOM     21  C   UNL     1       3.458   1.930  18.467  0.00  0.00    +0.000 A 
ATOM     22  F   UNL     1       3.871   0.676  18.244  0.00  0.00    +0.000 F 
ATOM     23  C   UNL     1       4.321   2.838  19.055  0.00  0.00    +0.000 A 
ATOM     24  C   UNL     1       3.866   4.126  19.306  0.00  0.00    +0.000 A 
ATOM     25  F   UNL     1       4.705   4.985  19.900  0.00  0.00    +0.000 F 
ENDBRANCH  16  18
ENDBRANCH  13  15
ENDBRANCH  12  13
ENDBRANCH   1  12
BRANCH   5  26
ATOM     26  C   UNL     1      -1.710  13.087  21.362  0.00  0.00    +0.000 C 
BRANCH  26  27
ATOM     27  C   UNL     1      -2.490  12.553  22.577  0.00  0.00    +0.000 C 
BRANCH  27  28
ATOM     28  C   UNL     1      -4.033  12.571  22.535  0.00  0.00    +0.000 C 
BRANCH  28  29
ATOM     29  N   UNL     1      -4.569  12.976  23.854  0.00  0.00    +0.000 NA
ATOM     30  C   UNL     1      -6.015  13.292  23.883  0.00  0.00    +0.000 C 
ATOM     31  C   UNL     1      -6.377  14.708  23.410  0.00  0.00    +0.000 C 
ATOM     32  O   UNL     1      -5.675  15.696  24.171  0.00  0.00    +0.000 OA
ATOM     33  C   UNL     1      -4.262  15.503  24.046  0.00  0.00    +0.000 C 
ATOM     34  C   UNL     1      -3.836  14.091  24.492  0.00  0.00    +0.000 C 
ENDBRANCH  28  29
ENDBRANCH  27  28
ENDBRANCH  26  27
ENDBRANCH   5  26
TORSDOF 8
ENDMDL
MODEL 6
REMARK VINA RESULT:      -7.4      5.935     10.427
REMARK  Name = 
REMARK  8 active torsions:
REMARK  status: ('A' for Active; 'I' for Inactive)
REMARK    1  A    between atoms: C_2  and  C_3
REMARK    2  A    between atoms: C_3  and  S_4
REMARK    3  A    between atoms: S_4  and  C_5
REMARK    4  A    between atoms: N_9  and  C_10
REMARK    5  A    between atoms: C_10  and  C_11
REMARK    6  A    between atoms: C_11  and  C_12
REMARK    7  A    between atoms: C_12  and  N_13
REMARK    8  A    between atoms: N_25  and  C_26
REMARK                            x       y       z     vdW  Elec       q    Type
REMARK                         _______ _______ _______ _____ _____    ______ ____
ROOT
ATOM      1  C   UNL     1       0.215  10.305  18.866  0.00  0.00    +0.000 A 
ATOM      2  N   UNL     1       0.809  10.854  19.863  0.00  0.00    +0.000 NA
ATOM      3  C   UNL     1       0.112  11.741  20.634  0.00  0.00    +0.000 A 
ATOM      4  O   UNL     1       0.718  12.384  21.487  0.00  0.00    +0.000 OA
ATOM      5  N   UNL     1      -1.276  11.870  20.439  0.00  0.00    +0.000 N 
ATOM      6  C   UNL     1      -1.869  11.381  19.263  0.00  0.00    +0.000 A 
ATOM      7  C   UNL     1      -1.176  10.565  18.440  0.00  0.00    +0.000 A 
ATOM      8  C   UNL     1      -1.751   9.947  17.189  0.00  0.00    +0.000 C 
ATOM      9  C   UNL     1      -3.275  10.014  17.151  0.00  0.00    +0.000 C 
ATOM     10  C   UNL     1      -3.733  11.423  17.480  0.00  0.00    +0.000 C 
ATOM     11  C   UNL     1      -3.272  11.820  18.888  0.00  0.00    +0.000 C 
ENDROOT
BRANCH   1  12
ATOM     12  S   UNL     1       1.155   9.180  17.898  0.00  0.00    +0.000 S 
BRANCH  12  13
ATOM     13  C   UNL     1       2.118   8.330  19.183  0.00  0.00    +0.000 C 
BRANCH  13  15
ATOM     14  O   UNL     1       3.508   7.058  17.703  0.00  0.00    +0.000 OA
ATOM     15  C   UNL     1       2.728   7.039  18.652  0.00  0.00    +0.000 C 
ATOM     16  N   UNL     1       2.298   5.899  19.310  0.00  0.00    +0.000 N 
ATOM     17  H   UNL     1       1.469   5.998  19.902  0.00  0.00    +0.000 HD
BRANCH  16  18
ATOM     18  C   UNL     1       2.708   4.574  19.043  0.00  0.00    +0.000 A 
ATOM     19  C   UNL     1       3.743   3.935  19.728  0.00  0.00    +0.000 A 
ATOM     20  C   UNL     1       4.119   2.635  19.383  0.00  0.00    +0.000 A 
ATOM     21  C   UNL     1       3.451   1.965  18.364  0.00  0.00    +0.000 A 
ATOM     22  F   UNL     1       3.838   0.731  18.016  0.00  0.00    +0.000 F 
ATOM     23  C   UNL     1       2.396   2.562  17.696  0.00  0.00    +0.000 A 
ATOM     24  C   UNL     1       2.029   3.854  18.049  0.00  0.00    +0.000 A 
ATOM     25  F   UNL     1       1.022   4.428  17.377  0.00  0.00    +0.000 F 
ENDBRANCH  16  18
ENDBRANCH  13  15
ENDBRANCH  12  13
ENDBRANCH   1  12
BRANCH   5  26
ATOM     26  C   UNL     1      -1.959  12.772  21.381  0.00  0.00    +0.000 C 
BRANCH  26  27
ATOM     27  C   UNL     1      -2.477  12.242  22.730  0.00  0.00    +0.000 C 
BRANCH  27  28
ATOM     28  C   UNL     1      -3.806  12.796  23.285  0.00  0.00    +0.000 C 
BRANCH  28  29
ATOM     29  N   UNL     1      -4.084  14.126  22.697  0.00  0.00    +0.000 NA
ATOM     30  C   UNL     1      -3.474  15.275  23.404  0.00  0.00    +0.000 C 
ATOM     31  C   UNL     1      -4.254  15.764  24.635  0.00  0.00    +0.000 C 
ATOM     32  O   UNL     1      -5.600  16.101  24.285  0.00  0.00    +0.000 OA
ATOM     33  C   UNL     1      -6.264  14.963  23.727  0.00  0.00    +0.000 C 
ATOM     34  C   UNL     1      -5.521  14.413  22.494  0.00  0.00    +0.000 C 
ENDBRANCH  28  29
ENDBRANCH  27  28
ENDBRANCH  26  27
ENDBRANCH   5  26
TORSDOF 8
ENDMDL
MODEL 7
REMARK VINA RESULT:      -7.4      6.191     10.936
REMARK  Name = 
REMARK  8 active torsions:
REMARK  status: ('A' for Active; 'I' for Inactive)
REMARK    1  A    between atoms: C_2  and  C_3
REMARK    2  A    between atoms: C_3  and  S_4
REMARK    3  A    between atoms: S_4  and  C_5
REMARK    4  A    between atoms: N_9  and  C_10
REMARK    5  A    between atoms: C_10  and  C_11
REMARK    6  A    between atoms: C_11  and  C_12
REMARK    7  A    between atoms: C_12  and  N_13
REMARK    8  A    between atoms: N_25  and  C_26
REMARK                            x       y       z     vdW  Elec       q    Type
REMARK                         _______ _______ _______ _____ _____    ______ ____
ROOT
ATOM      1  C   UNL     1       0.308  10.761  19.303  0.00  0.00    +0.000 A 
ATOM      2  N   UNL     1       0.761  11.408  20.316  0.00  0.00    +0.000 NA
ATOM      3  C   UNL     1      -0.085  12.238  20.995  0.00  0.00    +0.000 A 
ATOM      4  O   UNL     1       0.380  12.974  21.861  0.00  0.00    +0.000 OA
ATOM      5  N   UNL     1      -1.461  12.203  20.697  0.00  0.00    +0.000 N 
ATOM      6  C   UNL     1      -1.905  11.609  19.503  0.00  0.00    +0.000 A 
ATOM      7  C   UNL     1      -1.067  10.848  18.768  0.00  0.00    +0.000 A 
ATOM      8  C   UNL     1      -1.474  10.125  17.507  0.00  0.00    +0.000 C 
ATOM      9  C   UNL     1      -2.988  10.018  17.357  0.00  0.00    +0.000 C 
ATOM     10  C   UNL     1      -3.622  11.377  17.592  0.00  0.00    +0.000 C 
ATOM     11  C   UNL     1      -3.316  11.873  19.010  0.00  0.00    +0.000 C 
ENDROOT
BRANCH   1  12
ATOM     12  S   UNL     1       1.437   9.716  18.455  0.00  0.00    +0.000 S 
BRANCH  12  13
ATOM     13  C   UNL     1       1.795   8.474  19.732  0.00  0.00    +0.000 C 
BRANCH  13  15
ATOM     14  O   UNL     1       2.339   7.039  17.892  0.00  0.00    +0.000 OA
ATOM     15  C   UNL     1       2.236   7.155  19.110  0.00  0.00    +0.000 C 
ATOM     16  N   UNL     1       2.467   6.146  20.031  0.00  0.00    +0.000 N 
ATOM     17  H   UNL     1       2.105   6.298  20.976  0.00  0.00    +0.000 HD
BRANCH  16  18
ATOM     18  C   UNL     1       2.900   4.834  19.742  0.00  0.00    +0.000 A 
ATOM     19  C   UNL     1       4.223   4.508  19.440  0.00  0.00    +0.000 A 
ATOM     20  C   UNL     1       4.570   3.191  19.127  0.00  0.00    +0.000 A 
ATOM     21  C   UNL     1       3.599   2.196  19.130  0.00  0.00    +0.000 A 
ATOM     22  F   UNL     1       3.933   0.942  18.798  0.00  0.00    +0.000 F 
ATOM     23  C   UNL     1       2.288   2.487  19.465  0.00  0.00    +0.000 A 
ATOM     24  C   UNL     1       1.955   3.798  19.777  0.00  0.00    +0.000 A 
ATOM     25  F   UNL     1       0.676   4.068  20.074  0.00  0.00    +0.000 F 
ENDBRANCH  16  18
ENDBRANCH  13  15
ENDBRANCH  12  13
ENDBRANCH   1  12
BRANCH   5  26
ATOM     26  C   UNL     1      -2.308  13.054  21.547  0.00  0.00    +0.000 C 
BRANCH  26  27
ATOM     27  C   UNL     1      -3.171  12.431  22.659  0.00  0.00    +0.000 C 
BRANCH  27  28
ATOM     28  C   UNL     1      -4.127  13.343  23.457  0.00  0.00    +0.000 C 
BRANCH  28  29
ATOM     29  N   UNL     1      -5.324  13.653  22.645  0.00  0.00    +0.000 NA
ATOM     30  C   UNL     1      -5.739  15.074  22.638  0.00  0.00    +0.000 C 
ATOM     31  C   UNL     1      -6.571  15.511  23.855  0.00  0.00    +0.000 C 
ATOM     32  O   UNL     1      -7.736  14.692  23.996  0.00  0.00    +0.000 OA
ATOM     33  C   UNL     1      -7.359  13.319  24.149  0.00  0.00    +0.000 C 
ATOM     34  C   UNL     1      -6.508  12.824  22.965  0.00  0.00    +0.000 C 
ENDBRANCH  28  29
ENDBRANCH  27  28
ENDBRANCH  26  27
ENDBRANCH   5  26
TORSDOF 8
ENDMDL
MODEL 8
REMARK VINA RESULT:      -7.3      0.624      1.052
REMARK  Name = 
REMARK  8 active torsions:
REMARK  status: ('A' for Active; 'I' for Inactive)
REMARK    1  A    between atoms: C_2  and  C_3
REMARK    2  A    between atoms: C_3  and  S_4
REMARK    3  A    between atoms: S_4  and  C_5
REMARK    4  A    between atoms: N_9  and  C_10
REMARK    5  A    between atoms: C_10  and  C_11
REMARK    6  A    between atoms: C_11  and  C_12
REMARK    7  A    between atoms: C_12  and  N_13
REMARK    8  A    between atoms: N_25  and  C_26
REMARK                            x       y       z     vdW  Elec       q    Type
REMARK                         _______ _______ _______ _____ _____    ______ ____
ROOT
ATOM      1  C   UNL     1       5.378   4.113  18.486  0.00  0.00    +0.000 A 
ATOM      2  N   UNL     1       6.014   4.631  19.474  0.00  0.00    +0.000 NA
ATOM      3  C   UNL     1       6.981   5.561  19.216  0.00  0.00    +0.000 A 
ATOM      4  O   UNL     1       7.695   5.940  20.140  0.00  0.00    +0.000 OA
ATOM      5  N   UNL     1       7.109   6.068  17.909  0.00  0.00    +0.000 N 
ATOM      6  C   UNL     1       6.516   5.389  16.831  0.00  0.00    +0.000 A 
ATOM      7  C   UNL     1       5.615   4.409  17.057  0.00  0.00    +0.000 A 
ATOM      8  C   UNL     1       4.885   3.669  15.962  0.00  0.00    +0.000 C 
ATOM      9  C   UNL     1       4.969   4.384  14.617  0.00  0.00    +0.000 C 
ATOM     10  C   UNL     1       6.410   4.766  14.331  0.00  0.00    +0.000 C 
ATOM     11  C   UNL     1       6.935   5.719  15.411  0.00  0.00    +0.000 C 
ENDROOT
BRANCH   1  12
ATOM     12  S   UNL     1       4.152   2.914  18.866  0.00  0.00    +0.000 S 
BRANCH  12  13
ATOM     13  C   UNL     1       3.195   3.782  20.144  0.00  0.00    +0.000 C 
BRANCH  13  15
ATOM     14  O   UNL     1       1.529   4.735  18.712  0.00  0.00    +0.000 OA
ATOM     15  C   UNL     1       2.403   4.939  19.549  0.00  0.00    +0.000 C 
ATOM     16  N   UNL     1       2.786   6.185  20.017  0.00  0.00    +0.000 N 
ATOM     17  H   UNL     1       3.681   6.233  20.510  0.00  0.00    +0.000 HD
BRANCH  16  18
ATOM     18  C   UNL     1       2.217   7.426  19.655  0.00  0.00    +0.000 A 
ATOM     19  C   UNL     1       1.443   8.200  20.520  0.00  0.00    +0.000 A 
ATOM     20  C   UNL     1       0.880   9.401  20.079  0.00  0.00    +0.000 A 
ATOM     21  C   UNL     1       1.103   9.836  18.777  0.00  0.00    +0.000 A 
ATOM     22  F   UNL     1       0.533  10.971  18.350  0.00  0.00    +0.000 F 
ATOM     23  C   UNL     1       1.898   9.105  17.912  0.00  0.00    +0.000 A 
ATOM     24  C   UNL     1       2.455   7.915  18.362  0.00  0.00    +0.000 A 
ATOM     25  F   UNL     1       3.203   7.207  17.505  0.00  0.00    +0.000 F 
ENDBRANCH  16  18
ENDBRANCH  13  15
ENDBRANCH  12  13
ENDBRANCH   1  12
BRANCH   5  26
ATOM     26  C   UNL     1       8.108   7.137  17.747  0.00  0.00    +0.000 C 
BRANCH  26  27
ATOM     27  C   UNL     1       8.082   8.373  18.666  0.00  0.00    +0.000 C 
BRANCH  27  28
ATOM     28  C   UNL     1       8.284   9.768  18.039  0.00  0.00    +0.000 C 
BRANCH  28  29
ATOM     29  N   UNL     1       9.543  10.368  18.535  0.00  0.00    +0.000 NA
ATOM     30  C   UNL     1       9.627  10.550  20.002  0.00  0.00    +0.000 C 
ATOM     31  C   UNL     1       8.930  11.811  20.537  0.00  0.00    +0.000 C 
ATOM     32  O   UNL     1       9.438  12.986  19.897  0.00  0.00    +0.000 OA
ATOM     33  C   UNL     1       9.240  12.902  18.482  0.00  0.00    +0.000 C 
ATOM     34  C   UNL     1       9.905  11.647  17.885  0.00  0.00    +0.000 C 
ENDBRANCH  28  29
ENDBRANCH  27  28
ENDBRANCH  26  27
ENDBRANCH   5  26
TORSDOF 8
ENDMDL
MODEL 9
REMARK VINA RESULT:      -7.3      5.612     10.371
REMARK  Name = 
REMARK  8 active torsions:
REMARK  status: ('A' for Active; 'I' for Inactive)
REMARK    1  A    between atoms: C_2  and  C_3
REMARK    2  A    between atoms: C_3  and  S_4
REMARK    3  A    between atoms: S_4  and  C_5
REMARK    4  A    between atoms: N_9  and  C_10
REMARK    5  A    between atoms: C_10  and  C_11
REMARK    6  A    between atoms: C_11  and  C_12
REMARK    7  A    between atoms: C_12  and  N_13
REMARK    8  A    between atoms: N_25  and  C_26
REMARK                            x       y       z     vdW  Elec       q    Type
REMARK                         _______ _______ _______ _____ _____    ______ ____
ROOT
ATOM      1  C   UNL     1       0.290  10.060  18.608  0.00  0.00    +0.000 A 
ATOM      2  N   UNL     1       1.011  10.510  19.570  0.00  0.00    +0.000 NA
ATOM      3  C   UNL     1       0.459  11.407  20.440  0.00  0.00    +0.000 A 
ATOM      4  O   UNL     1       1.187  11.957  21.261  0.00  0.00    +0.000 OA
ATOM      5  N   UNL     1      -0.926  11.652  20.380  0.00  0.00    +0.000 N 
ATOM      6  C   UNL     1      -1.658  11.270  19.242  0.00  0.00    +0.000 A 
ATOM      7  C   UNL     1      -1.108  10.447  18.324  0.00  0.00    +0.000 A 
ATOM      8  C   UNL     1      -1.839   9.939  17.105  0.00  0.00    +0.000 C 
ATOM      9  C   UNL     1      -3.350  10.124  17.210  0.00  0.00    +0.000 C 
ATOM     10  C   UNL     1      -3.662  11.546  17.642  0.00  0.00    +0.000 C 
ATOM     11  C   UNL     1      -3.049  11.833  19.018  0.00  0.00    +0.000 C 
ENDROOT
BRANCH   1  12
ATOM     12  S   UNL     1       1.047   8.917  17.509  0.00  0.00    +0.000 S 
BRANCH  12  13
ATOM     13  C   UNL     1       2.624   8.606  18.357  0.00  0.00    +0.000 C 
BRANCH  13  15
ATOM     14  O   UNL     1       4.124   7.134  17.207  0.00  0.00    +0.000 OA
ATOM     15  C   UNL     1       3.185   7.238  17.992  0.00  0.00    +0.000 C 
ATOM     16  N   UNL     1       2.527   6.179  18.595  0.00  0.00    +0.000 N 
ATOM     17  H   UNL     1       1.618   6.386  19.017  0.00  0.00    +0.000 HD
BRANCH  16  18
ATOM     18  C   UNL     1       2.841   4.810  18.454  0.00  0.00    +0.000 A 
ATOM     19  C   UNL     1       2.093   3.924  17.676  0.00  0.00    +0.000 A 
ATOM     20  C   UNL     1       2.444   2.573  17.613  0.00  0.00    +0.000 A 
ATOM     21  C   UNL     1       3.550   2.108  18.315  0.00  0.00    +0.000 A 
ATOM     22  F   UNL     1       3.861   0.806  18.276  0.00  0.00    +0.000 F 
ATOM     23  C   UNL     1       4.331   2.973  19.061  0.00  0.00    +0.000 A 
ATOM     24  C   UNL     1       3.976   4.315  19.114  0.00  0.00    +0.000 A 
ATOM     25  F   UNL     1       4.726   5.135  19.861  0.00  0.00    +0.000 F 
ENDBRANCH  16  18
ENDBRANCH  13  15
ENDBRANCH  12  13
ENDBRANCH   1  12
BRANCH   5  26
ATOM     26  C   UNL     1      -1.449  12.553  21.419  0.00  0.00    +0.000 C 
BRANCH  26  27
ATOM     27  C   UNL     1      -2.317  12.001  22.565  0.00  0.00    +0.000 C 
BRANCH  27  28
ATOM     28  C   UNL     1      -3.253  12.968  23.320  0.00  0.00    +0.000 C 
BRANCH  28  29
ATOM     29  N   UNL     1      -4.662  12.558  23.131  0.00  0.00    +0.000 NA
ATOM     30  C   UNL     1      -5.168  12.635  21.742  0.00  0.00    +0.000 C 
ATOM     31  C   UNL     1      -5.618  14.035  21.296  0.00  0.00    +0.000 C 
ATOM     32  O   UNL     1      -6.616  14.556  22.179  0.00  0.00    +0.000 OA
ATOM     33  C   UNL     1      -6.105  14.628  23.514  0.00  0.00    +0.000 C 
ATOM     34  C   UNL     1      -5.622  13.254  24.016  0.00  0.00    +0.000 C 
ENDBRANCH  28  29
ENDBRANCH  27  28
ENDBRANCH  26  27
ENDBRANCH   5  26
TORSDOF 8
ENDMDL
