MODEL 1
REMARK VINA RESULT:      -7.0      0.000      0.000
REMARK  Name = 
REMARK  6 active torsions:
REMARK  status: ('A' for Active; 'I' for Inactive)
REMARK    1  A    between atoms: C_5  and  N_6
REMARK    2  A    between atoms: N_6  and  C_7
REMARK    3  A    between atoms: C_7  and  O_9
REMARK    4  A    between atoms: O_9  and  C_10
REMARK    5  A    between atoms: C_10  and  C_11
REMARK    6  A    between atoms: C_11  and  C_12
REMARK                            x       y       z     vdW  Elec       q    Type
REMARK                         _______ _______ _______ _____ _____    ______ ____
ROOT
ATOM      1  C   UNL     1       3.939   4.609  16.900  0.00  0.00    +0.000 C 
ATOM      2  S   UNL     1       3.938   5.974  17.860  0.00  0.00    +0.000 S 
ENDROOT
BRANCH   1   3
ATOM      3  N   UNL     1       3.253   3.500  17.320  0.00  0.00    +0.000 N 
ATOM      4  H   UNL     1       3.222   2.772  16.615  0.00  0.00    +0.000 HD
BRANCH   3   9
ATOM      5  F   UNL     1       1.065   2.537  22.310  0.00  0.00    +0.000 F 
ATOM      6  C   UNL     1       1.576   2.742  21.088  0.00  0.00    +0.000 A 
ATOM      7  C   UNL     1       0.730   3.078  20.041  0.00  0.00    +0.000 A 
ATOM      8  C   UNL     1       1.259   3.305  18.766  0.00  0.00    +0.000 A 
ATOM      9  C   UNL     1       2.634   3.203  18.546  0.00  0.00    +0.000 A 
ATOM     10  C   UNL     1       3.474   2.867  19.618  0.00  0.00    +0.000 A 
ATOM     11  C   UNL     1       2.944   2.628  20.891  0.00  0.00    +0.000 A 
ENDBRANCH   3   9
ENDBRANCH   1   3
BRANCH   1  12
ATOM     12  O   UNL     1       4.618   4.514  15.724  0.00  0.00    +0.000 OA
BRANCH  12  13
ATOM     13  C   UNL     1       5.767   3.635  15.615  0.00  0.00    +0.000 C 
BRANCH  13  14
ATOM     14  C   UNL     1       7.057   4.431  15.455  0.00  0.00    +0.000 C 
BRANCH  14  15
ATOM     15  C   UNL     1       7.360   5.314  16.638  0.00  0.00    +0.000 A 
ATOM     16  C   UNL     1       7.629   4.752  17.884  0.00  0.00    +0.000 A 
ATOM     17  C   UNL     1       7.938   5.592  18.950  0.00  0.00    +0.000 A 
ATOM     18  C   UNL     1       7.974   6.963  18.747  0.00  0.00    +0.000 A 
ATOM     19  C   UNL     1       7.692   7.442  17.477  0.00  0.00    +0.000 A 
ATOM     20  N   UNL     1       7.386   6.651  16.423  0.00  0.00    +0.000 NA
ENDBRANCH  14  15
ENDBRANCH  13  14
ENDBRANCH  12  13
ENDBRANCH   1  12
TORSDOF 6
ENDMDL
MODEL 2
REMARK VINA RESULT:      -7.0      1.839      3.059
REMARK  Name = 
REMARK  6 active torsions:
REMARK  status: ('A' for Active; 'I' for Inactive)
REMARK    1  A    between atoms: C_5  and  N_6
REMARK    2  A    between atoms: N_6  and  C_7
REMARK    3  A    between atoms: C_7  and  O_9
REMARK    4  A    between atoms: O_9  and  C_10
REMARK    5  A    between atoms: C_10  and  C_11
REMARK    6  A    between atoms: C_11  and  C_12
REMARK                            x       y       z     vdW  Elec       q    Type
REMARK                         _______ _______ _______ _____ _____    ______ ____
ROOT
ATOM      1  C   UNL     1       3.668   6.466  17.735  0.00  0.00    +0.000 C 
ATOM      2  S   UNL     1       2.945   7.966  17.854  0.00  0.00    +0.000 S 
ENDROOT
BRANCH   1   3
ATOM      3  N   UNL     1       2.879   5.346  17.726  0.00  0.00    +0.000 N 
ATOM      4  H   UNL     1       2.632   5.053  16.788  0.00  0.00    +0.000 HD
BRANCH   3   9
ATOM      5  F   UNL     1       0.919   2.487  22.038  0.00  0.00    +0.000 F 
ATOM      6  C   UNL     1       1.409   3.148  20.981  0.00  0.00    +0.000 A 
ATOM      7  C   UNL     1       0.989   2.804  19.704  0.00  0.00    +0.000 A 
ATOM      8  C   UNL     1       1.487   3.500  18.598  0.00  0.00    +0.000 A 
ATOM      9  C   UNL     1       2.399   4.543  18.774  0.00  0.00    +0.000 A 
ATOM     10  C   UNL     1       2.808   4.880  20.072  0.00  0.00    +0.000 A 
ATOM     11  C   UNL     1       2.319   4.176  21.179  0.00  0.00    +0.000 A 
ENDBRANCH   3   9
ENDBRANCH   1   3
BRANCH   1  12
ATOM     12  O   UNL     1       5.015   6.281  17.680  0.00  0.00    +0.000 OA
BRANCH  12  13
ATOM     13  C   UNL     1       5.559   5.037  17.168  0.00  0.00    +0.000 C 
BRANCH  13  14
ATOM     14  C   UNL     1       6.896   5.266  16.471  0.00  0.00    +0.000 C 
BRANCH  14  15
ATOM     15  C   UNL     1       6.889   4.851  15.023  0.00  0.00    +0.000 A 
ATOM     16  C   UNL     1       5.939   3.946  14.554  0.00  0.00    +0.000 A 
ATOM     17  C   UNL     1       5.937   3.608  13.204  0.00  0.00    +0.000 A 
ATOM     18  C   UNL     1       6.877   4.180  12.359  0.00  0.00    +0.000 A 
ATOM     19  C   UNL     1       7.790   5.068  12.905  0.00  0.00    +0.000 A 
ATOM     20  N   UNL     1       7.817   5.414  14.212  0.00  0.00    +0.000 NA
ENDBRANCH  14  15
ENDBRANCH  13  14
ENDBRANCH  12  13
ENDBRANCH   1  12
TORSDOF 6
ENDMDL
MODEL 3
REMARK VINA RESULT:      -6.8      3.025      5.835
REMARK  Name = 
REMARK  6 active torsions:
REMARK  status: ('A' for Active; 'I' for Inactive)
REMARK    1  A    between atoms: C_5  and  N_6
REMARK    2  A    between atoms: N_6  and  C_7
REMARK    3  A    between atoms: C_7  and  O_9
REMARK    4  A    between atoms: O_9  and  C_10
REMARK    5  A    between atoms: C_10  and  C_11
REMARK    6  A    between atoms: C_11  and  C_12
REMARK                            x       y       z     vdW  Elec       q    Type
REMARK                         _______ _______ _______ _____ _____    ______ ____
ROOT
ATOM      1  C   UNL     1       2.669   7.233  18.660  0.00  0.00    +0.000 C 
ATOM      2  S   UNL     1       1.964   8.633  18.086  0.00  0.00    +0.000 S 
ENDROOT
BRANCH   1   3
ATOM      3  N   UNL     1       3.299   6.396  17.777  0.00  0.00    +0.000 N 
ATOM      4  H   UNL     1       2.748   6.224  16.944  0.00  0.00    +0.000 HD
BRANCH   3   9
ATOM      5  F   UNL     1       8.329   4.096  17.620  0.00  0.00    +0.000 F 
ATOM      6  C   UNL     1       7.103   4.632  17.688  0.00  0.00    +0.000 A 
ATOM      7  C   UNL     1       6.741   5.373  18.804  0.00  0.00    +0.000 A 
ATOM      8  C   UNL     1       5.467   5.946  18.874  0.00  0.00    +0.000 A 
ATOM      9  C   UNL     1       4.562   5.782  17.823  0.00  0.00    +0.000 A 
ATOM     10  C   UNL     1       4.948   5.035  16.701  0.00  0.00    +0.000 A 
ATOM     11  C   UNL     1       6.218   4.451  16.636  0.00  0.00    +0.000 A 
ENDBRANCH   3   9
ENDBRANCH   1   3
BRANCH   1  12
ATOM     12  O   UNL     1       2.626   6.846  19.964  0.00  0.00    +0.000 OA
BRANCH  12  13
ATOM     13  C   UNL     1       1.544   6.004  20.439  0.00  0.00    +0.000 C 
BRANCH  13  14
ATOM     14  C   UNL     1       2.074   4.684  20.989  0.00  0.00    +0.000 C 
BRANCH  14  15
ATOM     15  C   UNL     1       2.507   3.724  19.912  0.00  0.00    +0.000 A 
ATOM     16  C   UNL     1       3.610   2.897  20.109  0.00  0.00    +0.000 A 
ATOM     17  C   UNL     1       3.966   1.997  19.108  0.00  0.00    +0.000 A 
ATOM     18  C   UNL     1       3.215   1.943  17.944  0.00  0.00    +0.000 A 
ATOM     19  C   UNL     1       2.133   2.801  17.825  0.00  0.00    +0.000 A 
ATOM     20  N   UNL     1       1.765   3.688  18.778  0.00  0.00    +0.000 NA
ENDBRANCH  14  15
ENDBRANCH  13  14
ENDBRANCH  12  13
ENDBRANCH   1  12
TORSDOF 6
ENDMDL
MODEL 4
REMARK VINA RESULT:      -6.7      4.014      6.003
REMARK  Name = 
REMARK  6 active torsions:
REMARK  status: ('A' for Active; 'I' for Inactive)
REMARK    1  A    between atoms: C_5  and  N_6
REMARK    2  A    between atoms: N_6  and  C_7
REMARK    3  A    between atoms: C_7  and  O_9
REMARK    4  A    between atoms: O_9  and  C_10
REMARK    5  A    between atoms: C_10  and  C_11
REMARK    6  A    between atoms: C_11  and  C_12
REMARK                            x       y       z     vdW  Elec       q    Type
REMARK                         _______ _______ _______ _____ _____    ______ ____
ROOT
ATOM      1  C   UNL     1       3.588   3.594  17.684  0.00  0.00    +0.000 C 
ATOM      2  S   UNL     1       3.720   2.045  18.293  0.00  0.00    +0.000 S 
ENDROOT
BRANCH   1   3
ATOM      3  N   UNL     1       4.659   4.145  17.031  0.00  0.00    +0.000 N 
ATOM      4  H   UNL     1       4.750   3.807  16.080  0.00  0.00    +0.000 HD
BRANCH   3   9
ATOM      5  F   UNL     1       8.629   7.645  18.642  0.00  0.00    +0.000 F 
ATOM      6  C   UNL     1       7.642   6.822  18.263  0.00  0.00    +0.000 A 
ATOM      7  C   UNL     1       6.772   7.216  17.256  0.00  0.00    +0.000 A 
ATOM      8  C   UNL     1       5.748   6.355  16.847  0.00  0.00    +0.000 A 
ATOM      9  C   UNL     1       5.603   5.100  17.442  0.00  0.00    +0.000 A 
ATOM     10  C   UNL     1       6.496   4.718  18.454  0.00  0.00    +0.000 A 
ATOM     11  C   UNL     1       7.513   5.583  18.872  0.00  0.00    +0.000 A 
ENDBRANCH   3   9
ENDBRANCH   1   3
BRANCH   1  12
ATOM     12  O   UNL     1       2.478   4.369  17.827  0.00  0.00    +0.000 OA
BRANCH  12  13
ATOM     13  C   UNL     1       2.046   4.784  19.148  0.00  0.00    +0.000 C 
BRANCH  13  14
ATOM     14  C   UNL     1       2.904   5.930  19.673  0.00  0.00    +0.000 C 
BRANCH  14  15
ATOM     15  C   UNL     1       2.342   7.290  19.348  0.00  0.00    +0.000 A 
ATOM     16  C   UNL     1       2.473   7.818  18.066  0.00  0.00    +0.000 A 
ATOM     17  C   UNL     1       1.914   9.061  17.788  0.00  0.00    +0.000 A 
ATOM     18  C   UNL     1       1.239   9.743  18.790  0.00  0.00    +0.000 A 
ATOM     19  C   UNL     1       1.155   9.150  20.039  0.00  0.00    +0.000 A 
ATOM     20  N   UNL     1       1.689   7.944  20.340  0.00  0.00    +0.000 NA
ENDBRANCH  14  15
ENDBRANCH  13  14
ENDBRANCH  12  13
ENDBRANCH   1  12
TORSDOF 6
ENDMDL
MODEL 5
REMARK VINA RESULT:      -6.7      1.951      3.316
REMARK  Name = 
REMARK  6 active torsions:
REMARK  status: ('A' for Active; 'I' for Inactive)
REMARK    1  A    between atoms: C_5  and  N_6
REMARK    2  A    between atoms: N_6  and  C_7
REMARK    3  A    between atoms: C_7  and  O_9
REMARK    4  A    between atoms: O_9  and  C_10
REMARK    5  A    between atoms: C_10  and  C_11
REMARK    6  A    between atoms: C_11  and  C_12
REMARK                            x       y       z     vdW  Elec       q    Type
REMARK                         _______ _______ _______ _____ _____    ______ ____
ROOT
ATOM      1  C   UNL     1       4.040   6.147  17.776  0.00  0.00    +0.000 C 
ATOM      2  S   UNL     1       3.446   7.701  17.637  0.00  0.00    +0.000 S 
ENDROOT
BRANCH   1   3
ATOM      3  N   UNL     1       3.158   5.103  17.856  0.00  0.00    +0.000 N 
ATOM      4  H   UNL     1       2.948   4.700  16.950  0.00  0.00    +0.000 HD
BRANCH   3   9
ATOM      5  F   UNL     1       0.827   2.385  22.075  0.00  0.00    +0.000 F 
ATOM      6  C   UNL     1       1.372   3.073  21.063  0.00  0.00    +0.000 A 
ATOM      7  C   UNL     1       2.180   4.168  21.337  0.00  0.00    +0.000 A 
ATOM      8  C   UNL     1       2.763   4.882  20.285  0.00  0.00    +0.000 A 
ATOM      9  C   UNL     1       2.541   4.494  18.962  0.00  0.00    +0.000 A 
ATOM     10  C   UNL     1       1.727   3.382  18.705  0.00  0.00    +0.000 A 
ATOM     11  C   UNL     1       1.133   2.674  19.756  0.00  0.00    +0.000 A 
ENDBRANCH   3   9
ENDBRANCH   1   3
BRANCH   1  12
ATOM     12  O   UNL     1       5.367   5.851  17.850  0.00  0.00    +0.000 OA
BRANCH  12  13
ATOM     13  C   UNL     1       6.174   5.817  16.644  0.00  0.00    +0.000 C 
BRANCH  13  14
ATOM     14  C   UNL     1       6.132   4.439  15.992  0.00  0.00    +0.000 C 
BRANCH  14  15
ATOM     15  C   UNL     1       6.581   4.449  14.554  0.00  0.00    +0.000 A 
ATOM     16  C   UNL     1       5.973   3.612  13.621  0.00  0.00    +0.000 A 
ATOM     17  C   UNL     1       6.388   3.669  12.294  0.00  0.00    +0.000 A 
ATOM     18  C   UNL     1       7.391   4.555  11.932  0.00  0.00    +0.000 A 
ATOM     19  C   UNL     1       7.946   5.351  12.921  0.00  0.00    +0.000 A 
ATOM     20  N   UNL     1       7.566   5.318  14.218  0.00  0.00    +0.000 NA
ENDBRANCH  14  15
ENDBRANCH  13  14
ENDBRANCH  12  13
ENDBRANCH   1  12
TORSDOF 6
ENDMDL
MODEL 6
REMARK VINA RESULT:      -6.7      3.141      6.004
REMARK  Name = 
REMARK  6 active torsions:
REMARK  status: ('A' for Active; 'I' for Inactive)
REMARK    1  A    between atoms: C_5  and  N_6
REMARK    2  A    between atoms: N_6  and  C_7
REMARK    3  A    between atoms: C_7  and  O_9
REMARK    4  A    between atoms: O_9  and  C_10
REMARK    5  A    between atoms: C_10  and  C_11
REMARK    6  A    between atoms: C_11  and  C_12
REMARK                            x       y       z     vdW  Elec       q    Type
REMARK                         _______ _______ _______ _____ _____    ______ ____
ROOT
ATOM      1  C   UNL     1       2.525   6.936  19.415  0.00  0.00    +0.000 C 
ATOM      2  S   UNL     1       2.307   8.183  18.327  0.00  0.00    +0.000 S 
ENDROOT
BRANCH   1   3
ATOM      3  N   UNL     1       3.769   6.378  19.547  0.00  0.00    +0.000 N 
ATOM      4  H   UNL     1       4.151   6.494  20.479  0.00  0.00    +0.000 HD
BRANCH   3   9
ATOM      5  F   UNL     1       6.793   3.790  15.702  0.00  0.00    +0.000 F 
ATOM      6  C   UNL     1       6.064   4.387  16.656  0.00  0.00    +0.000 A 
ATOM      7  C   UNL     1       6.647   4.676  17.882  0.00  0.00    +0.000 A 
ATOM      8  C   UNL     1       5.895   5.312  18.875  0.00  0.00    +0.000 A 
ATOM      9  C   UNL     1       4.564   5.662  18.636  0.00  0.00    +0.000 A 
ATOM     10  C   UNL     1       3.995   5.367  17.390  0.00  0.00    +0.000 A 
ATOM     11  C   UNL     1       4.743   4.720  16.399  0.00  0.00    +0.000 A 
ENDBRANCH   3   9
ENDBRANCH   1   3
BRANCH   1  12
ATOM     12  O   UNL     1       1.521   6.407  20.167  0.00  0.00    +0.000 OA
BRANCH  12  13
ATOM     13  C   UNL     1       1.783   5.276  21.039  0.00  0.00    +0.000 C 
BRANCH  13  14
ATOM     14  C   UNL     1       1.087   4.018  20.532  0.00  0.00    +0.000 C 
BRANCH  14  15
ATOM     15  C   UNL     1       1.978   3.148  19.683  0.00  0.00    +0.000 A 
ATOM     16  C   UNL     1       1.589   2.787  18.395  0.00  0.00    +0.000 A 
ATOM     17  C   UNL     1       2.449   2.010  17.624  0.00  0.00    +0.000 A 
ATOM     18  C   UNL     1       3.669   1.618  18.152  0.00  0.00    +0.000 A 
ATOM     19  C   UNL     1       3.980   2.017  19.443  0.00  0.00    +0.000 A 
ATOM     20  N   UNL     1       3.164   2.769  20.217  0.00  0.00    +0.000 NA
ENDBRANCH  14  15
ENDBRANCH  13  14
ENDBRANCH  12  13
ENDBRANCH   1  12
TORSDOF 6
ENDMDL
MODEL 7
REMARK VINA RESULT:      -6.6      3.169      5.370
REMARK  Name = 
REMARK  6 active torsions:
REMARK  status: ('A' for Active; 'I' for Inactive)
REMARK    1  A    between atoms: C_5  and  N_6
REMARK    2  A    between atoms: N_6  and  C_7
REMARK    3  A    between atoms: C_7  and  O_9
REMARK    4  A    between atoms: O_9  and  C_10
REMARK    5  A    between atoms: C_10  and  C_11
REMARK    6  A    between atoms: C_11  and  C_12
REMARK                            x       y       z     vdW  Elec       q    Type
REMARK                         _______ _______ _______ _____ _____    ______ ____
ROOT
ATOM      1  C   UNL     1       5.242   5.756  17.538  0.00  0.00    +0.000 C 
ATOM      2  S   UNL     1       6.735   6.504  17.555  0.00  0.00    +0.000 S 
ENDROOT
BRANCH   1   3
ATOM      3  N   UNL     1       4.131   6.497  17.231  0.00  0.00    +0.000 N 
ATOM      4  H   UNL     1       3.970   6.561  16.233  0.00  0.00    +0.000 HD
BRANCH   3   9
ATOM      5  F   UNL     1       0.643   8.962  20.749  0.00  0.00    +0.000 F 
ATOM      6  C   UNL     1       1.460   8.361  19.873  0.00  0.00    +0.000 A 
ATOM      7  C   UNL     1       1.709   8.962  18.647  0.00  0.00    +0.000 A 
ATOM      8  C   UNL     1       2.572   8.346  17.734  0.00  0.00    +0.000 A 
ATOM      9  C   UNL     1       3.187   7.134  18.054  0.00  0.00    +0.000 A 
ATOM     10  C   UNL     1       2.928   6.545  19.299  0.00  0.00    +0.000 A 
ATOM     11  C   UNL     1       2.055   7.155  20.209  0.00  0.00    +0.000 A 
ENDBRANCH   3   9
ENDBRANCH   1   3
BRANCH   1  12
ATOM     12  O   UNL     1       5.052   4.444  17.847  0.00  0.00    +0.000 OA
BRANCH  12  13
ATOM     13  C   UNL     1       4.174   3.624  17.034  0.00  0.00    +0.000 C 
BRANCH  13  14
ATOM     14  C   UNL     1       3.705   2.392  17.800  0.00  0.00    +0.000 C 
BRANCH  14  15
ATOM     15  C   UNL     1       2.864   2.725  19.004  0.00  0.00    +0.000 A 
ATOM     16  C   UNL     1       1.562   3.195  18.845  0.00  0.00    +0.000 A 
ATOM     17  C   UNL     1       0.799   3.463  19.978  0.00  0.00    +0.000 A 
ATOM     18  C   UNL     1       1.349   3.255  21.234  0.00  0.00    +0.000 A 
ATOM     19  C   UNL     1       2.652   2.788  21.306  0.00  0.00    +0.000 A 
ATOM     20  N   UNL     1       3.419   2.521  20.224  0.00  0.00    +0.000 NA
ENDBRANCH  14  15
ENDBRANCH  13  14
ENDBRANCH  12  13
ENDBRANCH   1  12
TORSDOF 6
ENDMDL
MODEL 8
REMARK VINA RESULT:      -6.6      2.743      3.190
REMARK  Name = 
REMARK  6 active torsions:
REMARK  status: ('A' for Active; 'I' for Inactive)
REMARK    1  A    between atoms: C_5  and  N_6
REMARK    2  A    between atoms: N_6  and  C_7
REMARK    3  A    between atoms: C_7  and  O_9
REMARK    4  A    between atoms: O_9  and  C_10
REMARK    5  A    between atoms: C_10  and  C_11
REMARK    6  A    between atoms: C_11  and  C_12
REMARK                            x       y       z     vdW  Elec       q    Type
REMARK                         _______ _______ _______ _____ _____    ______ ____
ROOT
ATOM      1  C   UNL     1       3.914   3.266  17.796  0.00  0.00    +0.000 C 
ATOM      2  S   UNL     1       2.483   2.408  17.847  0.00  0.00    +0.000 S 
ENDROOT
BRANCH   1   3
ATOM      3  N   UNL     1       4.120   4.271  18.705  0.00  0.00    +0.000 N 
ATOM      4  H   UNL     1       4.896   4.079  19.327  0.00  0.00    +0.000 HD
BRANCH   3   9
ATOM      5  F   UNL     1       1.469   9.115  19.067  0.00  0.00    +0.000 F 
ATOM      6  C   UNL     1       2.127   7.949  19.012  0.00  0.00    +0.000 A 
ATOM      7  C   UNL     1       1.887   6.981  19.978  0.00  0.00    +0.000 A 
ATOM      8  C   UNL     1       2.561   5.757  19.917  0.00  0.00    +0.000 A 
ATOM      9  C   UNL     1       3.469   5.503  18.886  0.00  0.00    +0.000 A 
ATOM     10  C   UNL     1       3.694   6.490  17.917  0.00  0.00    +0.000 A 
ATOM     11  C   UNL     1       3.029   7.720  17.983  0.00  0.00    +0.000 A 
ENDBRANCH   3   9
ENDBRANCH   1   3
BRANCH   1  12
ATOM     12  O   UNL     1       4.891   3.051  16.873  0.00  0.00    +0.000 OA
BRANCH  12  13
ATOM     13  C   UNL     1       5.155   4.043  15.848  0.00  0.00    +0.000 C 
BRANCH  13  14
ATOM     14  C   UNL     1       6.645   4.354  15.753  0.00  0.00    +0.000 C 
BRANCH  14  15
ATOM     15  C   UNL     1       7.113   5.341  16.789  0.00  0.00    +0.000 A 
ATOM     16  C   UNL     1       7.535   4.901  18.042  0.00  0.00    +0.000 A 
ATOM     17  C   UNL     1       7.993   5.835  18.966  0.00  0.00    +0.000 A 
ATOM     18  C   UNL     1       8.021   7.177  18.620  0.00  0.00    +0.000 A 
ATOM     19  C   UNL     1       7.581   7.534  17.355  0.00  0.00    +0.000 A 
ATOM     20  N   UNL     1       7.129   6.650  16.436  0.00  0.00    +0.000 NA
ENDBRANCH  14  15
ENDBRANCH  13  14
ENDBRANCH  12  13
ENDBRANCH   1  12
TORSDOF 6
ENDMDL
MODEL 9
REMARK VINA RESULT:      -6.6      3.801      5.216
REMARK  Name = 
REMARK  6 active torsions:
REMARK  status: ('A' for Active; 'I' for Inactive)
REMARK    1  A    between atoms: C_5  and  N_6
REMARK    2  A    between atoms: N_6  and  C_7
REMARK    3  A    between atoms: C_7  and  O_9
REMARK    4  A    between atoms: O_9  and  C_10
REMARK    5  A    between atoms: C_10  and  C_11
REMARK    6  A    between atoms: C_11  and  C_12
REMARK                            x       y       z     vdW  Elec       q    Type
REMARK                         _______ _______ _______ _____ _____    ______ ____
ROOT
ATOM      1  C   UNL     1       7.087   6.718  17.508  0.00  0.00    +0.000 C 
ATOM      2  S   UNL     1       7.629   5.724  18.735  0.00  0.00    +0.000 S 
ENDROOT
BRANCH   1   3
ATOM      3  N   UNL     1       6.036   6.306  16.733  0.00  0.00    +0.000 N 
ATOM      4  H   UNL     1       6.252   6.327  15.743  0.00  0.00    +0.000 HD
BRANCH   3   9
ATOM      5  F   UNL     1       1.157   4.187  18.254  0.00  0.00    +0.000 F 
ATOM      6  C   UNL     1       2.321   4.722  17.862  0.00  0.00    +0.000 A 
ATOM      7  C   UNL     1       2.561   6.072  18.080  0.00  0.00    +0.000 A 
ATOM      8  C   UNL     1       3.780   6.633  17.685  0.00  0.00    +0.000 A 
ATOM      9  C   UNL     1       4.757   5.840  17.079  0.00  0.00    +0.000 A 
ATOM     10  C   UNL     1       4.498   4.478  16.872  0.00  0.00    +0.000 A 
ATOM     11  C   UNL     1       3.274   3.918  17.256  0.00  0.00    +0.000 A 
ENDBRANCH   3   9
ENDBRANCH   1   3
BRANCH   1  12
ATOM     12  O   UNL     1       7.656   7.917  17.202  0.00  0.00    +0.000 OA
BRANCH  12  13
ATOM     13  C   UNL     1       8.342   8.680  18.228  0.00  0.00    +0.000 C 
BRANCH  13  14
ATOM     14  C   UNL     1       8.506  10.138  17.813  0.00  0.00    +0.000 C 
BRANCH  14  15
ATOM     15  C   UNL     1       9.536  10.876  18.627  0.00  0.00    +0.000 A 
ATOM     16  C   UNL     1      10.621  11.487  18.002  0.00  0.00    +0.000 A 
ATOM     17  C   UNL     1      11.539  12.189  18.779  0.00  0.00    +0.000 A 
ATOM     18  C   UNL     1      11.351  12.266  20.150  0.00  0.00    +0.000 A 
ATOM     19  C   UNL     1      10.248  11.627  20.694  0.00  0.00    +0.000 A 
ATOM     20  N   UNL     1       9.341  10.937  19.966  0.00  0.00    +0.000 NA
ENDBRANCH  14  15
ENDBRANCH  13  14
ENDBRANCH  12  13
ENDBRANCH   1  12
TORSDOF 6
ENDMDL
