MODEL 1
REMARK VINA RESULT:      -8.8      0.000      0.000
REMARK  Name = 
REMARK  5 active torsions:
REMARK  status: ('A' for Active; 'I' for Inactive)
REMARK    1  A    between atoms: C_2  and  C_11
REMARK    2  A    between atoms: N_3  and  C_4
REMARK    3  A    between atoms: C_7  and  O_8
REMARK    4  A    between atoms: N_19  and  C_20
REMARK    5  A    between atoms: C_20  and  C_21
REMARK                            x       y       z     vdW  Elec       q    Type
REMARK                         _______ _______ _______ _____ _____    ______ ____
ROOT
ATOM      1  C   UNL     1       2.430   8.008  18.609  0.00  0.00    +0.000 A 
ATOM      2  C   UNL     1       2.264   6.996  19.585  0.00  0.00    +0.000 A 
ATOM      3  C   UNL     1       3.116   5.881  19.609  0.00  0.00    +0.000 A 
ATOM      4  C   UNL     1       4.103   5.812  18.643  0.00  0.00    +0.000 A 
ATOM      5  C   UNL     1       4.272   6.804  17.697  0.00  0.00    +0.000 A 
ATOM      6  C   UNL     1       3.457   7.916  17.653  0.00  0.00    +0.000 A 
ATOM      7  C   UNL     1       5.395   6.420  16.844  0.00  0.00    +0.000 C 
ATOM      8  O   UNL     1       5.845   7.122  15.961  0.00  0.00    +0.000 OA
ATOM      9  N   UNL     1       5.816   5.198  17.289  0.00  0.00    +0.000 N 
ATOM     10  C   UNL     1       5.109   4.781  18.382  0.00  0.00    +0.000 C 
ATOM     11  O   UNL     1       5.251   3.782  19.059  0.00  0.00    +0.000 OA
ENDROOT
BRANCH   1  13
ATOM     12  O   UNL     1       1.640   9.898  17.525  0.00  0.00    +0.000 OA
ATOM     13  C   UNL     1       1.478   9.144  18.480  0.00  0.00    +0.000 C 
ATOM     14  N   UNL     1       0.521   9.269  19.470  0.00  0.00    +0.000 N 
ATOM     15  H   UNL     1       0.624   8.704  20.303  0.00  0.00    +0.000 HD
BRANCH  14  16
ATOM     16  C   UNL     1      -0.496  10.252  19.510  0.00  0.00    +0.000 A 
ATOM     17  C   UNL     1      -1.520  10.335  18.560  0.00  0.00    +0.000 A 
ATOM     18  C   UNL     1      -2.477  11.351  18.624  0.00  0.00    +0.000 A 
ATOM     19  C   UNL     1      -2.414  12.286  19.648  0.00  0.00    +0.000 A 
ATOM     20  C   UNL     1      -1.422  12.205  20.618  0.00  0.00    +0.000 A 
ATOM     21  C   UNL     1      -0.469  11.183  20.556  0.00  0.00    +0.000 A 
BRANCH  19  22
ATOM     22  O   UNL     1      -3.313  13.305  19.733  0.00  0.00    +0.000 OA
ATOM     23  H   UNL     1      -3.909  13.127  20.480  0.00  0.00    +0.000 HD
ENDBRANCH  19  22
ENDBRANCH  14  16
ENDBRANCH   1  13
BRANCH   9  24
ATOM     24  C   UNL     1       6.939   4.481  16.730  0.00  0.00    +0.000 C 
BRANCH  24  25
ATOM     25  C   UNL     1       6.827   4.417  15.249  0.00  0.00    +0.000 A 
ATOM     26  C   UNL     1       6.011   3.713  14.386  0.00  0.00    +0.000 A 
ATOM     27  C   UNL     1       6.455   4.016  13.076  0.00  0.00    +0.000 A 
ATOM     28  C   UNL     1       7.496   4.901  13.221  0.00  0.00    +0.000 A 
ATOM     29  O   UNL     1       7.728   5.153  14.534  0.00  0.00    +0.000 OA
ENDBRANCH  24  25
ENDBRANCH   9  24
TORSDOF 5
ENDMDL
MODEL 2
REMARK VINA RESULT:      -8.8      0.826      1.240
REMARK  Name = 
REMARK  5 active torsions:
REMARK  status: ('A' for Active; 'I' for Inactive)
REMARK    1  A    between atoms: C_2  and  C_11
REMARK    2  A    between atoms: N_3  and  C_4
REMARK    3  A    between atoms: C_7  and  O_8
REMARK    4  A    between atoms: N_19  and  C_20
REMARK    5  A    between atoms: C_20  and  C_21
REMARK                            x       y       z     vdW  Elec       q    Type
REMARK                         _______ _______ _______ _____ _____    ______ ____
ROOT
ATOM      1  C   UNL     1       2.374   7.900  18.081  0.00  0.00    +0.000 A 
ATOM      2  C   UNL     1       1.752   6.660  18.365  0.00  0.00    +0.000 A 
ATOM      3  C   UNL     1       2.416   5.453  18.100  0.00  0.00    +0.000 A 
ATOM      4  C   UNL     1       3.681   5.527  17.548  0.00  0.00    +0.000 A 
ATOM      5  C   UNL     1       4.291   6.737  17.279  0.00  0.00    +0.000 A 
ATOM      6  C   UNL     1       3.669   7.941  17.537  0.00  0.00    +0.000 A 
ATOM      7  C   UNL     1       5.608   6.455  16.710  0.00  0.00    +0.000 C 
ATOM      8  O   UNL     1       6.425   7.312  16.438  0.00  0.00    +0.000 OA
ATOM      9  N   UNL     1       5.706   5.095  16.622  0.00  0.00    +0.000 N 
ATOM     10  C   UNL     1       4.602   4.469  17.131  0.00  0.00    +0.000 C 
ATOM     11  O   UNL     1       4.378   3.282  17.261  0.00  0.00    +0.000 OA
ENDROOT
BRANCH   1  13
ATOM     12  O   UNL     1       2.096  10.151  17.604  0.00  0.00    +0.000 OA
ATOM     13  C   UNL     1       1.659   9.196  18.238  0.00  0.00    +0.000 C 
ATOM     14  N   UNL     1       0.592   9.214  19.116  0.00  0.00    +0.000 N 
ATOM     15  H   UNL     1       0.463   8.416  19.725  0.00  0.00    +0.000 HD
BRANCH  14  16
ATOM     16  C   UNL     1      -0.239  10.330  19.377  0.00  0.00    +0.000 A 
ATOM     17  C   UNL     1      -0.130  11.114  20.531  0.00  0.00    +0.000 A 
ATOM     18  C   UNL     1      -1.003  12.182  20.757  0.00  0.00    +0.000 A 
ATOM     19  C   UNL     1      -1.986  12.471  19.821  0.00  0.00    +0.000 A 
ATOM     20  C   UNL     1      -2.093  11.724  18.655  0.00  0.00    +0.000 A 
ATOM     21  C   UNL     1      -1.214  10.660  18.427  0.00  0.00    +0.000 A 
BRANCH  19  22
ATOM     22  O   UNL     1      -2.871  13.488  20.015  0.00  0.00    +0.000 OA
ATOM     23  H   UNL     1      -3.758  13.106  20.123  0.00  0.00    +0.000 HD
ENDBRANCH  19  22
ENDBRANCH  14  16
ENDBRANCH   1  13
BRANCH   9  24
ATOM     24  C   UNL     1       6.878   4.401  16.139  0.00  0.00    +0.000 C 
BRANCH  24  25
ATOM     25  C   UNL     1       6.937   4.456  14.654  0.00  0.00    +0.000 A 
ATOM     26  C   UNL     1       6.284   3.768  13.651  0.00  0.00    +0.000 A 
ATOM     27  C   UNL     1       6.843   4.215  12.429  0.00  0.00    +0.000 A 
ATOM     28  C   UNL     1       7.783   5.161  12.761  0.00  0.00    +0.000 A 
ATOM     29  O   UNL     1       7.845   5.317  14.108  0.00  0.00    +0.000 OA
ENDBRANCH  24  25
ENDBRANCH   9  24
TORSDOF 5
ENDMDL
MODEL 3
REMARK VINA RESULT:      -8.6      5.312      7.945
REMARK  Name = 
REMARK  5 active torsions:
REMARK  status: ('A' for Active; 'I' for Inactive)
REMARK    1  A    between atoms: C_2  and  C_11
REMARK    2  A    between atoms: N_3  and  C_4
REMARK    3  A    between atoms: C_7  and  O_8
REMARK    4  A    between atoms: N_19  and  C_20
REMARK    5  A    between atoms: C_20  and  C_21
REMARK                            x       y       z     vdW  Elec       q    Type
REMARK                         _______ _______ _______ _____ _____    ______ ____
ROOT
ATOM      1  C   UNL     1       8.122   8.359  18.231  0.00  0.00    +0.000 A 
ATOM      2  C   UNL     1       8.491   7.376  19.181  0.00  0.00    +0.000 A 
ATOM      3  C   UNL     1       7.888   6.109  19.166  0.00  0.00    +0.000 A 
ATOM      4  C   UNL     1       6.924   5.872  18.204  0.00  0.00    +0.000 A 
ATOM      5  C   UNL     1       6.571   6.828  17.271  0.00  0.00    +0.000 A 
ATOM      6  C   UNL     1       7.153   8.079  17.254  0.00  0.00    +0.000 A 
ATOM      7  C   UNL     1       5.539   6.252  16.411  0.00  0.00    +0.000 C 
ATOM      8  O   UNL     1       5.074   6.817  15.442  0.00  0.00    +0.000 OA
ATOM      9  N   UNL     1       5.289   4.999  16.896  0.00  0.00    +0.000 N 
ATOM     10  C   UNL     1       6.101   4.688  17.951  0.00  0.00    +0.000 C 
ATOM     11  O   UNL     1       6.187   3.653  18.581  0.00  0.00    +0.000 OA
ENDROOT
BRANCH   1  13
ATOM     12  O   UNL     1       8.186  10.553  17.487  0.00  0.00    +0.000 OA
ATOM     13  C   UNL     1       8.654   9.748  18.287  0.00  0.00    +0.000 C 
ATOM     14  N   UNL     1       9.653   9.995  19.209  0.00  0.00    +0.000 N 
ATOM     15  H   UNL     1      10.087   9.201  19.663  0.00  0.00    +0.000 HD
BRANCH  14  16
ATOM     16  C   UNL     1      10.261  11.250  19.445  0.00  0.00    +0.000 A 
ATOM     17  C   UNL     1       9.864  12.113  20.473  0.00  0.00    +0.000 A 
ATOM     18  C   UNL     1      10.472  13.361  20.637  0.00  0.00    +0.000 A 
ATOM     19  C   UNL     1      11.488  13.745  19.773  0.00  0.00    +0.000 A 
ATOM     20  C   UNL     1      11.917  12.892  18.764  0.00  0.00    +0.000 A 
ATOM     21  C   UNL     1      11.312  11.641  18.606  0.00  0.00    +0.000 A 
BRANCH  19  22
ATOM     22  O   UNL     1      12.090  14.962  19.885  0.00  0.00    +0.000 OA
ATOM     23  H   UNL     1      12.781  15.025  19.204  0.00  0.00    +0.000 HD
ENDBRANCH  19  22
ENDBRANCH  14  16
ENDBRANCH   1  13
BRANCH   9  24
ATOM     24  C   UNL     1       4.350   4.077  16.300  0.00  0.00    +0.000 C 
BRANCH  24  25
ATOM     25  C   UNL     1       3.180   3.879  17.197  0.00  0.00    +0.000 A 
ATOM     26  C   UNL     1       2.319   4.744  17.841  0.00  0.00    +0.000 A 
ATOM     27  C   UNL     1       1.457   3.941  18.627  0.00  0.00    +0.000 A 
ATOM     28  C   UNL     1       1.831   2.639  18.396  0.00  0.00    +0.000 A 
ATOM     29  O   UNL     1       2.874   2.591  17.528  0.00  0.00    +0.000 OA
ENDBRANCH  24  25
ENDBRANCH   9  24
TORSDOF 5
ENDMDL
MODEL 4
REMARK VINA RESULT:      -8.5      1.560      1.604
REMARK  Name = 
REMARK  5 active torsions:
REMARK  status: ('A' for Active; 'I' for Inactive)
REMARK    1  A    between atoms: C_2  and  C_11
REMARK    2  A    between atoms: N_3  and  C_4
REMARK    3  A    between atoms: C_7  and  O_8
REMARK    4  A    between atoms: N_19  and  C_20
REMARK    5  A    between atoms: C_20  and  C_21
REMARK                            x       y       z     vdW  Elec       q    Type
REMARK                         _______ _______ _______ _____ _____    ______ ____
ROOT
ATOM      1  C   UNL     1       2.534   7.198  18.616  0.00  0.00    +0.000 A 
ATOM      2  C   UNL     1       1.980   5.895  18.590  0.00  0.00    +0.000 A 
ATOM      3  C   UNL     1       2.704   4.824  18.044  0.00  0.00    +0.000 A 
ATOM      4  C   UNL     1       3.959   5.097  17.530  0.00  0.00    +0.000 A 
ATOM      5  C   UNL     1       4.502   6.366  17.564  0.00  0.00    +0.000 A 
ATOM      6  C   UNL     1       3.820   7.437  18.102  0.00  0.00    +0.000 A 
ATOM      7  C   UNL     1       5.827   6.300  16.949  0.00  0.00    +0.000 C 
ATOM      8  O   UNL     1       6.595   7.239  16.895  0.00  0.00    +0.000 OA
ATOM      9  N   UNL     1       5.995   5.008  16.535  0.00  0.00    +0.000 N 
ATOM     10  C   UNL     1       4.930   4.221  16.874  0.00  0.00    +0.000 C 
ATOM     11  O   UNL     1       4.770   3.027  16.712  0.00  0.00    +0.000 OA
ENDROOT
BRANCH   1  13
ATOM     12  O   UNL     1       1.470   8.421  20.272  0.00  0.00    +0.000 OA
ATOM     13  C   UNL     1       1.754   8.378  19.079  0.00  0.00    +0.000 C 
ATOM     14  N   UNL     1       1.387   9.297  18.115  0.00  0.00    +0.000 N 
ATOM     15  H   UNL     1       1.509   9.041  17.143  0.00  0.00    +0.000 HD
BRANCH  14  16
ATOM     16  C   UNL     1       0.681  10.500  18.353  0.00  0.00    +0.000 A 
ATOM     17  C   UNL     1      -0.713  10.597  18.288  0.00  0.00    +0.000 A 
ATOM     18  C   UNL     1      -1.358  11.820  18.493  0.00  0.00    +0.000 A 
ATOM     19  C   UNL     1      -0.604  12.951  18.773  0.00  0.00    +0.000 A 
ATOM     20  C   UNL     1       0.779  12.872  18.871  0.00  0.00    +0.000 A 
ATOM     21  C   UNL     1       1.422  11.645  18.672  0.00  0.00    +0.000 A 
BRANCH  19  22
ATOM     22  O   UNL     1      -1.192  14.166  18.957  0.00  0.00    +0.000 OA
ATOM     23  H   UNL     1      -1.098  14.414  19.891  0.00  0.00    +0.000 HD
ENDBRANCH  19  22
ENDBRANCH  14  16
ENDBRANCH   1  13
BRANCH   9  24
ATOM     24  C   UNL     1       7.197   4.515  15.903  0.00  0.00    +0.000 C 
BRANCH  24  25
ATOM     25  C   UNL     1       7.047   4.529  14.424  0.00  0.00    +0.000 A 
ATOM     26  C   UNL     1       6.266   3.811  13.541  0.00  0.00    +0.000 A 
ATOM     27  C   UNL     1       6.645   4.226  12.241  0.00  0.00    +0.000 A 
ATOM     28  C   UNL     1       7.616   5.183  12.413  0.00  0.00    +0.000 A 
ATOM     29  O   UNL     1       7.865   5.376  13.733  0.00  0.00    +0.000 OA
ENDBRANCH  24  25
ENDBRANCH   9  24
TORSDOF 5
ENDMDL
MODEL 5
REMARK VINA RESULT:      -8.4      1.570      1.834
REMARK  Name = 
REMARK  5 active torsions:
REMARK  status: ('A' for Active; 'I' for Inactive)
REMARK    1  A    between atoms: C_2  and  C_11
REMARK    2  A    between atoms: N_3  and  C_4
REMARK    3  A    between atoms: C_7  and  O_8
REMARK    4  A    between atoms: N_19  and  C_20
REMARK    5  A    between atoms: C_20  and  C_21
REMARK                            x       y       z     vdW  Elec       q    Type
REMARK                         _______ _______ _______ _____ _____    ______ ____
ROOT
ATOM      1  C   UNL     1       2.502   7.267  18.567  0.00  0.00    +0.000 A 
ATOM      2  C   UNL     1       1.948   5.965  18.544  0.00  0.00    +0.000 A 
ATOM      3  C   UNL     1       2.675   4.890  18.011  0.00  0.00    +0.000 A 
ATOM      4  C   UNL     1       3.934   5.158  17.506  0.00  0.00    +0.000 A 
ATOM      5  C   UNL     1       4.479   6.427  17.537  0.00  0.00    +0.000 A 
ATOM      6  C   UNL     1       3.793   7.502  18.063  0.00  0.00    +0.000 A 
ATOM      7  C   UNL     1       5.808   6.356  16.933  0.00  0.00    +0.000 C 
ATOM      8  O   UNL     1       6.578   7.294  16.881  0.00  0.00    +0.000 OA
ATOM      9  N   UNL     1       5.978   5.062  16.528  0.00  0.00    +0.000 N 
ATOM     10  C   UNL     1       4.910   4.277  16.863  0.00  0.00    +0.000 C 
ATOM     11  O   UNL     1       4.750   3.083  16.707  0.00  0.00    +0.000 OA
ENDROOT
BRANCH   1  13
ATOM     12  O   UNL     1       1.461   9.300  18.169  0.00  0.00    +0.000 OA
ATOM     13  C   UNL     1       1.720   8.451  19.017  0.00  0.00    +0.000 C 
ATOM     14  N   UNL     1       1.389   8.503  20.358  0.00  0.00    +0.000 N 
ATOM     15  H   UNL     1       1.835   7.845  20.984  0.00  0.00    +0.000 HD
BRANCH  14  16
ATOM     16  C   UNL     1       0.620   9.518  20.975  0.00  0.00    +0.000 A 
ATOM     17  C   UNL     1       0.323  10.738  20.357  0.00  0.00    +0.000 A 
ATOM     18  C   UNL     1      -0.408  11.723  21.027  0.00  0.00    +0.000 A 
ATOM     19  C   UNL     1      -0.851  11.483  22.320  0.00  0.00    +0.000 A 
ATOM     20  C   UNL     1      -0.592  10.268  22.942  0.00  0.00    +0.000 A 
ATOM     21  C   UNL     1       0.134   9.281  22.267  0.00  0.00    +0.000 A 
BRANCH  19  22
ATOM     22  O   UNL     1      -1.546  12.425  23.017  0.00  0.00    +0.000 OA
ATOM     23  H   UNL     1      -2.122  12.902  22.396  0.00  0.00    +0.000 HD
ENDBRANCH  19  22
ENDBRANCH  14  16
ENDBRANCH   1  13
BRANCH   9  24
ATOM     24  C   UNL     1       7.185   4.564  15.910  0.00  0.00    +0.000 C 
BRANCH  24  25
ATOM     25  C   UNL     1       7.039   4.546  14.430  0.00  0.00    +0.000 A 
ATOM     26  C   UNL     1       6.279   3.791  13.559  0.00  0.00    +0.000 A 
ATOM     27  C   UNL     1       6.650   4.190  12.253  0.00  0.00    +0.000 A 
ATOM     28  C   UNL     1       7.595   5.177  12.408  0.00  0.00    +0.000 A 
ATOM     29  O   UNL     1       7.836   5.401  13.725  0.00  0.00    +0.000 OA
ENDBRANCH  24  25
ENDBRANCH   9  24
TORSDOF 5
ENDMDL
MODEL 6
REMARK VINA RESULT:      -8.3      0.957      1.514
REMARK  Name = 
REMARK  5 active torsions:
REMARK  status: ('A' for Active; 'I' for Inactive)
REMARK    1  A    between atoms: C_2  and  C_11
REMARK    2  A    between atoms: N_3  and  C_4
REMARK    3  A    between atoms: C_7  and  O_8
REMARK    4  A    between atoms: N_19  and  C_20
REMARK    5  A    between atoms: C_20  and  C_21
REMARK                            x       y       z     vdW  Elec       q    Type
REMARK                         _______ _______ _______ _____ _____    ______ ____
ROOT
ATOM      1  C   UNL     1       2.316   8.201  18.421  0.00  0.00    +0.000 A 
ATOM      2  C   UNL     1       2.183   7.283  19.490  0.00  0.00    +0.000 A 
ATOM      3  C   UNL     1       3.051   6.186  19.600  0.00  0.00    +0.000 A 
ATOM      4  C   UNL     1       4.020   6.039  18.625  0.00  0.00    +0.000 A 
ATOM      5  C   UNL     1       4.156   6.940  17.587  0.00  0.00    +0.000 A 
ATOM      6  C   UNL     1       3.325   8.033  17.457  0.00  0.00    +0.000 A 
ATOM      7  C   UNL     1       5.268   6.491  16.750  0.00  0.00    +0.000 C 
ATOM      8  O   UNL     1       5.690   7.113  15.797  0.00  0.00    +0.000 OA
ATOM      9  N   UNL     1       5.715   5.322  17.299  0.00  0.00    +0.000 N 
ATOM     10  C   UNL     1       5.036   5.001  18.441  0.00  0.00    +0.000 C 
ATOM     11  O   UNL     1       5.205   4.071  19.205  0.00  0.00    +0.000 OA
ENDROOT
BRANCH   1  13
ATOM     12  O   UNL     1       1.808  10.440  18.098  0.00  0.00    +0.000 OA
ATOM     13  C   UNL     1       1.345   9.308  18.206  0.00  0.00    +0.000 C 
ATOM     14  N   UNL     1       0.006   8.965  18.186  0.00  0.00    +0.000 N 
ATOM     15  H   UNL     1      -0.250   8.034  18.488  0.00  0.00    +0.000 HD
BRANCH  14  16
ATOM     16  C   UNL     1      -1.067   9.859  17.957  0.00  0.00    +0.000 A 
ATOM     17  C   UNL     1      -1.420  10.879  18.848  0.00  0.00    +0.000 A 
ATOM     18  C   UNL     1      -2.515  11.709  18.592  0.00  0.00    +0.000 A 
ATOM     19  C   UNL     1      -3.257  11.521  17.435  0.00  0.00    +0.000 A 
ATOM     20  C   UNL     1      -2.908  10.533  16.522  0.00  0.00    +0.000 A 
ATOM     21  C   UNL     1      -1.807   9.709  16.778  0.00  0.00    +0.000 A 
BRANCH  19  22
ATOM     22  O   UNL     1      -4.345  12.293  17.159  0.00  0.00    +0.000 OA
ATOM     23  H   UNL     1      -4.073  13.003  16.554  0.00  0.00    +0.000 HD
ENDBRANCH  19  22
ENDBRANCH  14  16
ENDBRANCH   1  13
BRANCH   9  24
ATOM     24  C   UNL     1       6.836   4.569  16.786  0.00  0.00    +0.000 C 
BRANCH  24  25
ATOM     25  C   UNL     1       6.746   4.449  15.307  0.00  0.00    +0.000 A 
ATOM     26  C   UNL     1       5.940   3.715  14.460  0.00  0.00    +0.000 A 
ATOM     27  C   UNL     1       6.405   3.965  13.146  0.00  0.00    +0.000 A 
ATOM     28  C   UNL     1       7.448   4.851  13.272  0.00  0.00    +0.000 A 
ATOM     29  O   UNL     1       7.662   5.152  14.578  0.00  0.00    +0.000 OA
ENDBRANCH  24  25
ENDBRANCH   9  24
TORSDOF 5
ENDMDL
MODEL 7
REMARK VINA RESULT:      -8.3      0.854      1.057
REMARK  Name = 
REMARK  5 active torsions:
REMARK  status: ('A' for Active; 'I' for Inactive)
REMARK    1  A    between atoms: C_2  and  C_11
REMARK    2  A    between atoms: N_3  and  C_4
REMARK    3  A    between atoms: C_7  and  O_8
REMARK    4  A    between atoms: N_19  and  C_20
REMARK    5  A    between atoms: C_20  and  C_21
REMARK                            x       y       z     vdW  Elec       q    Type
REMARK                         _______ _______ _______ _____ _____    ______ ____
ROOT
ATOM      1  C   UNL     1       2.349   7.978  18.582  0.00  0.00    +0.000 A 
ATOM      2  C   UNL     1       2.224   6.977  19.576  0.00  0.00    +0.000 A 
ATOM      3  C   UNL     1       3.112   5.891  19.610  0.00  0.00    +0.000 A 
ATOM      4  C   UNL     1       4.094   5.838  18.637  0.00  0.00    +0.000 A 
ATOM      5  C   UNL     1       4.221   6.820  17.673  0.00  0.00    +0.000 A 
ATOM      6  C   UNL     1       3.370   7.904  17.619  0.00  0.00    +0.000 A 
ATOM      7  C   UNL     1       5.350   6.459  16.817  0.00  0.00    +0.000 C 
ATOM      8  O   UNL     1       5.769   7.161  15.919  0.00  0.00    +0.000 OA
ATOM      9  N   UNL     1       5.814   5.259  17.277  0.00  0.00    +0.000 N 
ATOM     10  C   UNL     1       5.131   4.837  18.384  0.00  0.00    +0.000 C 
ATOM     11  O   UNL     1       5.311   3.854  19.075  0.00  0.00    +0.000 OA
ENDROOT
BRANCH   1  13
ATOM     12  O   UNL     1       0.666   9.078  17.430  0.00  0.00    +0.000 OA
ATOM     13  C   UNL     1       1.359   9.080  18.443  0.00  0.00    +0.000 C 
ATOM     14  N   UNL     1       1.338  10.027  19.449  0.00  0.00    +0.000 N 
ATOM     15  H   UNL     1       2.095  10.024  20.120  0.00  0.00    +0.000 HD
BRANCH  14  16
ATOM     16  C   UNL     1       0.450  11.126  19.524  0.00  0.00    +0.000 A 
ATOM     17  C   UNL     1       0.798  12.422  19.128  0.00  0.00    +0.000 A 
ATOM     18  C   UNL     1      -0.106  13.480  19.261  0.00  0.00    +0.000 A 
ATOM     19  C   UNL     1      -1.367  13.239  19.787  0.00  0.00    +0.000 A 
ATOM     20  C   UNL     1      -1.744  11.954  20.159  0.00  0.00    +0.000 A 
ATOM     21  C   UNL     1      -0.840  10.896  20.019  0.00  0.00    +0.000 A 
BRANCH  19  22
ATOM     22  O   UNL     1      -2.269  14.246  19.954  0.00  0.00    +0.000 OA
ATOM     23  H   UNL     1      -2.276  14.788  19.148  0.00  0.00    +0.000 HD
ENDBRANCH  19  22
ENDBRANCH  14  16
ENDBRANCH   1  13
BRANCH   9  24
ATOM     24  C   UNL     1       6.955   4.569  16.721  0.00  0.00    +0.000 C 
BRANCH  24  25
ATOM     25  C   UNL     1       6.816   4.446  15.245  0.00  0.00    +0.000 A 
ATOM     26  C   UNL     1       5.988   3.704  14.427  0.00  0.00    +0.000 A 
ATOM     27  C   UNL     1       6.405   3.956  13.098  0.00  0.00    +0.000 A 
ATOM     28  C   UNL     1       7.445   4.851  13.187  0.00  0.00    +0.000 A 
ATOM     29  O   UNL     1       7.700   5.156  14.485  0.00  0.00    +0.000 OA
ENDBRANCH  24  25
ENDBRANCH   9  24
TORSDOF 5
ENDMDL
MODEL 8
REMARK VINA RESULT:      -8.3      3.692     10.150
REMARK  Name = 
REMARK  5 active torsions:
REMARK  status: ('A' for Active; 'I' for Inactive)
REMARK    1  A    between atoms: C_2  and  C_11
REMARK    2  A    between atoms: N_3  and  C_4
REMARK    3  A    between atoms: C_7  and  O_8
REMARK    4  A    between atoms: N_19  and  C_20
REMARK    5  A    between atoms: C_20  and  C_21
REMARK                            x       y       z     vdW  Elec       q    Type
REMARK                         _______ _______ _______ _____ _____    ______ ____
ROOT
ATOM      1  C   UNL     1       1.667   7.956  19.876  0.00  0.00    +0.000 A 
ATOM      2  C   UNL     1       1.767   8.716  18.686  0.00  0.00    +0.000 A 
ATOM      3  C   UNL     1       1.344  10.054  18.658  0.00  0.00    +0.000 A 
ATOM      4  C   UNL     1       0.824  10.585  19.824  0.00  0.00    +0.000 A 
ATOM      5  C   UNL     1       0.736   9.845  20.988  0.00  0.00    +0.000 A 
ATOM      6  C   UNL     1       1.151   8.531  21.050  0.00  0.00    +0.000 A 
ATOM      7  C   UNL     1       0.149  10.703  22.017  0.00  0.00    +0.000 C 
ATOM      8  O   UNL     1       0.011  10.369  23.176  0.00  0.00    +0.000 OA
ATOM      9  N   UNL     1      -0.127  11.896  21.411  0.00  0.00    +0.000 N 
ATOM     10  C   UNL     1       0.275  11.912  20.105  0.00  0.00    +0.000 C 
ATOM     11  O   UNL     1       0.234  12.817  19.295  0.00  0.00    +0.000 OA
ENDROOT
BRANCH   1  13
ATOM     12  O   UNL     1       1.778   5.915  20.969  0.00  0.00    +0.000 OA
ATOM     13  C   UNL     1       1.995   6.505  19.915  0.00  0.00    +0.000 C 
ATOM     14  N   UNL     1       2.553   5.963  18.772  0.00  0.00    +0.000 N 
ATOM     15  H   UNL     1       2.866   6.598  18.049  0.00  0.00    +0.000 HD
BRANCH  14  16
ATOM     16  C   UNL     1       2.898   4.603  18.593  0.00  0.00    +0.000 A 
ATOM     17  C   UNL     1       2.167   3.726  17.784  0.00  0.00    +0.000 A 
ATOM     18  C   UNL     1       2.530   2.381  17.673  0.00  0.00    +0.000 A 
ATOM     19  C   UNL     1       3.634   1.911  18.370  0.00  0.00    +0.000 A 
ATOM     20  C   UNL     1       4.391   2.771  19.156  0.00  0.00    +0.000 A 
ATOM     21  C   UNL     1       4.031   4.119  19.260  0.00  0.00    +0.000 A 
BRANCH  19  22
ATOM     22  O   UNL     1       4.007   0.603  18.308  0.00  0.00    +0.000 OA
ATOM     23  H   UNL     1       4.969   0.552  18.435  0.00  0.00    +0.000 HD
ENDBRANCH  19  22
ENDBRANCH  14  16
ENDBRANCH   1  13
BRANCH   9  24
ATOM     24  C   UNL     1      -0.687  13.037  22.098  0.00  0.00    +0.000 C 
BRANCH  24  25
ATOM     25  C   UNL     1      -2.161  12.888  22.233  0.00  0.00    +0.000 A 
ATOM     26  C   UNL     1      -3.204  12.908  21.329  0.00  0.00    +0.000 A 
ATOM     27  C   UNL     1      -4.395  12.799  22.089  0.00  0.00    +0.000 A 
ATOM     28  C   UNL     1      -4.002  12.698  23.402  0.00  0.00    +0.000 A 
ATOM     29  O   UNL     1      -2.650  12.748  23.500  0.00  0.00    +0.000 OA
ENDBRANCH  24  25
ENDBRANCH   9  24
TORSDOF 5
ENDMDL
MODEL 9
REMARK VINA RESULT:      -8.2      3.622     10.067
REMARK  Name = 
REMARK  5 active torsions:
REMARK  status: ('A' for Active; 'I' for Inactive)
REMARK    1  A    between atoms: C_2  and  C_11
REMARK    2  A    between atoms: N_3  and  C_4
REMARK    3  A    between atoms: C_7  and  O_8
REMARK    4  A    between atoms: N_19  and  C_20
REMARK    5  A    between atoms: C_20  and  C_21
REMARK                            x       y       z     vdW  Elec       q    Type
REMARK                         _______ _______ _______ _____ _____    ______ ____
ROOT
ATOM      1  C   UNL     1       1.712   8.015  19.755  0.00  0.00    +0.000 A 
ATOM      2  C   UNL     1       1.850   8.704  18.526  0.00  0.00    +0.000 A 
ATOM      3  C   UNL     1       1.435  10.039  18.406  0.00  0.00    +0.000 A 
ATOM      4  C   UNL     1       0.883  10.638  19.524  0.00  0.00    +0.000 A 
ATOM      5  C   UNL     1       0.757   9.969  20.726  0.00  0.00    +0.000 A 
ATOM      6  C   UNL     1       1.164   8.660  20.878  0.00  0.00    +0.000 A 
ATOM      7  C   UNL     1       0.145  10.888  21.684  0.00  0.00    +0.000 C 
ATOM      8  O   UNL     1      -0.030  10.623  22.857  0.00  0.00    +0.000 OA
ATOM      9  N   UNL     1      -0.109  12.044  21.002  0.00  0.00    +0.000 N 
ATOM     10  C   UNL     1       0.332  11.982  19.709  0.00  0.00    +0.000 C 
ATOM     11  O   UNL     1       0.319  12.837  18.846  0.00  0.00    +0.000 OA
ENDROOT
BRANCH   1  13
ATOM     12  O   UNL     1       1.724   6.027  20.948  0.00  0.00    +0.000 OA
ATOM     13  C   UNL     1       2.032   6.568  19.890  0.00  0.00    +0.000 C 
ATOM     14  N   UNL     1       2.684   5.975  18.825  0.00  0.00    +0.000 N 
ATOM     15  H   UNL     1       3.058   6.576  18.102  0.00  0.00    +0.000 HD
BRANCH  14  16
ATOM     16  C   UNL     1       3.040   4.608  18.739  0.00  0.00    +0.000 A 
ATOM     17  C   UNL     1       4.109   4.048  19.446  0.00  0.00    +0.000 A 
ATOM     18  C   UNL     1       4.443   2.699  19.293  0.00  0.00    +0.000 A 
ATOM     19  C   UNL     1       3.699   1.905  18.433  0.00  0.00    +0.000 A 
ATOM     20  C   UNL     1       2.615   2.433  17.743  0.00  0.00    +0.000 A 
ATOM     21  C   UNL     1       2.278   3.781  17.903  0.00  0.00    +0.000 A 
BRANCH  19  22
ATOM     22  O   UNL     1       4.005   0.592  18.239  0.00  0.00    +0.000 OA
ATOM     23  H   UNL     1       4.907   0.436  18.566  0.00  0.00    +0.000 HD
ENDBRANCH  19  22
ENDBRANCH  14  16
ENDBRANCH   1  13
BRANCH   9  24
ATOM     24  C   UNL     1      -0.684  13.225  21.604  0.00  0.00    +0.000 C 
BRANCH  24  25
ATOM     25  C   UNL     1      -2.162  13.094  21.692  0.00  0.00    +0.000 A 
ATOM     26  C   UNL     1      -3.030  12.798  22.723  0.00  0.00    +0.000 A 
ATOM     27  C   UNL     1      -4.324  12.734  22.153  0.00  0.00    +0.000 A 
ATOM     28  C   UNL     1      -4.168  13.016  20.817  0.00  0.00    +0.000 A 
ATOM     29  O   UNL     1      -2.861  13.238  20.528  0.00  0.00    +0.000 OA
ENDBRANCH  24  25
ENDBRANCH   9  24
TORSDOF 5
ENDMDL
