MODEL 1
REMARK VINA RESULT:      -5.5      0.000      0.000
REMARK  Name = 
REMARK  16 active torsions:
REMARK  status: ('A' for Active; 'I' for Inactive)
REMARK    1  A    between atoms: C_1  and  C_2
REMARK    2  A    between atoms: C_2  and  C_3
REMARK    3  A    between atoms: C_3  and  C_4
REMARK    4  A    between atoms: C_4  and  C_5
REMARK    5  A    between atoms: C_5  and  C_6
REMARK    6  A    between atoms: C_6  and  C_7
REMARK    7  A    between atoms: C_7  and  C_8
REMARK    8  A    between atoms: C_8  and  C_9
REMARK    9  A    between atoms: C_9  and  C_10
REMARK   10  A    between atoms: C_10  and  N_11
REMARK   11  A    between atoms: N_11  and  C_12
REMARK   12  A    between atoms: C_12  and  C_13
REMARK   13  A    between atoms: C_13  and  S_14
REMARK   14  A    between atoms: S_14  and  S_15
REMARK   15  A    between atoms: S_15  and  C_16
REMARK   16  A    between atoms: C_16  and  C_17
REMARK                            x       y       z     vdW  Elec       q    Type
REMARK                         _______ _______ _______ _____ _____    ______ ____
ROOT
ATOM      1  N   UNL     1       2.599   6.177  19.551  0.00  0.00    +0.000 NA
ATOM      2  H   UNL     1       2.638   6.946  20.262  0.00  0.00    +0.000 HD
ENDROOT
BRANCH   1   3
ATOM      3  C   UNL     1       2.155   6.741  18.270  0.00  0.00    +0.000 C 
BRANCH   3   4
ATOM      4  C   UNL     1       3.060   7.899  17.846  0.00  0.00    +0.000 C 
BRANCH   4   5
ATOM      5  C   UNL     1       2.305   9.234  17.847  0.00  0.00    +0.000 C 
BRANCH   5   6
ATOM      6  C   UNL     1       0.973   9.080  18.574  0.00  0.00    +0.000 C 
BRANCH   6   7
ATOM      7  C   UNL     1       0.224  10.419  18.652  0.00  0.00    +0.000 C 
BRANCH   7   8
ATOM      8  C   UNL     1      -1.299  10.232  18.698  0.00  0.00    +0.000 C 
BRANCH   8   9
ATOM      9  C   UNL     1      -1.917  10.051  17.302  0.00  0.00    +0.000 C 
BRANCH   9  10
ATOM     10  C   UNL     1      -2.646  11.319  16.861  0.00  0.00    +0.000 C 
BRANCH  10  12
ATOM     11  C   UNL     1      -3.017   9.977  14.770  0.00  0.00    +0.000 C 
ATOM     12  C   UNL     1      -3.612  11.015  15.715  0.00  0.00    +0.000 C 
ENDBRANCH  10  12
ENDBRANCH   9  10
ENDBRANCH   8   9
ENDBRANCH   7   8
ENDBRANCH   6   7
ENDBRANCH   5   6
ENDBRANCH   4   5
ENDBRANCH   3   4
ENDBRANCH   1   3
BRANCH   1  13
ATOM     13  C   UNL     1       1.665   5.148  20.007  0.00  0.00    +0.000 C 
BRANCH  13  14
ATOM     14  C   UNL     1       2.156   4.526  21.311  0.00  0.00    +0.000 C 
BRANCH  14  15
ATOM     15  S   UNL     1       2.218   2.714  21.128  0.00  0.00    +0.000 S 
BRANCH  15  16
ATOM     16  S   UNL     1       1.594   2.780  19.091  0.00  0.00    +0.000 S 
BRANCH  16  17
ATOM     17  C   UNL     1       3.174   2.119  18.469  0.00  0.00    +0.000 C 
BRANCH  17  18
ATOM     18  C   UNL     1       4.101   3.256  18.134  0.00  0.00    +0.000 A 
ATOM     19  C   UNL     1       5.029   3.727  19.079  0.00  0.00    +0.000 A 
ATOM     20  C   UNL     1       5.884   4.787  18.759  0.00  0.00    +0.000 A 
ATOM     21  C   UNL     1       5.821   5.385  17.497  0.00  0.00    +0.000 A 
ATOM     22 CL   UNL     1       6.892   6.716  17.100  0.00  0.00    +0.000 Cl
ATOM     23  C   UNL     1       4.903   4.917  16.551  0.00  0.00    +0.000 A 
ATOM     24  C   UNL     1       4.048   3.859  16.867  0.00  0.00    +0.000 A 
ENDBRANCH  17  18
ENDBRANCH  16  17
ENDBRANCH  15  16
ENDBRANCH  14  15
ENDBRANCH  13  14
ENDBRANCH   1  13
TORSDOF 15
ENDMDL
MODEL 2
REMARK VINA RESULT:      -5.5      3.951      7.475
REMARK  Name = 
REMARK  16 active torsions:
REMARK  status: ('A' for Active; 'I' for Inactive)
REMARK    1  A    between atoms: C_1  and  C_2
REMARK    2  A    between atoms: C_2  and  C_3
REMARK    3  A    between atoms: C_3  and  C_4
REMARK    4  A    between atoms: C_4  and  C_5
REMARK    5  A    between atoms: C_5  and  C_6
REMARK    6  A    between atoms: C_6  and  C_7
REMARK    7  A    between atoms: C_7  and  C_8
REMARK    8  A    between atoms: C_8  and  C_9
REMARK    9  A    between atoms: C_9  and  C_10
REMARK   10  A    between atoms: C_10  and  N_11
REMARK   11  A    between atoms: N_11  and  C_12
REMARK   12  A    between atoms: C_12  and  C_13
REMARK   13  A    between atoms: C_13  and  S_14
REMARK   14  A    between atoms: S_14  and  S_15
REMARK   15  A    between atoms: S_15  and  C_16
REMARK   16  A    between atoms: C_16  and  C_17
REMARK                            x       y       z     vdW  Elec       q    Type
REMARK                         _______ _______ _______ _____ _____    ______ ____
ROOT
ATOM      1  N   UNL     1       7.097   4.786  18.311  0.00  0.00    +0.000 NA
ATOM      2  H   UNL     1       7.919   4.700  18.955  0.00  0.00    +0.000 HD
ENDROOT
BRANCH   1   3
ATOM      3  C   UNL     1       7.341   5.894  17.379  0.00  0.00    +0.000 C 
BRANCH   3   4
ATOM      4  C   UNL     1       6.022   6.445  16.837  0.00  0.00    +0.000 C 
BRANCH   4   5
ATOM      5  C   UNL     1       5.806   6.052  15.371  0.00  0.00    +0.000 C 
BRANCH   5   6
ATOM      6  C   UNL     1       6.822   4.991  14.960  0.00  0.00    +0.000 C 
BRANCH   6   7
ATOM      7  C   UNL     1       6.133   3.780  14.314  0.00  0.00    +0.000 C 
BRANCH   7   8
ATOM      8  C   UNL     1       6.393   3.699  12.803  0.00  0.00    +0.000 C 
BRANCH   8   9
ATOM      9  C   UNL     1       5.097   3.589  11.983  0.00  0.00    +0.000 C 
BRANCH   9  10
ATOM     10  C   UNL     1       4.971   2.207  11.347  0.00  0.00    +0.000 C 
BRANCH  10  12
ATOM     11  C   UNL     1       6.187   0.010  11.266  0.00  0.00    +0.000 C 
ATOM     12  C   UNL     1       6.338   1.527  11.258  0.00  0.00    +0.000 C 
ENDBRANCH  10  12
ENDBRANCH   9  10
ENDBRANCH   8   9
ENDBRANCH   7   8
ENDBRANCH   6   7
ENDBRANCH   5   6
ENDBRANCH   4   5
ENDBRANCH   3   4
ENDBRANCH   1   3
BRANCH   1  13
ATOM     13  C   UNL     1       5.892   5.040  19.102  0.00  0.00    +0.000 C 
BRANCH  13  14
ATOM     14  C   UNL     1       5.108   3.748  19.305  0.00  0.00    +0.000 C 
BRANCH  14  15
ATOM     15  S   UNL     1       4.532   3.133  17.689  0.00  0.00    +0.000 S 
BRANCH  15  16
ATOM     16  S   UNL     1       3.260   1.665  18.567  0.00  0.00    +0.000 S 
BRANCH  16  17
ATOM     17  C   UNL     1       1.737   2.574  18.149  0.00  0.00    +0.000 C 
BRANCH  17  18
ATOM     18  C   UNL     1       1.783   3.947  18.763  0.00  0.00    +0.000 A 
ATOM     19  C   UNL     1       2.056   5.077  17.972  0.00  0.00    +0.000 A 
ATOM     20  C   UNL     1       2.100   6.350  18.552  0.00  0.00    +0.000 A 
ATOM     21  C   UNL     1       1.872   6.505  19.922  0.00  0.00    +0.000 A 
ATOM     22 CL   UNL     1       1.932   8.101  20.648  0.00  0.00    +0.000 Cl
ATOM     23  C   UNL     1       1.595   5.385  20.713  0.00  0.00    +0.000 A 
ATOM     24  C   UNL     1       1.551   4.114  20.137  0.00  0.00    +0.000 A 
ENDBRANCH  17  18
ENDBRANCH  16  17
ENDBRANCH  15  16
ENDBRANCH  14  15
ENDBRANCH  13  14
ENDBRANCH   1  13
TORSDOF 15
ENDMDL
MODEL 3
REMARK VINA RESULT:      -5.5      3.229      7.273
REMARK  Name = 
REMARK  16 active torsions:
REMARK  status: ('A' for Active; 'I' for Inactive)
REMARK    1  A    between atoms: C_1  and  C_2
REMARK    2  A    between atoms: C_2  and  C_3
REMARK    3  A    between atoms: C_3  and  C_4
REMARK    4  A    between atoms: C_4  and  C_5
REMARK    5  A    between atoms: C_5  and  C_6
REMARK    6  A    between atoms: C_6  and  C_7
REMARK    7  A    between atoms: C_7  and  C_8
REMARK    8  A    between atoms: C_8  and  C_9
REMARK    9  A    between atoms: C_9  and  C_10
REMARK   10  A    between atoms: C_10  and  N_11
REMARK   11  A    between atoms: N_11  and  C_12
REMARK   12  A    between atoms: C_12  and  C_13
REMARK   13  A    between atoms: C_13  and  S_14
REMARK   14  A    between atoms: S_14  and  S_15
REMARK   15  A    between atoms: S_15  and  C_16
REMARK   16  A    between atoms: C_16  and  C_17
REMARK                            x       y       z     vdW  Elec       q    Type
REMARK                         _______ _______ _______ _____ _____    ______ ____
ROOT
ATOM      1  N   UNL     1       6.861   5.136  19.770  0.00  0.00    +0.000 NA
ATOM      2  H   UNL     1       6.370   5.994  20.117  0.00  0.00    +0.000 HD
ENDROOT
BRANCH   1   3
ATOM      3  C   UNL     1       7.863   5.537  18.774  0.00  0.00    +0.000 C 
BRANCH   3   4
ATOM      4  C   UNL     1       7.572   6.944  18.250  0.00  0.00    +0.000 C 
BRANCH   4   5
ATOM      5  C   UNL     1       7.295   6.938  16.742  0.00  0.00    +0.000 C 
BRANCH   5   6
ATOM      6  C   UNL     1       5.811   6.703  16.483  0.00  0.00    +0.000 C 
BRANCH   6   7
ATOM      7  C   UNL     1       5.582   5.407  15.692  0.00  0.00    +0.000 C 
BRANCH   7   8
ATOM      8  C   UNL     1       6.884   4.846  15.104  0.00  0.00    +0.000 C 
BRANCH   8   9
ATOM      9  C   UNL     1       6.751   4.469  13.620  0.00  0.00    +0.000 C 
BRANCH   9  10
ATOM     10  C   UNL     1       5.503   3.621  13.383  0.00  0.00    +0.000 C 
BRANCH  10  12
ATOM     11  C   UNL     1       5.825   1.935  11.549  0.00  0.00    +0.000 C 
ATOM     12  C   UNL     1       5.322   3.333  11.892  0.00  0.00    +0.000 C 
ENDBRANCH  10  12
ENDBRANCH   9  10
ENDBRANCH   8   9
ENDBRANCH   7   8
ENDBRANCH   6   7
ENDBRANCH   5   6
ENDBRANCH   4   5
ENDBRANCH   3   4
ENDBRANCH   1   3
BRANCH   1  13
ATOM     13  C   UNL     1       5.880   4.230  19.173  0.00  0.00    +0.000 C 
BRANCH  13  14
ATOM     14  C   UNL     1       4.475   4.810  19.301  0.00  0.00    +0.000 C 
BRANCH  14  15
ATOM     15  S   UNL     1       3.308   3.774  18.360  0.00  0.00    +0.000 S 
BRANCH  15  16
ATOM     16  S   UNL     1       1.602   4.608  19.330  0.00  0.00    +0.000 S 
BRANCH  16  17
ATOM     17  C   UNL     1       2.575   5.895  20.178  0.00  0.00    +0.000 C 
BRANCH  17  18
ATOM     18  C   UNL     1       2.059   7.255  19.792  0.00  0.00    +0.000 A 
ATOM     19  C   UNL     1       2.261   7.756  18.494  0.00  0.00    +0.000 A 
ATOM     20  C   UNL     1       1.780   9.023  18.145  0.00  0.00    +0.000 A 
ATOM     21  C   UNL     1       1.097   9.799  19.087  0.00  0.00    +0.000 A 
ATOM     22 CL   UNL     1       0.499  11.388  18.648  0.00  0.00    +0.000 Cl
ATOM     23  C   UNL     1       0.890   9.303  20.378  0.00  0.00    +0.000 A 
ATOM     24  C   UNL     1       1.368   8.039  20.729  0.00  0.00    +0.000 A 
ENDBRANCH  17  18
ENDBRANCH  16  17
ENDBRANCH  15  16
ENDBRANCH  14  15
ENDBRANCH  13  14
ENDBRANCH   1  13
TORSDOF 15
ENDMDL
MODEL 4
REMARK VINA RESULT:      -5.4      3.211      7.428
REMARK  Name = 
REMARK  16 active torsions:
REMARK  status: ('A' for Active; 'I' for Inactive)
REMARK    1  A    between atoms: C_1  and  C_2
REMARK    2  A    between atoms: C_2  and  C_3
REMARK    3  A    between atoms: C_3  and  C_4
REMARK    4  A    between atoms: C_4  and  C_5
REMARK    5  A    between atoms: C_5  and  C_6
REMARK    6  A    between atoms: C_6  and  C_7
REMARK    7  A    between atoms: C_7  and  C_8
REMARK    8  A    between atoms: C_8  and  C_9
REMARK    9  A    between atoms: C_9  and  C_10
REMARK   10  A    between atoms: C_10  and  N_11
REMARK   11  A    between atoms: N_11  and  C_12
REMARK   12  A    between atoms: C_12  and  C_13
REMARK   13  A    between atoms: C_13  and  S_14
REMARK   14  A    between atoms: S_14  and  S_15
REMARK   15  A    between atoms: S_15  and  C_16
REMARK   16  A    between atoms: C_16  and  C_17
REMARK                            x       y       z     vdW  Elec       q    Type
REMARK                         _______ _______ _______ _____ _____    ______ ____
ROOT
ATOM      1  N   UNL     1       6.018   3.878  18.971  0.00  0.00    +0.000 NA
ATOM      2  H   UNL     1       6.383   3.364  19.808  0.00  0.00    +0.000 HD
ENDROOT
BRANCH   1   3
ATOM      3  C   UNL     1       6.175   5.321  19.198  0.00  0.00    +0.000 C 
BRANCH   3   4
ATOM      4  C   UNL     1       7.517   5.811  18.653  0.00  0.00    +0.000 C 
BRANCH   4   5
ATOM      5  C   UNL     1       7.328   6.778  17.477  0.00  0.00    +0.000 C 
BRANCH   5   6
ATOM      6  C   UNL     1       6.135   6.346  16.631  0.00  0.00    +0.000 C 
BRANCH   6   7
ATOM      7  C   UNL     1       6.563   5.372  15.523  0.00  0.00    +0.000 C 
BRANCH   7   8
ATOM      8  C   UNL     1       5.472   4.340  15.202  0.00  0.00    +0.000 C 
BRANCH   8   9
ATOM      9  C   UNL     1       5.188   4.226  13.696  0.00  0.00    +0.000 C 
BRANCH   9  10
ATOM     10  C   UNL     1       6.359   3.567  12.969  0.00  0.00    +0.000 C 
BRANCH  10  12
ATOM     11  C   UNL     1       7.021   1.974  11.144  0.00  0.00    +0.000 C 
ATOM     12  C   UNL     1       5.854   2.628  11.872  0.00  0.00    +0.000 C 
ENDBRANCH  10  12
ENDBRANCH   9  10
ENDBRANCH   8   9
ENDBRANCH   7   8
ENDBRANCH   6   7
ENDBRANCH   5   6
ENDBRANCH   4   5
ENDBRANCH   3   4
ENDBRANCH   1   3
BRANCH   1  13
ATOM     13  C   UNL     1       4.608   3.542  18.777  0.00  0.00    +0.000 C 
BRANCH  13  14
ATOM     14  C   UNL     1       3.752   4.203  19.854  0.00  0.00    +0.000 C 
BRANCH  14  15
ATOM     15  S   UNL     1       1.994   3.865  19.517  0.00  0.00    +0.000 S 
BRANCH  15  16
ATOM     16  S   UNL     1       1.873   5.365  18.007  0.00  0.00    +0.000 S 
BRANCH  16  17
ATOM     17  C   UNL     1       2.887   6.551  18.948  0.00  0.00    +0.000 C 
BRANCH  17  18
ATOM     18  C   UNL     1       2.129   7.839  19.120  0.00  0.00    +0.000 A 
ATOM     19  C   UNL     1       1.507   8.146  20.344  0.00  0.00    +0.000 A 
ATOM     20  C   UNL     1       0.801   9.345  20.494  0.00  0.00    +0.000 A 
ATOM     21  C   UNL     1       0.709  10.245  19.428  0.00  0.00    +0.000 A 
ATOM     22 CL   UNL     1      -0.179  11.745  19.617  0.00  0.00    +0.000 Cl
ATOM     23  C   UNL     1       1.331   9.947  18.211  0.00  0.00    +0.000 A 
ATOM     24  C   UNL     1       2.036   8.751  18.057  0.00  0.00    +0.000 A 
ENDBRANCH  17  18
ENDBRANCH  16  17
ENDBRANCH  15  16
ENDBRANCH  14  15
ENDBRANCH  13  14
ENDBRANCH   1  13
TORSDOF 15
ENDMDL
MODEL 5
REMARK VINA RESULT:      -5.4      2.481      3.299
REMARK  Name = 
REMARK  16 active torsions:
REMARK  status: ('A' for Active; 'I' for Inactive)
REMARK    1  A    between atoms: C_1  and  C_2
REMARK    2  A    between atoms: C_2  and  C_3
REMARK    3  A    between atoms: C_3  and  C_4
REMARK    4  A    between atoms: C_4  and  C_5
REMARK    5  A    between atoms: C_5  and  C_6
REMARK    6  A    between atoms: C_6  and  C_7
REMARK    7  A    between atoms: C_7  and  C_8
REMARK    8  A    between atoms: C_8  and  C_9
REMARK    9  A    between atoms: C_9  and  C_10
REMARK   10  A    between atoms: C_10  and  N_11
REMARK   11  A    between atoms: N_11  and  C_12
REMARK   12  A    between atoms: C_12  and  C_13
REMARK   13  A    between atoms: C_13  and  S_14
REMARK   14  A    between atoms: S_14  and  S_15
REMARK   15  A    between atoms: S_15  and  C_16
REMARK   16  A    between atoms: C_16  and  C_17
REMARK                            x       y       z     vdW  Elec       q    Type
REMARK                         _______ _______ _______ _____ _____    ______ ____
ROOT
ATOM      1  N   UNL     1       1.261   4.953  20.550  0.00  0.00    +0.000 NA
ATOM      2  H   UNL     1       1.108   4.709  19.542  0.00  0.00    +0.000 HD
ENDROOT
BRANCH   1   3
ATOM      3  C   UNL     1       1.940   6.253  20.621  0.00  0.00    +0.000 C 
BRANCH   3   4
ATOM      4  C   UNL     1       2.808   6.479  19.382  0.00  0.00    +0.000 C 
BRANCH   4   5
ATOM      5  C   UNL     1       2.002   7.101  18.236  0.00  0.00    +0.000 C 
BRANCH   5   6
ATOM      6  C   UNL     1       2.710   8.348  17.716  0.00  0.00    +0.000 C 
BRANCH   6   7
ATOM      7  C   UNL     1       1.865   9.608  17.953  0.00  0.00    +0.000 C 
BRANCH   7   8
ATOM      8  C   UNL     1       0.921   9.459  19.154  0.00  0.00    +0.000 C 
BRANCH   8   9
ATOM      9  C   UNL     1       0.444  10.812  19.706  0.00  0.00    +0.000 C 
BRANCH   9  10
ATOM     10  C   UNL     1      -0.715  10.623  20.683  0.00  0.00    +0.000 C 
BRANCH  10  12
ATOM     11  C   UNL     1      -0.653  10.082  23.136  0.00  0.00    +0.000 C 
ATOM     12  C   UNL     1      -0.333  11.129  22.076  0.00  0.00    +0.000 C 
ENDBRANCH  10  12
ENDBRANCH   9  10
ENDBRANCH   8   9
ENDBRANCH   7   8
ENDBRANCH   6   7
ENDBRANCH   5   6
ENDBRANCH   4   5
ENDBRANCH   3   4
ENDBRANCH   1   3
BRANCH   1  13
ATOM     13  C   UNL     1       2.079   3.915  21.177  0.00  0.00    +0.000 C 
BRANCH  13  14
ATOM     14  C   UNL     1       2.269   2.741  20.222  0.00  0.00    +0.000 C 
BRANCH  14  15
ATOM     15  S   UNL     1       3.958   2.787  19.540  0.00  0.00    +0.000 S 
BRANCH  15  16
ATOM     16  S   UNL     1       3.288   3.384  17.606  0.00  0.00    +0.000 S 
BRANCH  16  17
ATOM     17  C   UNL     1       4.953   3.274  16.873  0.00  0.00    +0.000 C 
BRANCH  17  18
ATOM     18  C   UNL     1       5.689   4.567  17.096  0.00  0.00    +0.000 A 
ATOM     19  C   UNL     1       6.856   4.602  17.880  0.00  0.00    +0.000 A 
ATOM     20  C   UNL     1       7.533   5.809  18.084  0.00  0.00    +0.000 A 
ATOM     21  C   UNL     1       7.052   6.990  17.510  0.00  0.00    +0.000 A 
ATOM     22 CL   UNL     1       7.900   8.503  17.771  0.00  0.00    +0.000 Cl
ATOM     23  C   UNL     1       5.895   6.961  16.725  0.00  0.00    +0.000 A 
ATOM     24  C   UNL     1       5.217   5.757  16.519  0.00  0.00    +0.000 A 
ENDBRANCH  17  18
ENDBRANCH  16  17
ENDBRANCH  15  16
ENDBRANCH  14  15
ENDBRANCH  13  14
ENDBRANCH   1  13
TORSDOF 15
ENDMDL
MODEL 6
REMARK VINA RESULT:      -5.3      1.212      2.032
REMARK  Name = 
REMARK  16 active torsions:
REMARK  status: ('A' for Active; 'I' for Inactive)
REMARK    1  A    between atoms: C_1  and  C_2
REMARK    2  A    between atoms: C_2  and  C_3
REMARK    3  A    between atoms: C_3  and  C_4
REMARK    4  A    between atoms: C_4  and  C_5
REMARK    5  A    between atoms: C_5  and  C_6
REMARK    6  A    between atoms: C_6  and  C_7
REMARK    7  A    between atoms: C_7  and  C_8
REMARK    8  A    between atoms: C_8  and  C_9
REMARK    9  A    between atoms: C_9  and  C_10
REMARK   10  A    between atoms: C_10  and  N_11
REMARK   11  A    between atoms: N_11  and  C_12
REMARK   12  A    between atoms: C_12  and  C_13
REMARK   13  A    between atoms: C_13  and  S_14
REMARK   14  A    between atoms: S_14  and  S_15
REMARK   15  A    between atoms: S_15  and  C_16
REMARK   16  A    between atoms: C_16  and  C_17
REMARK                            x       y       z     vdW  Elec       q    Type
REMARK                         _______ _______ _______ _____ _____    ______ ____
ROOT
ATOM      1  N   UNL     1       2.542   7.057  18.069  0.00  0.00    +0.000 NA
ATOM      2  H   UNL     1       3.297   6.700  17.435  0.00  0.00    +0.000 HD
ENDROOT
BRANCH   1   3
ATOM      3  C   UNL     1       2.427   8.510  17.894  0.00  0.00    +0.000 C 
BRANCH   3   4
ATOM      4  C   UNL     1       1.491   9.108  18.946  0.00  0.00    +0.000 C 
BRANCH   4   5
ATOM      5  C   UNL     1       0.439  10.024  18.308  0.00  0.00    +0.000 C 
BRANCH   5   6
ATOM      6  C   UNL     1       0.709  11.475  18.690  0.00  0.00    +0.000 C 
BRANCH   6   7
ATOM      7  C   UNL     1      -0.600  12.236  18.948  0.00  0.00    +0.000 C 
BRANCH   7   8
ATOM      8  C   UNL     1      -1.789  11.290  19.166  0.00  0.00    +0.000 C 
BRANCH   8   9
ATOM      9  C   UNL     1      -2.967  11.592  18.226  0.00  0.00    +0.000 C 
BRANCH   9  10
ATOM     10  C   UNL     1      -3.582  10.300  17.692  0.00  0.00    +0.000 C 
BRANCH  10  12
ATOM     11  C   UNL     1      -2.832  10.640  15.319  0.00  0.00    +0.000 C 
ATOM     12  C   UNL     1      -2.742   9.738  16.544  0.00  0.00    +0.000 C 
ENDBRANCH  10  12
ENDBRANCH   9  10
ENDBRANCH   8   9
ENDBRANCH   7   8
ENDBRANCH   6   7
ENDBRANCH   5   6
ENDBRANCH   4   5
ENDBRANCH   3   4
ENDBRANCH   1   3
BRANCH   1  13
ATOM     13  C   UNL     1       2.888   6.735  19.454  0.00  0.00    +0.000 C 
BRANCH  13  14
ATOM     14  C   UNL     1       2.133   5.492  19.914  0.00  0.00    +0.000 C 
BRANCH  14  15
ATOM     15  S   UNL     1       1.737   4.458  18.467  0.00  0.00    +0.000 S 
BRANCH  15  16
ATOM     16  S   UNL     1       3.042   2.888  19.084  0.00  0.00    +0.000 S 
BRANCH  16  17
ATOM     17  C   UNL     1       4.008   2.935  17.539  0.00  0.00    +0.000 C 
BRANCH  17  18
ATOM     18  C   UNL     1       4.905   4.144  17.540  0.00  0.00    +0.000 A 
ATOM     19  C   UNL     1       4.978   4.983  16.414  0.00  0.00    +0.000 A 
ATOM     20  C   UNL     1       5.817   6.102  16.423  0.00  0.00    +0.000 A 
ATOM     21  C   UNL     1       6.588   6.394  17.552  0.00  0.00    +0.000 A 
ATOM     22 CL   UNL     1       7.641   7.796  17.559  0.00  0.00    +0.000 Cl
ATOM     23  C   UNL     1       6.515   5.566  18.677  0.00  0.00    +0.000 A 
ATOM     24  C   UNL     1       5.679   4.447  18.671  0.00  0.00    +0.000 A 
ENDBRANCH  17  18
ENDBRANCH  16  17
ENDBRANCH  15  16
ENDBRANCH  14  15
ENDBRANCH  13  14
ENDBRANCH   1  13
TORSDOF 15
ENDMDL
MODEL 7
REMARK VINA RESULT:      -5.3      3.343      7.196
REMARK  Name = 
REMARK  16 active torsions:
REMARK  status: ('A' for Active; 'I' for Inactive)
REMARK    1  A    between atoms: C_1  and  C_2
REMARK    2  A    between atoms: C_2  and  C_3
REMARK    3  A    between atoms: C_3  and  C_4
REMARK    4  A    between atoms: C_4  and  C_5
REMARK    5  A    between atoms: C_5  and  C_6
REMARK    6  A    between atoms: C_6  and  C_7
REMARK    7  A    between atoms: C_7  and  C_8
REMARK    8  A    between atoms: C_8  and  C_9
REMARK    9  A    between atoms: C_9  and  C_10
REMARK   10  A    between atoms: C_10  and  N_11
REMARK   11  A    between atoms: N_11  and  C_12
REMARK   12  A    between atoms: C_12  and  C_13
REMARK   13  A    between atoms: C_13  and  S_14
REMARK   14  A    between atoms: S_14  and  S_15
REMARK   15  A    between atoms: S_15  and  C_16
REMARK   16  A    between atoms: C_16  and  C_17
REMARK                            x       y       z     vdW  Elec       q    Type
REMARK                         _______ _______ _______ _____ _____    ______ ____
ROOT
ATOM      1  N   UNL     1       6.939   5.516  19.721  0.00  0.00    +0.000 NA
ATOM      2  H   UNL     1       6.344   6.379  19.738  0.00  0.00    +0.000 HD
ENDROOT
BRANCH   1   3
ATOM      3  C   UNL     1       8.002   5.695  18.724  0.00  0.00    +0.000 C 
BRANCH   3   4
ATOM      4  C   UNL     1       7.885   7.063  18.050  0.00  0.00    +0.000 C 
BRANCH   4   5
ATOM      5  C   UNL     1       6.664   7.133  17.124  0.00  0.00    +0.000 C 
BRANCH   5   6
ATOM      6  C   UNL     1       6.681   5.962  16.148  0.00  0.00    +0.000 C 
BRANCH   6   7
ATOM      7  C   UNL     1       5.324   5.801  15.448  0.00  0.00    +0.000 C 
BRANCH   7   8
ATOM      8  C   UNL     1       5.179   4.434  14.763  0.00  0.00    +0.000 C 
BRANCH   8   9
ATOM      9  C   UNL     1       6.504   3.922  14.176  0.00  0.00    +0.000 C 
BRANCH   9  10
ATOM     10  C   UNL     1       6.508   4.043  12.653  0.00  0.00    +0.000 C 
BRANCH  10  12
ATOM     11  C   UNL     1       5.782   1.921  11.521  0.00  0.00    +0.000 C 
ATOM     12  C   UNL     1       5.330   3.278  12.049  0.00  0.00    +0.000 C 
ENDBRANCH  10  12
ENDBRANCH   9  10
ENDBRANCH   8   9
ENDBRANCH   7   8
ENDBRANCH   6   7
ENDBRANCH   5   6
ENDBRANCH   4   5
ENDBRANCH   3   4
ENDBRANCH   1   3
BRANCH   1  13
ATOM     13  C   UNL     1       6.104   4.364  19.375  0.00  0.00    +0.000 C 
BRANCH  13  14
ATOM     14  C   UNL     1       4.678   4.815  19.072  0.00  0.00    +0.000 C 
BRANCH  14  15
ATOM     15  S   UNL     1       3.646   3.354  18.728  0.00  0.00    +0.000 S 
BRANCH  15  16
ATOM     16  S   UNL     1       1.825   4.441  18.951  0.00  0.00    +0.000 S 
BRANCH  16  17
ATOM     17  C   UNL     1       2.418   5.853  17.962  0.00  0.00    +0.000 C 
BRANCH  17  18
ATOM     18  C   UNL     1       2.009   7.141  18.625  0.00  0.00    +0.000 A 
ATOM     19  C   UNL     1       1.812   7.201  20.016  0.00  0.00    +0.000 A 
ATOM     20  C   UNL     1       1.428   8.401  20.622  0.00  0.00    +0.000 A 
ATOM     21  C   UNL     1       1.238   9.550  19.848  0.00  0.00    +0.000 A 
ATOM     22 CL   UNL     1       0.753  11.053  20.610  0.00  0.00    +0.000 Cl
ATOM     23  C   UNL     1       1.438   9.498  18.465  0.00  0.00    +0.000 A 
ATOM     24  C   UNL     1       1.821   8.301  17.856  0.00  0.00    +0.000 A 
ENDBRANCH  17  18
ENDBRANCH  16  17
ENDBRANCH  15  16
ENDBRANCH  14  15
ENDBRANCH  13  14
ENDBRANCH   1  13
TORSDOF 15
ENDMDL
MODEL 8
REMARK VINA RESULT:      -5.3      3.423      8.230
REMARK  Name = 
REMARK  16 active torsions:
REMARK  status: ('A' for Active; 'I' for Inactive)
REMARK    1  A    between atoms: C_1  and  C_2
REMARK    2  A    between atoms: C_2  and  C_3
REMARK    3  A    between atoms: C_3  and  C_4
REMARK    4  A    between atoms: C_4  and  C_5
REMARK    5  A    between atoms: C_5  and  C_6
REMARK    6  A    between atoms: C_6  and  C_7
REMARK    7  A    between atoms: C_7  and  C_8
REMARK    8  A    between atoms: C_8  and  C_9
REMARK    9  A    between atoms: C_9  and  C_10
REMARK   10  A    between atoms: C_10  and  N_11
REMARK   11  A    between atoms: N_11  and  C_12
REMARK   12  A    between atoms: C_12  and  C_13
REMARK   13  A    between atoms: C_13  and  S_14
REMARK   14  A    between atoms: S_14  and  S_15
REMARK   15  A    between atoms: S_15  and  C_16
REMARK   16  A    between atoms: C_16  and  C_17
REMARK                            x       y       z     vdW  Elec       q    Type
REMARK                         _______ _______ _______ _____ _____    ______ ____
ROOT
ATOM      1  N   UNL     1       2.704   6.775  19.699  0.00  0.00    +0.000 NA
ATOM      2  H   UNL     1       3.708   6.972  19.928  0.00  0.00    +0.000 HD
ENDROOT
BRANCH   1   3
ATOM      3  C   UNL     1       2.589   6.530  18.255  0.00  0.00    +0.000 C 
BRANCH   3   4
ATOM      4  C   UNL     1       3.951   6.665  17.574  0.00  0.00    +0.000 C 
BRANCH   4   5
ATOM      5  C   UNL     1       4.509   5.299  17.156  0.00  0.00    +0.000 C 
BRANCH   5   6
ATOM      6  C   UNL     1       5.518   4.809  18.188  0.00  0.00    +0.000 C 
BRANCH   6   7
ATOM      7  C   UNL     1       4.901   3.747  19.110  0.00  0.00    +0.000 C 
BRANCH   7   8
ATOM      8  C   UNL     1       3.886   2.858  18.376  0.00  0.00    +0.000 C 
BRANCH   8   9
ATOM      9  C   UNL     1       2.743   2.385  19.288  0.00  0.00    +0.000 C 
BRANCH   9  10
ATOM     10  C   UNL     1       2.990   2.808  20.735  0.00  0.00    +0.000 C 
BRANCH  10  12
ATOM     11  C   UNL     1       0.783   3.869  20.173  0.00  0.00    +0.000 C 
ATOM     12  C   UNL     1       1.791   3.586  21.281  0.00  0.00    +0.000 C 
ENDBRANCH  10  12
ENDBRANCH   9  10
ENDBRANCH   8   9
ENDBRANCH   7   8
ENDBRANCH   6   7
ENDBRANCH   5   6
ENDBRANCH   4   5
ENDBRANCH   3   4
ENDBRANCH   1   3
BRANCH   1  13
ATOM     13  C   UNL     1       1.889   7.926  20.088  0.00  0.00    +0.000 C 
BRANCH  13  14
ATOM     14  C   UNL     1       1.067   7.597  21.331  0.00  0.00    +0.000 C 
BRANCH  14  15
ATOM     15  S   UNL     1      -0.077   8.972  21.678  0.00  0.00    +0.000 S 
BRANCH  15  16
ATOM     16  S   UNL     1       0.553  10.082  19.970  0.00  0.00    +0.000 S 
BRANCH  16  17
ATOM     17  C   UNL     1      -0.953  11.108  19.943  0.00  0.00    +0.000 C 
BRANCH  17  18
ATOM     18  C   UNL     1      -1.698  10.878  18.656  0.00  0.00    +0.000 A 
ATOM     19  C   UNL     1      -1.229   9.947  17.712  0.00  0.00    +0.000 A 
ATOM     20  C   UNL     1      -1.926   9.743  16.517  0.00  0.00    +0.000 A 
ATOM     21  C   UNL     1      -3.095  10.463  16.253  0.00  0.00    +0.000 A 
ATOM     22 CL   UNL     1      -3.966  10.207  14.753  0.00  0.00    +0.000 Cl
ATOM     23  C   UNL     1      -3.570  11.386  17.191  0.00  0.00    +0.000 A 
ATOM     24  C   UNL     1      -2.876  11.593  18.385  0.00  0.00    +0.000 A 
ENDBRANCH  17  18
ENDBRANCH  16  17
ENDBRANCH  15  16
ENDBRANCH  14  15
ENDBRANCH  13  14
ENDBRANCH   1  13
TORSDOF 15
ENDMDL
MODEL 9
REMARK VINA RESULT:      -5.2      3.073      7.608
REMARK  Name = 
REMARK  16 active torsions:
REMARK  status: ('A' for Active; 'I' for Inactive)
REMARK    1  A    between atoms: C_1  and  C_2
REMARK    2  A    between atoms: C_2  and  C_3
REMARK    3  A    between atoms: C_3  and  C_4
REMARK    4  A    between atoms: C_4  and  C_5
REMARK    5  A    between atoms: C_5  and  C_6
REMARK    6  A    between atoms: C_6  and  C_7
REMARK    7  A    between atoms: C_7  and  C_8
REMARK    8  A    between atoms: C_8  and  C_9
REMARK    9  A    between atoms: C_9  and  C_10
REMARK   10  A    between atoms: C_10  and  N_11
REMARK   11  A    between atoms: N_11  and  C_12
REMARK   12  A    between atoms: C_12  and  C_13
REMARK   13  A    between atoms: C_13  and  S_14
REMARK   14  A    between atoms: S_14  and  S_15
REMARK   15  A    between atoms: S_15  and  C_16
REMARK   16  A    between atoms: C_16  and  C_17
REMARK                            x       y       z     vdW  Elec       q    Type
REMARK                         _______ _______ _______ _____ _____    ______ ____
ROOT
ATOM      1  N   UNL     1       1.460   2.282  18.140  0.00  0.00    +0.000 NA
ATOM      2  H   UNL     1       1.176   1.680  18.950  0.00  0.00    +0.000 HD
ENDROOT
BRANCH   1   3
ATOM      3  C   UNL     1       2.849   1.965  17.782  0.00  0.00    +0.000 C 
BRANCH   3   4
ATOM      4  C   UNL     1       3.686   3.241  17.684  0.00  0.00    +0.000 C 
BRANCH   4   5
ATOM      5  C   UNL     1       4.694   3.342  18.836  0.00  0.00    +0.000 C 
BRANCH   5   6
ATOM      6  C   UNL     1       5.573   4.575  18.654  0.00  0.00    +0.000 C 
BRANCH   6   7
ATOM      7  C   UNL     1       5.706   4.949  17.171  0.00  0.00    +0.000 C 
BRANCH   7   8
ATOM      8  C   UNL     1       7.106   4.647  16.618  0.00  0.00    +0.000 C 
BRANCH   8   9
ATOM      9  C   UNL     1       7.165   4.712  15.083  0.00  0.00    +0.000 C 
BRANCH   9  10
ATOM     10  C   UNL     1       5.760   4.744  14.485  0.00  0.00    +0.000 C 
BRANCH  10  12
ATOM     11  C   UNL     1       6.559   3.816  12.292  0.00  0.00    +0.000 C 
ATOM     12  C   UNL     1       5.588   3.630  13.452  0.00  0.00    +0.000 C 
ENDBRANCH  10  12
ENDBRANCH   9  10
ENDBRANCH   8   9
ENDBRANCH   7   8
ENDBRANCH   6   7
ENDBRANCH   5   6
ENDBRANCH   4   5
ENDBRANCH   3   4
ENDBRANCH   1   3
BRANCH   1  13
ATOM     13  C   UNL     1       1.339   3.689  18.521  0.00  0.00    +0.000 C 
BRANCH  13  14
ATOM     14  C   UNL     1       0.845   3.808  19.960  0.00  0.00    +0.000 C 
BRANCH  14  15
ATOM     15  S   UNL     1       2.114   4.646  20.964  0.00  0.00    +0.000 S 
BRANCH  15  16
ATOM     16  S   UNL     1       2.245   6.304  19.629  0.00  0.00    +0.000 S 
BRANCH  16  17
ATOM     17  C   UNL     1       1.724   7.507  20.895  0.00  0.00    +0.000 C 
BRANCH  17  18
ATOM     18  C   UNL     1       1.077   8.691  20.230  0.00  0.00    +0.000 A 
ATOM     19  C   UNL     1       1.484   9.106  18.950  0.00  0.00    +0.000 A 
ATOM     20  C   UNL     1       0.879  10.211  18.341  0.00  0.00    +0.000 A 
ATOM     21  C   UNL     1      -0.135  10.910  19.003  0.00  0.00    +0.000 A 
ATOM     22 CL   UNL     1      -0.889  12.296  18.239  0.00  0.00    +0.000 Cl
ATOM     23  C   UNL     1      -0.548  10.499  20.274  0.00  0.00    +0.000 A 
ATOM     24  C   UNL     1       0.054   9.396  20.885  0.00  0.00    +0.000 A 
ENDBRANCH  17  18
ENDBRANCH  16  17
ENDBRANCH  15  16
ENDBRANCH  14  15
ENDBRANCH  13  14
ENDBRANCH   1  13
TORSDOF 15
ENDMDL
