MODEL 1
REMARK VINA RESULT:      -7.5      0.000      0.000
REMARK  Name = 
REMARK  5 active torsions:
REMARK  status: ('A' for Active; 'I' for Inactive)
REMARK    1  A    between atoms: C_1  and  C_2
REMARK    2  A    between atoms: C_2  and  O_3
REMARK    3  A    between atoms: O_3  and  C_4
REMARK    4  A    between atoms: N_6  and  C_7
REMARK    5  A    between atoms: N_11  and  C_12
REMARK                            x       y       z     vdW  Elec       q    Type
REMARK                         _______ _______ _______ _____ _____    ______ ____
ROOT
ATOM      1  C   UNL     1       5.998   6.005  16.323  0.00  0.00    +0.000 C 
ATOM      2  C   UNL     1       7.190   6.022  17.291  0.00  0.00    +0.000 C 
ATOM      3  C   UNL     1       6.970   5.149  18.529  0.00  0.00    +0.000 C 
ATOM      4  C   UNL     1       5.641   5.466  19.214  0.00  0.00    +0.000 C 
ATOM      5  N   UNL     1       4.573   5.303  18.227  0.00  0.00    +0.000 N 
ATOM      6  C   UNL     1       4.660   6.219  17.072  0.00  0.00    +0.000 C 
ENDROOT
BRANCH   5   7
ATOM      7  C   UNL     1       3.451   4.541  18.482  0.00  0.00    +0.000 A 
ATOM      8  C   UNL     1       2.472   4.249  17.524  0.00  0.00    +0.000 A 
ATOM      9  N   UNL     1       1.320   3.557  17.734  0.00  0.00    +0.000 NA
ATOM     10  C   UNL     1       1.115   3.110  18.988  0.00  0.00    +0.000 A 
ATOM     11  C   UNL     1       2.010   3.317  20.020  0.00  0.00    +0.000 A 
ATOM     12 BR   UNL     1       1.628   2.658  21.745  0.00  0.00    +0.000 Br
ATOM     13  C   UNL     1       3.182   4.028  19.762  0.00  0.00    +0.000 A 
ENDBRANCH   5   7
BRANCH   1  16
ATOM     14  C   UNL     1       6.785   4.646  14.439  0.00  0.00    +0.000 C 
ATOM     15  O   UNL     1       7.635   5.452  14.090  0.00  0.00    +0.000 OA
ATOM     16  N   UNL     1       5.995   4.775  15.541  0.00  0.00    +0.000 N 
ATOM     17  H   UNL     1       5.160   4.207  15.520  0.00  0.00    +0.000 HD
BRANCH  14  18
ATOM     18  O   UNL     1       6.420   3.536  13.760  0.00  0.00    +0.000 OA
BRANCH  18  20
ATOM     19  C   UNL     1       5.050   3.198  11.841  0.00  0.00    +0.000 C 
ATOM     20  C   UNL     1       6.406   3.663  12.331  0.00  0.00    +0.000 C 
ENDBRANCH  18  20
ENDBRANCH  14  18
ENDBRANCH   1  16
TORSDOF 4
ENDMDL
MODEL 2
REMARK VINA RESULT:      -6.8      3.171      4.684
REMARK  Name = 
REMARK  5 active torsions:
REMARK  status: ('A' for Active; 'I' for Inactive)
REMARK    1  A    between atoms: C_1  and  C_2
REMARK    2  A    between atoms: C_2  and  O_3
REMARK    3  A    between atoms: O_3  and  C_4
REMARK    4  A    between atoms: N_6  and  C_7
REMARK    5  A    between atoms: N_11  and  C_12
REMARK                            x       y       z     vdW  Elec       q    Type
REMARK                         _______ _______ _______ _____ _____    ______ ____
ROOT
ATOM      1  C   UNL     1       5.035   4.289  18.629  0.00  0.00    +0.000 C 
ATOM      2  C   UNL     1       4.255   3.165  17.931  0.00  0.00    +0.000 C 
ATOM      3  C   UNL     1       2.955   3.651  17.284  0.00  0.00    +0.000 C 
ATOM      4  C   UNL     1       2.098   4.448  18.268  0.00  0.00    +0.000 C 
ATOM      5  N   UNL     1       2.908   5.555  18.777  0.00  0.00    +0.000 N 
ATOM      6  C   UNL     1       4.108   5.142  19.531  0.00  0.00    +0.000 C 
ENDROOT
BRANCH   5   7
ATOM      7  C   UNL     1       2.451   6.857  18.773  0.00  0.00    +0.000 A 
ATOM      8  C   UNL     1       2.547   7.713  17.668  0.00  0.00    +0.000 A 
ATOM      9  N   UNL     1       2.170   9.020  17.625  0.00  0.00    +0.000 NA
ATOM     10  C   UNL     1       1.652   9.527  18.761  0.00  0.00    +0.000 A 
ATOM     11  C   UNL     1       1.490   8.784  19.914  0.00  0.00    +0.000 A 
ATOM     12 BR   UNL     1       0.763   9.588  21.457  0.00  0.00    +0.000 Br
ATOM     13  C   UNL     1       1.884   7.446  19.915  0.00  0.00    +0.000 A 
ENDBRANCH   5   7
BRANCH   1  16
ATOM     14  C   UNL     1       7.103   5.170  17.650  0.00  0.00    +0.000 C 
ATOM     15  O   UNL     1       7.837   4.483  18.346  0.00  0.00    +0.000 OA
ATOM     16  N   UNL     1       5.742   5.103  17.649  0.00  0.00    +0.000 N 
ATOM     17  H   UNL     1       5.288   5.920  17.267  0.00  0.00    +0.000 HD
BRANCH  14  18
ATOM     18  O   UNL     1       7.497   6.166  16.826  0.00  0.00    +0.000 OA
BRANCH  18  20
ATOM     19  C   UNL     1       8.136   8.129  18.016  0.00  0.00    +0.000 C 
ATOM     20  C   UNL     1       7.047   7.480  17.187  0.00  0.00    +0.000 C 
ENDBRANCH  18  20
ENDBRANCH  14  18
ENDBRANCH   1  16
TORSDOF 4
ENDMDL
MODEL 3
REMARK VINA RESULT:      -6.7      1.228      1.257
REMARK  Name = 
REMARK  5 active torsions:
REMARK  status: ('A' for Active; 'I' for Inactive)
REMARK    1  A    between atoms: C_1  and  C_2
REMARK    2  A    between atoms: C_2  and  O_3
REMARK    3  A    between atoms: O_3  and  C_4
REMARK    4  A    between atoms: N_6  and  C_7
REMARK    5  A    between atoms: N_11  and  C_12
REMARK                            x       y       z     vdW  Elec       q    Type
REMARK                         _______ _______ _______ _____ _____    ______ ____
ROOT
ATOM      1  C   UNL     1       6.721   6.531  16.861  0.00  0.00    +0.000 C 
ATOM      2  C   UNL     1       7.825   6.673  17.919  0.00  0.00    +0.000 C 
ATOM      3  C   UNL     1       7.752   5.600  19.009  0.00  0.00    +0.000 C 
ATOM      4  C   UNL     1       6.353   5.506  19.617  0.00  0.00    +0.000 C 
ATOM      5  N   UNL     1       5.405   5.255  18.531  0.00  0.00    +0.000 N 
ATOM      6  C   UNL     1       5.333   6.327  17.518  0.00  0.00    +0.000 C 
ENDROOT
BRANCH   5   7
ATOM      7  C   UNL     1       4.481   4.231  18.589  0.00  0.00    +0.000 A 
ATOM      8  C   UNL     1       4.219   3.355  17.527  0.00  0.00    +0.000 A 
ATOM      9  N   UNL     1       3.281   2.371  17.507  0.00  0.00    +0.000 NA
ATOM     10  C   UNL     1       2.541   2.232  18.625  0.00  0.00    +0.000 A 
ATOM     11  C   UNL     1       2.710   3.021  19.746  0.00  0.00    +0.000 A 
ATOM     12 BR   UNL     1       1.617   2.754  21.259  0.00  0.00    +0.000 Br
ATOM     13  C   UNL     1       3.686   4.017  19.728  0.00  0.00    +0.000 A 
ENDBRANCH   5   7
BRANCH   1  16
ATOM     14  C   UNL     1       6.250   5.209  14.851  0.00  0.00    +0.000 C 
ATOM     15  O   UNL     1       5.308   5.905  14.499  0.00  0.00    +0.000 OA
ATOM     16  N   UNL     1       7.046   5.461  15.927  0.00  0.00    +0.000 N 
ATOM     17  H   UNL     1       7.560   4.657  16.258  0.00  0.00    +0.000 HD
BRANCH  14  18
ATOM     18  O   UNL     1       6.617   4.033  14.295  0.00  0.00    +0.000 OA
BRANCH  18  20
ATOM     19  C   UNL     1       5.738   3.240  12.226  0.00  0.00    +0.000 C 
ATOM     20  C   UNL     1       6.832   4.062  12.876  0.00  0.00    +0.000 C 
ENDBRANCH  18  20
ENDBRANCH  14  18
ENDBRANCH   1  16
TORSDOF 4
ENDMDL
MODEL 4
REMARK VINA RESULT:      -6.7      3.234      4.649
REMARK  Name = 
REMARK  5 active torsions:
REMARK  status: ('A' for Active; 'I' for Inactive)
REMARK    1  A    between atoms: C_1  and  C_2
REMARK    2  A    between atoms: C_2  and  O_3
REMARK    3  A    between atoms: O_3  and  C_4
REMARK    4  A    between atoms: N_6  and  C_7
REMARK    5  A    between atoms: N_11  and  C_12
REMARK                            x       y       z     vdW  Elec       q    Type
REMARK                         _______ _______ _______ _____ _____    ______ ____
ROOT
ATOM      1  C   UNL     1       5.308   4.158  18.211  0.00  0.00    +0.000 C 
ATOM      2  C   UNL     1       4.547   3.217  17.266  0.00  0.00    +0.000 C 
ATOM      3  C   UNL     1       3.145   3.724  16.916  0.00  0.00    +0.000 C 
ATOM      4  C   UNL     1       2.346   4.085  18.168  0.00  0.00    +0.000 C 
ATOM      5  N   UNL     1       3.116   5.071  18.927  0.00  0.00    +0.000 N 
ATOM      6  C   UNL     1       4.425   4.588  19.409  0.00  0.00    +0.000 C 
ENDROOT
BRANCH   5   7
ATOM      7  C   UNL     1       2.557   6.254  19.367  0.00  0.00    +0.000 A 
ATOM      8  C   UNL     1       1.934   6.406  20.612  0.00  0.00    +0.000 A 
ATOM      9  N   UNL     1       1.315   7.526  21.072  0.00  0.00    +0.000 NA
ATOM     10  C   UNL     1       1.311   8.587  20.242  0.00  0.00    +0.000 A 
ATOM     11  C   UNL     1       1.904   8.572  18.994  0.00  0.00    +0.000 A 
ATOM     12 BR   UNL     1       1.838  10.107  17.901  0.00  0.00    +0.000 Br
ATOM     13  C   UNL     1       2.533   7.405  18.561  0.00  0.00    +0.000 A 
ENDBRANCH   5   7
BRANCH   1  16
ATOM     14  C   UNL     1       7.108   5.311  17.011  0.00  0.00    +0.000 C 
ATOM     15  O   UNL     1       7.867   4.353  17.036  0.00  0.00    +0.000 OA
ATOM     16  N   UNL     1       5.829   5.305  17.478  0.00  0.00    +0.000 N 
ATOM     17  H   UNL     1       5.453   6.223  17.667  0.00  0.00    +0.000 HD
BRANCH  14  18
ATOM     18  O   UNL     1       7.422   6.559  16.597  0.00  0.00    +0.000 OA
BRANCH  18  20
ATOM     19  C   UNL     1       8.121   8.446  17.873  0.00  0.00    +0.000 C 
ATOM     20  C   UNL     1       6.930   7.625  17.423  0.00  0.00    +0.000 C 
ENDBRANCH  18  20
ENDBRANCH  14  18
ENDBRANCH   1  16
TORSDOF 4
ENDMDL
MODEL 5
REMARK VINA RESULT:      -6.6      3.007      3.897
REMARK  Name = 
REMARK  5 active torsions:
REMARK  status: ('A' for Active; 'I' for Inactive)
REMARK    1  A    between atoms: C_1  and  C_2
REMARK    2  A    between atoms: C_2  and  O_3
REMARK    3  A    between atoms: O_3  and  C_4
REMARK    4  A    between atoms: N_6  and  C_7
REMARK    5  A    between atoms: N_11  and  C_12
REMARK                            x       y       z     vdW  Elec       q    Type
REMARK                         _______ _______ _______ _____ _____    ______ ____
ROOT
ATOM      1  C   UNL     1       5.065   4.246  18.305  0.00  0.00    +0.000 C 
ATOM      2  C   UNL     1       4.145   3.017  18.260  0.00  0.00    +0.000 C 
ATOM      3  C   UNL     1       2.670   3.380  18.075  0.00  0.00    +0.000 C 
ATOM      4  C   UNL     1       2.215   4.428  19.091  0.00  0.00    +0.000 C 
ATOM      5  N   UNL     1       3.090   5.593  18.961  0.00  0.00    +0.000 N 
ATOM      6  C   UNL     1       4.511   5.330  19.263  0.00  0.00    +0.000 C 
ENDROOT
BRANCH   5   7
ATOM      7  C   UNL     1       2.589   6.872  18.821  0.00  0.00    +0.000 A 
ATOM      8  C   UNL     1       2.729   7.641  17.659  0.00  0.00    +0.000 A 
ATOM      9  N   UNL     1       2.311   8.924  17.486  0.00  0.00    +0.000 NA
ATOM     10  C   UNL     1       1.700   9.497  18.541  0.00  0.00    +0.000 A 
ATOM     11  C   UNL     1       1.486   8.842  19.738  0.00  0.00    +0.000 A 
ATOM     12 BR   UNL     1       0.629   9.735  21.160  0.00  0.00    +0.000 Br
ATOM     13  C   UNL     1       1.926   7.526  19.873  0.00  0.00    +0.000 A 
ENDBRANCH   5   7
BRANCH   1  16
ATOM     14  C   UNL     1       6.549   4.881  16.459  0.00  0.00    +0.000 C 
ATOM     15  O   UNL     1       7.559   4.455  16.999  0.00  0.00    +0.000 OA
ATOM     16  N   UNL     1       5.288   4.766  16.963  0.00  0.00    +0.000 N 
ATOM     17  H   UNL     1       4.625   5.419  16.571  0.00  0.00    +0.000 HD
BRANCH  14  18
ATOM     18  O   UNL     1       6.506   5.609  15.321  0.00  0.00    +0.000 OA
BRANCH  18  20
ATOM     19  C   UNL     1       5.965   3.912  13.738  0.00  0.00    +0.000 C 
ATOM     20  C   UNL     1       6.994   4.945  14.146  0.00  0.00    +0.000 C 
ENDBRANCH  18  20
ENDBRANCH  14  18
ENDBRANCH   1  16
TORSDOF 4
ENDMDL
MODEL 6
REMARK VINA RESULT:      -6.6      3.379      4.740
REMARK  Name = 
REMARK  5 active torsions:
REMARK  status: ('A' for Active; 'I' for Inactive)
REMARK    1  A    between atoms: C_1  and  C_2
REMARK    2  A    between atoms: C_2  and  O_3
REMARK    3  A    between atoms: O_3  and  C_4
REMARK    4  A    between atoms: N_6  and  C_7
REMARK    5  A    between atoms: N_11  and  C_12
REMARK                            x       y       z     vdW  Elec       q    Type
REMARK                         _______ _______ _______ _____ _____    ______ ____
ROOT
ATOM      1  C   UNL     1       6.986   4.435  17.416  0.00  0.00    +0.000 C 
ATOM      2  C   UNL     1       6.751   4.190  15.919  0.00  0.00    +0.000 C 
ATOM      3  C   UNL     1       5.509   4.907  15.381  0.00  0.00    +0.000 C 
ATOM      4  C   UNL     1       4.275   4.613  16.234  0.00  0.00    +0.000 C 
ATOM      5  N   UNL     1       4.578   4.993  17.614  0.00  0.00    +0.000 N 
ATOM      6  C   UNL     1       5.684   4.235  18.231  0.00  0.00    +0.000 C 
ENDROOT
BRANCH   5   7
ATOM      7  C   UNL     1       3.739   5.806  18.350  0.00  0.00    +0.000 A 
ATOM      8  C   UNL     1       3.210   5.454  19.598  0.00  0.00    +0.000 A 
ATOM      9  N   UNL     1       2.334   6.186  20.338  0.00  0.00    +0.000 NA
ATOM     10  C   UNL     1       1.947   7.363  19.808  0.00  0.00    +0.000 A 
ATOM     11  C   UNL     1       2.407   7.832  18.593  0.00  0.00    +0.000 A 
ATOM     12 BR   UNL     1       1.799   9.490  17.933  0.00  0.00    +0.000 Br
ATOM     13  C   UNL     1       3.308   7.053  17.868  0.00  0.00    +0.000 A 
ENDBRANCH   5   7
BRANCH   1  16
ATOM     14  C   UNL     1       8.110   6.089  18.835  0.00  0.00    +0.000 C 
ATOM     15  O   UNL     1       8.282   5.315  19.765  0.00  0.00    +0.000 OA
ATOM     16  N   UNL     1       7.567   5.754  17.631  0.00  0.00    +0.000 N 
ATOM     17  H   UNL     1       7.215   6.540  17.103  0.00  0.00    +0.000 HD
BRANCH  14  18
ATOM     18  O   UNL     1       8.347   7.420  18.858  0.00  0.00    +0.000 OA
BRANCH  18  20
ATOM     19  C   UNL     1       8.289   9.598  17.894  0.00  0.00    +0.000 C 
ATOM     20  C   UNL     1       7.888   8.149  17.710  0.00  0.00    +0.000 C 
ENDBRANCH  18  20
ENDBRANCH  14  18
ENDBRANCH   1  16
TORSDOF 4
ENDMDL
MODEL 7
REMARK VINA RESULT:      -6.5      1.382      1.516
REMARK  Name = 
REMARK  5 active torsions:
REMARK  status: ('A' for Active; 'I' for Inactive)
REMARK    1  A    between atoms: C_1  and  C_2
REMARK    2  A    between atoms: C_2  and  O_3
REMARK    3  A    between atoms: O_3  and  C_4
REMARK    4  A    between atoms: N_6  and  C_7
REMARK    5  A    between atoms: N_11  and  C_12
REMARK                            x       y       z     vdW  Elec       q    Type
REMARK                         _______ _______ _______ _____ _____    ______ ____
ROOT
ATOM      1  C   UNL     1       6.111   6.154  16.410  0.00  0.00    +0.000 C 
ATOM      2  C   UNL     1       7.409   5.689  17.085  0.00  0.00    +0.000 C 
ATOM      3  C   UNL     1       7.164   4.803  18.309  0.00  0.00    +0.000 C 
ATOM      4  C   UNL     1       6.182   5.449  19.287  0.00  0.00    +0.000 C 
ATOM      5  N   UNL     1       4.946   5.740  18.559  0.00  0.00    +0.000 N 
ATOM      6  C   UNL     1       5.100   6.700  17.448  0.00  0.00    +0.000 C 
ENDROOT
BRANCH   5   7
ATOM      7  C   UNL     1       3.710   5.350  19.033  0.00  0.00    +0.000 A 
ATOM      8  C   UNL     1       2.956   6.093  19.950  0.00  0.00    +0.000 A 
ATOM      9  N   UNL     1       1.764   5.730  20.496  0.00  0.00    +0.000 NA
ATOM     10  C   UNL     1       1.269   4.539  20.104  0.00  0.00    +0.000 A 
ATOM     11  C   UNL     1       1.906   3.719  19.193  0.00  0.00    +0.000 A 
ATOM     12 BR   UNL     1       1.136   2.065  18.716  0.00  0.00    +0.000 Br
ATOM     13  C   UNL     1       3.125   4.130  18.654  0.00  0.00    +0.000 A 
ENDBRANCH   5   7
BRANCH   1  16
ATOM     14  C   UNL     1       6.078   4.755  14.396  0.00  0.00    +0.000 C 
ATOM     15  O   UNL     1       7.118   5.213  13.945  0.00  0.00    +0.000 OA
ATOM     16  N   UNL     1       5.542   5.080  15.606  0.00  0.00    +0.000 N 
ATOM     17  H   UNL     1       4.559   4.866  15.694  0.00  0.00    +0.000 HD
BRANCH  14  18
ATOM     18  O   UNL     1       5.236   3.918  13.750  0.00  0.00    +0.000 OA
BRANCH  18  20
ATOM     19  C   UNL     1       4.523   3.249  11.577  0.00  0.00    +0.000 C 
ATOM     20  C   UNL     1       5.715   3.405  12.498  0.00  0.00    +0.000 C 
ENDBRANCH  18  20
ENDBRANCH  14  18
ENDBRANCH   1  16
TORSDOF 4
ENDMDL
MODEL 8
REMARK VINA RESULT:      -6.4      2.869      4.069
REMARK  Name = 
REMARK  5 active torsions:
REMARK  status: ('A' for Active; 'I' for Inactive)
REMARK    1  A    between atoms: C_1  and  C_2
REMARK    2  A    between atoms: C_2  and  O_3
REMARK    3  A    between atoms: O_3  and  C_4
REMARK    4  A    between atoms: N_6  and  C_7
REMARK    5  A    between atoms: N_11  and  C_12
REMARK                            x       y       z     vdW  Elec       q    Type
REMARK                         _______ _______ _______ _____ _____    ______ ____
ROOT
ATOM      1  C   UNL     1       4.240   2.802  18.697  0.00  0.00    +0.000 C 
ATOM      2  C   UNL     1       3.110   1.763  18.680  0.00  0.00    +0.000 C 
ATOM      3  C   UNL     1       1.719   2.393  18.567  0.00  0.00    +0.000 C 
ATOM      4  C   UNL     1       1.507   3.487  19.614  0.00  0.00    +0.000 C 
ATOM      5  N   UNL     1       2.575   4.475  19.456  0.00  0.00    +0.000 N 
ATOM      6  C   UNL     1       3.935   3.951  19.690  0.00  0.00    +0.000 C 
ENDROOT
BRANCH   5   7
ATOM      7  C   UNL     1       2.311   5.826  19.352  0.00  0.00    +0.000 A 
ATOM      8  C   UNL     1       2.533   6.577  18.191  0.00  0.00    +0.000 A 
ATOM      9  N   UNL     1       2.350   7.917  18.050  0.00  0.00    +0.000 NA
ATOM     10  C   UNL     1       1.907   8.574  19.140  0.00  0.00    +0.000 A 
ATOM     11  C   UNL     1       1.634   7.948  20.341  0.00  0.00    +0.000 A 
ATOM     12 BR   UNL     1       1.026   8.958  21.813  0.00  0.00    +0.000 Br
ATOM     13  C   UNL     1       1.832   6.571  20.443  0.00  0.00    +0.000 A 
ENDBRANCH   5   7
BRANCH   1  16
ATOM     14  C   UNL     1       5.547   4.128  17.102  0.00  0.00    +0.000 C 
ATOM     15  O   UNL     1       6.418   4.417  17.910  0.00  0.00    +0.000 OA
ATOM     16  N   UNL     1       4.497   3.298  17.351  0.00  0.00    +0.000 N 
ATOM     17  H   UNL     1       3.724   3.405  16.710  0.00  0.00    +0.000 HD
BRANCH  14  18
ATOM     18  O   UNL     1       5.423   4.638  15.856  0.00  0.00    +0.000 OA
BRANCH  18  20
ATOM     19  C   UNL     1       6.067   3.915  13.679  0.00  0.00    +0.000 C 
ATOM     20  C   UNL     1       6.563   4.463  15.001  0.00  0.00    +0.000 C 
ENDBRANCH  18  20
ENDBRANCH  14  18
ENDBRANCH   1  16
TORSDOF 4
ENDMDL
MODEL 9
REMARK VINA RESULT:      -6.4      1.371      1.628
REMARK  Name = 
REMARK  5 active torsions:
REMARK  status: ('A' for Active; 'I' for Inactive)
REMARK    1  A    between atoms: C_1  and  C_2
REMARK    2  A    between atoms: C_2  and  O_3
REMARK    3  A    between atoms: O_3  and  C_4
REMARK    4  A    between atoms: N_6  and  C_7
REMARK    5  A    between atoms: N_11  and  C_12
REMARK                            x       y       z     vdW  Elec       q    Type
REMARK                         _______ _______ _______ _____ _____    ______ ____
ROOT
ATOM      1  C   UNL     1       5.864   5.982  16.209  0.00  0.00    +0.000 C 
ATOM      2  C   UNL     1       7.239   6.324  16.802  0.00  0.00    +0.000 C 
ATOM      3  C   UNL     1       7.569   5.513  18.057  0.00  0.00    +0.000 C 
ATOM      4  C   UNL     1       6.442   5.583  19.088  0.00  0.00    +0.000 C 
ATOM      5  N   UNL     1       5.212   5.125  18.442  0.00  0.00    +0.000 N 
ATOM      6  C   UNL     1       4.769   5.954  17.304  0.00  0.00    +0.000 C 
ENDROOT
BRANCH   5   7
ATOM      7  C   UNL     1       4.405   4.158  19.009  0.00  0.00    +0.000 A 
ATOM      8  C   UNL     1       4.876   3.153  19.864  0.00  0.00    +0.000 A 
ATOM      9  N   UNL     1       4.141   2.143  20.401  0.00  0.00    +0.000 NA
ATOM     10  C   UNL     1       2.834   2.119  20.075  0.00  0.00    +0.000 A 
ATOM     11  C   UNL     1       2.243   3.061  19.254  0.00  0.00    +0.000 A 
ATOM     12 BR   UNL     1       0.406   2.936  18.849  0.00  0.00    +0.000 Br
ATOM     13  C   UNL     1       3.031   4.084  18.727  0.00  0.00    +0.000 A 
ENDBRANCH   5   7
BRANCH   1  16
ATOM     14  C   UNL     1       6.649   4.633  14.318  0.00  0.00    +0.000 C 
ATOM     15  O   UNL     1       7.390   5.502  13.883  0.00  0.00    +0.000 OA
ATOM     16  N   UNL     1       5.927   4.728  15.469  0.00  0.00    +0.000 N 
ATOM     17  H   UNL     1       5.152   4.083  15.526  0.00  0.00    +0.000 HD
BRANCH  14  18
ATOM     18  O   UNL     1       6.347   3.468  13.702  0.00  0.00    +0.000 OA
BRANCH  18  20
ATOM     19  C   UNL     1       4.910   3.238  11.816  0.00  0.00    +0.000 C 
ATOM     20  C   UNL     1       6.329   3.515  12.267  0.00  0.00    +0.000 C 
ENDBRANCH  18  20
ENDBRANCH  14  18
ENDBRANCH   1  16
TORSDOF 4
ENDMDL
