MODEL 1
REMARK VINA RESULT:      -6.9      0.000      0.000
REMARK  Name = 
REMARK  8 active torsions:
REMARK  status: ('A' for Active; 'I' for Inactive)
REMARK    1  A    between atoms: C_2  and  C_3
REMARK    2  A    between atoms: C_2  and  C_16
REMARK    3  A    between atoms: C_3  and  N_4
REMARK    4  A    between atoms: N_7  and  C_8
REMARK    5  A    between atoms: C_8  and  C_9
REMARK    6  A    between atoms: C_16  and  O_17
REMARK    7  A    between atoms: C_16  and  C_18
REMARK    8  A    between atoms: C_16  and  C_24
REMARK                            x       y       z     vdW  Elec       q    Type
REMARK                         _______ _______ _______ _____ _____    ______ ____
ROOT
ATOM      1  O   UNL     1       2.595   7.829  17.982  0.00  0.00    +0.000 OA
ATOM      2  C   UNL     1       2.392   7.172  19.018  0.00  0.00    +0.000 C 
ENDROOT
BRANCH   2   3
ATOM      3  C   UNL     1       1.976   7.836  20.332  0.00  0.00    +0.000 C 
BRANCH   3   4
ATOM      4  N   UNL     1       0.678   8.524  20.201  0.00  0.00    +0.000 NA
ATOM      5  C   UNL     1      -0.145   8.460  21.430  0.00  0.00    +0.000 C 
ATOM      6  C   UNL     1       0.143   9.537  22.508  0.00  0.00    +0.000 C 
ATOM      7  N   UNL     1       0.238  10.921  21.994  0.00  0.00    +0.000 NA
ATOM      8  C   UNL     1       1.202  10.916  20.874  0.00  0.00    +0.000 C 
ATOM      9  C   UNL     1       0.851   9.918  19.749  0.00  0.00    +0.000 C 
BRANCH   7  10
ATOM     10  C   UNL     1      -1.105  11.396  21.592  0.00  0.00    +0.000 C 
BRANCH  10  11
ATOM     11  C   UNL     1      -1.739  12.330  22.586  0.00  0.00    +0.000 A 
ATOM     12  C   UNL     1      -2.911  12.166  23.297  0.00  0.00    +0.000 A 
ATOM     13  C   UNL     1      -3.212  13.291  24.117  0.00  0.00    +0.000 A 
ATOM     14  C   UNL     1      -2.255  14.276  24.014  0.00  0.00    +0.000 A 
ATOM     15  S   UNL     1      -1.008  13.846  22.929  0.00  0.00    +0.000 S 
ENDBRANCH  10  11
ENDBRANCH   7  10
ENDBRANCH   3   4
ENDBRANCH   2   3
BRANCH   2  16
ATOM     16  C   UNL     1       2.623   5.649  18.987  0.00  0.00    +0.000 C 
BRANCH  16  17
ATOM     17  C   UNL     1       4.045   5.322  18.521  0.00  0.00    +0.000 A 
ATOM     18  C   UNL     1       5.160   5.602  19.334  0.00  0.00    +0.000 A 
ATOM     19  C   UNL     1       6.457   5.323  18.897  0.00  0.00    +0.000 A 
ATOM     20  C   UNL     1       6.665   4.748  17.648  0.00  0.00    +0.000 A 
ATOM     21  C   UNL     1       5.573   4.439  16.840  0.00  0.00    +0.000 A 
ATOM     22  C   UNL     1       4.279   4.718  17.275  0.00  0.00    +0.000 A 
ENDBRANCH  16  17
BRANCH  16  23
ATOM     23  C   UNL     1       2.330   4.863  20.271  0.00  0.00    +0.000 C 
ATOM     24  C   UNL     1       0.901   4.299  20.541  0.00  0.00    +0.000 C 
ATOM     25  C   UNL     1       1.575   3.060  21.162  0.00  0.00    +0.000 C 
ATOM     26  C   UNL     1       2.812   3.380  20.306  0.00  0.00    +0.000 C 
ENDBRANCH  16  23
BRANCH  16  27
ATOM     27  O   UNL     1       1.677   5.211  17.982  0.00  0.00    +0.000 OA
ATOM     28  H   UNL     1       1.804   4.240  17.920  0.00  0.00    +0.000 HD
ENDBRANCH  16  27
ENDBRANCH   2  16
TORSDOF 8
ENDMDL
MODEL 2
REMARK VINA RESULT:      -6.8      1.115      3.035
REMARK  Name = 
REMARK  8 active torsions:
REMARK  status: ('A' for Active; 'I' for Inactive)
REMARK    1  A    between atoms: C_2  and  C_3
REMARK    2  A    between atoms: C_2  and  C_16
REMARK    3  A    between atoms: C_3  and  N_4
REMARK    4  A    between atoms: N_7  and  C_8
REMARK    5  A    between atoms: C_8  and  C_9
REMARK    6  A    between atoms: C_16  and  O_17
REMARK    7  A    between atoms: C_16  and  C_18
REMARK    8  A    between atoms: C_16  and  C_24
REMARK                            x       y       z     vdW  Elec       q    Type
REMARK                         _______ _______ _______ _____ _____    ______ ____
ROOT
ATOM      1  O   UNL     1       1.813   7.851  17.689  0.00  0.00    +0.000 OA
ATOM      2  C   UNL     1       2.225   7.439  18.788  0.00  0.00    +0.000 C 
ENDROOT
BRANCH   2   3
ATOM      3  C   UNL     1       1.962   8.197  20.090  0.00  0.00    +0.000 C 
BRANCH   3   4
ATOM      4  N   UNL     1       0.605   8.775  20.113  0.00  0.00    +0.000 NA
ATOM      5  C   UNL     1      -0.099   8.564  21.398  0.00  0.00    +0.000 C 
ATOM      6  C   UNL     1       0.192   9.597  22.518  0.00  0.00    +0.000 C 
ATOM      7  N   UNL     1       0.126  11.013  22.091  0.00  0.00    +0.000 NA
ATOM      8  C   UNL     1       0.985  11.159  20.899  0.00  0.00    +0.000 C 
ATOM      9  C   UNL     1       0.622  10.202  19.741  0.00  0.00    +0.000 C 
BRANCH   7  10
ATOM     10  C   UNL     1      -1.282  11.389  21.834  0.00  0.00    +0.000 C 
BRANCH  10  11
ATOM     11  C   UNL     1      -1.800  12.460  22.755  0.00  0.00    +0.000 A 
ATOM     12  C   UNL     1      -2.969  12.473  23.489  0.00  0.00    +0.000 A 
ATOM     13  C   UNL     1      -3.140  13.685  24.218  0.00  0.00    +0.000 A 
ATOM     14  C   UNL     1      -2.091  14.556  24.025  0.00  0.00    +0.000 A 
ATOM     15  S   UNL     1      -0.914  13.915  22.966  0.00  0.00    +0.000 S 
ENDBRANCH  10  11
ENDBRANCH   7  10
ENDBRANCH   3   4
ENDBRANCH   2   3
BRANCH   2  16
ATOM     16  C   UNL     1       3.077   6.156  18.825  0.00  0.00    +0.000 C 
BRANCH  16  17
ATOM     17  C   UNL     1       2.210   4.934  19.150  0.00  0.00    +0.000 A 
ATOM     18  C   UNL     1       1.924   4.578  20.481  0.00  0.00    +0.000 A 
ATOM     19  C   UNL     1       1.152   3.451  20.774  0.00  0.00    +0.000 A 
ATOM     20  C   UNL     1       0.642   2.667  19.745  0.00  0.00    +0.000 A 
ATOM     21  C   UNL     1       0.893   3.018  18.420  0.00  0.00    +0.000 A 
ATOM     22  C   UNL     1       1.663   4.142  18.128  0.00  0.00    +0.000 A 
ENDBRANCH  16  17
BRANCH  16  23
ATOM     23  C   UNL     1       3.933   5.839  17.593  0.00  0.00    +0.000 C 
ATOM     24  C   UNL     1       5.014   6.852  17.104  0.00  0.00    +0.000 C 
ATOM     25  C   UNL     1       5.901   5.641  16.753  0.00  0.00    +0.000 C 
ATOM     26  C   UNL     1       5.112   4.839  17.801  0.00  0.00    +0.000 C 
ENDBRANCH  16  23
BRANCH  16  27
ATOM     27  O   UNL     1       3.977   6.411  19.929  0.00  0.00    +0.000 OA
ATOM     28  H   UNL     1       3.678   7.266  20.308  0.00  0.00    +0.000 HD
ENDBRANCH  16  27
ENDBRANCH   2  16
TORSDOF 8
ENDMDL
MODEL 3
REMARK VINA RESULT:      -6.7      0.629      1.215
REMARK  Name = 
REMARK  8 active torsions:
REMARK  status: ('A' for Active; 'I' for Inactive)
REMARK    1  A    between atoms: C_2  and  C_3
REMARK    2  A    between atoms: C_2  and  C_16
REMARK    3  A    between atoms: C_3  and  N_4
REMARK    4  A    between atoms: N_7  and  C_8
REMARK    5  A    between atoms: C_8  and  C_9
REMARK    6  A    between atoms: C_16  and  O_17
REMARK    7  A    between atoms: C_16  and  C_18
REMARK    8  A    between atoms: C_16  and  C_24
REMARK                            x       y       z     vdW  Elec       q    Type
REMARK                         _______ _______ _______ _____ _____    ______ ____
ROOT
ATOM      1  O   UNL     1       2.729   7.995  18.174  0.00  0.00    +0.000 OA
ATOM      2  C   UNL     1       2.424   7.278  19.144  0.00  0.00    +0.000 C 
ENDROOT
BRANCH   2   3
ATOM      3  C   UNL     1       1.937   7.866  20.469  0.00  0.00    +0.000 C 
BRANCH   3   4
ATOM      4  N   UNL     1       0.635   8.541  20.313  0.00  0.00    +0.000 NA
ATOM      5  C   UNL     1      -0.192   8.509  21.541  0.00  0.00    +0.000 C 
ATOM      6  C   UNL     1       0.085   9.622  22.586  0.00  0.00    +0.000 C 
ATOM      7  N   UNL     1       0.172  10.990  22.028  0.00  0.00    +0.000 NA
ATOM      8  C   UNL     1       1.139  10.956  20.912  0.00  0.00    +0.000 C 
ATOM      9  C   UNL     1       0.799   9.921  19.817  0.00  0.00    +0.000 C 
BRANCH   7  10
ATOM     10  C   UNL     1      -1.173  11.442  21.608  0.00  0.00    +0.000 C 
BRANCH  10  11
ATOM     11  C   UNL     1      -1.747  12.525  22.479  0.00  0.00    +0.000 A 
ATOM     12  C   UNL     1      -1.080  13.467  23.237  0.00  0.00    +0.000 A 
ATOM     13  C   UNL     1      -1.969  14.308  23.966  0.00  0.00    +0.000 A 
ATOM     14  C   UNL     1      -3.288  13.990  23.734  0.00  0.00    +0.000 A 
ATOM     15  S   UNL     1      -3.450  12.680  22.649  0.00  0.00    +0.000 S 
ENDBRANCH  10  11
ENDBRANCH   7  10
ENDBRANCH   3   4
ENDBRANCH   2   3
BRANCH   2  16
ATOM     16  C   UNL     1       2.598   5.752  19.019  0.00  0.00    +0.000 C 
BRANCH  16  17
ATOM     17  C   UNL     1       3.999   5.402  18.506  0.00  0.00    +0.000 A 
ATOM     18  C   UNL     1       4.185   4.822  17.237  0.00  0.00    +0.000 A 
ATOM     19  C   UNL     1       5.462   4.483  16.782  0.00  0.00    +0.000 A 
ATOM     20  C   UNL     1       6.575   4.728  17.578  0.00  0.00    +0.000 A 
ATOM     21  C   UNL     1       6.414   5.324  18.826  0.00  0.00    +0.000 A 
ATOM     22  C   UNL     1       5.141   5.662  19.281  0.00  0.00    +0.000 A 
ENDBRANCH  16  17
BRANCH  16  23
ATOM     23  C   UNL     1       2.301   4.903  20.262  0.00  0.00    +0.000 C 
ATOM     24  C   UNL     1       0.883   4.293  20.479  0.00  0.00    +0.000 C 
ATOM     25  C   UNL     1       1.576   3.044  21.059  0.00  0.00    +0.000 C 
ATOM     26  C   UNL     1       2.819   3.432  20.242  0.00  0.00    +0.000 C 
ENDBRANCH  16  23
BRANCH  16  27
ATOM     27  O   UNL     1       1.618   5.408  18.011  0.00  0.00    +0.000 OA
ATOM     28  H   UNL     1       1.444   6.245  17.530  0.00  0.00    +0.000 HD
ENDBRANCH  16  27
ENDBRANCH   2  16
TORSDOF 8
ENDMDL
MODEL 4
REMARK VINA RESULT:      -6.7      1.277      3.269
REMARK  Name = 
REMARK  8 active torsions:
REMARK  status: ('A' for Active; 'I' for Inactive)
REMARK    1  A    between atoms: C_2  and  C_3
REMARK    2  A    between atoms: C_2  and  C_16
REMARK    3  A    between atoms: C_3  and  N_4
REMARK    4  A    between atoms: N_7  and  C_8
REMARK    5  A    between atoms: C_8  and  C_9
REMARK    6  A    between atoms: C_16  and  O_17
REMARK    7  A    between atoms: C_16  and  C_18
REMARK    8  A    between atoms: C_16  and  C_24
REMARK                            x       y       z     vdW  Elec       q    Type
REMARK                         _______ _______ _______ _____ _____    ______ ____
ROOT
ATOM      1  O   UNL     1       1.676   7.711  17.727  0.00  0.00    +0.000 OA
ATOM      2  C   UNL     1       2.195   7.365  18.803  0.00  0.00    +0.000 C 
ENDROOT
BRANCH   2   3
ATOM      3  C   UNL     1       2.038   8.189  20.082  0.00  0.00    +0.000 C 
BRANCH   3   4
ATOM      4  N   UNL     1       0.646   8.640  20.266  0.00  0.00    +0.000 NA
ATOM      5  C   UNL     1       0.128   8.398  21.631  0.00  0.00    +0.000 C 
ATOM      6  C   UNL     1       0.456   9.481  22.693  0.00  0.00    +0.000 C 
ATOM      7  N   UNL     1       0.205  10.873  22.259  0.00  0.00    +0.000 NA
ATOM      8  C   UNL     1       0.894  11.068  20.967  0.00  0.00    +0.000 C 
ATOM      9  C   UNL     1       0.483  10.054  19.877  0.00  0.00    +0.000 C 
BRANCH   7  10
ATOM     10  C   UNL     1      -1.253  11.113  22.174  0.00  0.00    +0.000 C 
BRANCH  10  11
ATOM     11  C   UNL     1      -1.699  12.379  22.852  0.00  0.00    +0.000 A 
ATOM     12  C   UNL     1      -0.975  13.530  23.092  0.00  0.00    +0.000 A 
ATOM     13  C   UNL     1      -1.729  14.509  23.800  0.00  0.00    +0.000 A 
ATOM     14  C   UNL     1      -3.008  14.080  24.071  0.00  0.00    +0.000 A 
ATOM     15  S   UNL     1      -3.293  12.503  23.479  0.00  0.00    +0.000 S 
ENDBRANCH  10  11
ENDBRANCH   7  10
ENDBRANCH   3   4
ENDBRANCH   2   3
BRANCH   2  16
ATOM     16  C   UNL     1       3.068   6.096  18.830  0.00  0.00    +0.000 C 
BRANCH  16  17
ATOM     17  C   UNL     1       2.229   4.862  19.176  0.00  0.00    +0.000 A 
ATOM     18  C   UNL     1       1.609   4.097  18.171  0.00  0.00    +0.000 A 
ATOM     19  C   UNL     1       0.826   2.986  18.493  0.00  0.00    +0.000 A 
ATOM     20  C   UNL     1       0.657   2.611  19.821  0.00  0.00    +0.000 A 
ATOM     21  C   UNL     1       1.284   3.340  20.829  0.00  0.00    +0.000 A 
ATOM     22  C   UNL     1       2.065   4.449  20.509  0.00  0.00    +0.000 A 
ENDBRANCH  16  17
BRANCH  16  23
ATOM     23  C   UNL     1       3.906   5.789  17.582  0.00  0.00    +0.000 C 
ATOM     24  C   UNL     1       4.949   6.824  17.059  0.00  0.00    +0.000 C 
ATOM     25  C   UNL     1       5.860   5.632  16.702  0.00  0.00    +0.000 C 
ATOM     26  C   UNL     1       5.114   4.821  17.774  0.00  0.00    +0.000 C 
ENDBRANCH  16  23
BRANCH  16  27
ATOM     27  O   UNL     1       3.986   6.372  19.915  0.00  0.00    +0.000 OA
ATOM     28  H   UNL     1       4.547   5.570  19.982  0.00  0.00    +0.000 HD
ENDBRANCH  16  27
ENDBRANCH   2  16
TORSDOF 8
ENDMDL
MODEL 5
REMARK VINA RESULT:      -6.7      0.876      1.624
REMARK  Name = 
REMARK  8 active torsions:
REMARK  status: ('A' for Active; 'I' for Inactive)
REMARK    1  A    between atoms: C_2  and  C_3
REMARK    2  A    between atoms: C_2  and  C_16
REMARK    3  A    between atoms: C_3  and  N_4
REMARK    4  A    between atoms: N_7  and  C_8
REMARK    5  A    between atoms: C_8  and  C_9
REMARK    6  A    between atoms: C_16  and  O_17
REMARK    7  A    between atoms: C_16  and  C_18
REMARK    8  A    between atoms: C_16  and  C_24
REMARK                            x       y       z     vdW  Elec       q    Type
REMARK                         _______ _______ _______ _____ _____    ______ ____
ROOT
ATOM      1  O   UNL     1       2.908   7.640  18.296  0.00  0.00    +0.000 OA
ATOM      2  C   UNL     1       2.395   6.859  19.117  0.00  0.00    +0.000 C 
ENDROOT
BRANCH   2   3
ATOM      3  C   UNL     1       1.530   7.353  20.278  0.00  0.00    +0.000 C 
BRANCH   3   4
ATOM      4  N   UNL     1       1.747   8.789  20.539  0.00  0.00    +0.000 NA
ATOM      5  C   UNL     1       0.924   9.670  19.681  0.00  0.00    +0.000 C 
ATOM      6  C   UNL     1      -0.519   9.957  20.172  0.00  0.00    +0.000 C 
ATOM      7  N   UNL     1      -0.625  10.339  21.598  0.00  0.00    +0.000 NA
ATOM      8  C   UNL     1       0.088   9.315  22.388  0.00  0.00    +0.000 C 
ATOM      9  C   UNL     1       1.560   9.110  21.967  0.00  0.00    +0.000 C 
BRANCH   7  10
ATOM     10  C   UNL     1      -0.076  11.699  21.791  0.00  0.00    +0.000 C 
BRANCH  10  11
ATOM     11  C   UNL     1      -0.997  12.625  22.537  0.00  0.00    +0.000 A 
ATOM     12  C   UNL     1      -0.789  13.941  22.900  0.00  0.00    +0.000 A 
ATOM     13  C   UNL     1      -1.880  14.480  23.639  0.00  0.00    +0.000 A 
ATOM     14  C   UNL     1      -2.893  13.563  23.808  0.00  0.00    +0.000 A 
ATOM     15  S   UNL     1      -2.523  12.060  23.086  0.00  0.00    +0.000 S 
ENDBRANCH  10  11
ENDBRANCH   7  10
ENDBRANCH   3   4
ENDBRANCH   2   3
BRANCH   2  16
ATOM     16  C   UNL     1       2.689   5.352  18.989  0.00  0.00    +0.000 C 
BRANCH  16  17
ATOM     17  C   UNL     1       4.096   5.115  18.431  0.00  0.00    +0.000 A 
ATOM     18  C   UNL     1       4.289   4.610  17.132  0.00  0.00    +0.000 A 
ATOM     19  C   UNL     1       5.573   4.374  16.635  0.00  0.00    +0.000 A 
ATOM     20  C   UNL     1       6.687   4.649  17.420  0.00  0.00    +0.000 A 
ATOM     21  C   UNL     1       6.518   5.174  18.699  0.00  0.00    +0.000 A 
ATOM     22  C   UNL     1       5.238   5.410  19.195  0.00  0.00    +0.000 A 
ENDBRANCH  16  17
BRANCH  16  23
ATOM     23  C   UNL     1       2.503   4.487  20.242  0.00  0.00    +0.000 C 
ATOM     24  C   UNL     1       1.091   3.942  20.620  0.00  0.00    +0.000 C 
ATOM     25  C   UNL     1       1.784   2.646  21.085  0.00  0.00    +0.000 C 
ATOM     26  C   UNL     1       2.936   2.993  20.128  0.00  0.00    +0.000 C 
ENDBRANCH  16  23
BRANCH  16  27
ATOM     27  O   UNL     1       1.709   4.925  18.014  0.00  0.00    +0.000 OA
ATOM     28  H   UNL     1       0.986   4.520  18.541  0.00  0.00    +0.000 HD
ENDBRANCH  16  27
ENDBRANCH   2  16
TORSDOF 8
ENDMDL
MODEL 6
REMARK VINA RESULT:      -6.6      1.329      3.375
REMARK  Name = 
REMARK  8 active torsions:
REMARK  status: ('A' for Active; 'I' for Inactive)
REMARK    1  A    between atoms: C_2  and  C_3
REMARK    2  A    between atoms: C_2  and  C_16
REMARK    3  A    between atoms: C_3  and  N_4
REMARK    4  A    between atoms: N_7  and  C_8
REMARK    5  A    between atoms: C_8  and  C_9
REMARK    6  A    between atoms: C_16  and  O_17
REMARK    7  A    between atoms: C_16  and  C_18
REMARK    8  A    between atoms: C_16  and  C_24
REMARK                            x       y       z     vdW  Elec       q    Type
REMARK                         _______ _______ _______ _____ _____    ______ ____
ROOT
ATOM      1  O   UNL     1       3.224   7.929  17.447  0.00  0.00    +0.000 OA
ATOM      2  C   UNL     1       2.760   7.102  18.251  0.00  0.00    +0.000 C 
ENDROOT
BRANCH   2   3
ATOM      3  C   UNL     1       1.562   7.424  19.147  0.00  0.00    +0.000 C 
BRANCH   3   4
ATOM      4  N   UNL     1       1.802   8.634  19.955  0.00  0.00    +0.000 NA
ATOM      5  C   UNL     1       1.190   9.853  19.381  0.00  0.00    +0.000 C 
ATOM      6  C   UNL     1      -0.300  10.104  19.729  0.00  0.00    +0.000 C 
ATOM      7  N   UNL     1      -0.637   9.954  21.163  0.00  0.00    +0.000 NA
ATOM      8  C   UNL     1      -0.127   8.640  21.606  0.00  0.00    +0.000 C 
ATOM      9  C   UNL     1       1.384   8.437  21.356  0.00  0.00    +0.000 C 
BRANCH   7  10
ATOM     10  C   UNL     1      -0.061  11.082  21.929  0.00  0.00    +0.000 C 
BRANCH  10  11
ATOM     11  C   UNL     1      -1.093  11.979  22.555  0.00  0.00    +0.000 A 
ATOM     12  C   UNL     1      -2.282  11.631  23.165  0.00  0.00    +0.000 A 
ATOM     13  C   UNL     1      -3.020  12.767  23.605  0.00  0.00    +0.000 A 
ATOM     14  C   UNL     1      -2.367  13.946  23.327  0.00  0.00    +0.000 A 
ATOM     15  S   UNL     1      -0.878  13.683  22.533  0.00  0.00    +0.000 S 
ENDBRANCH  10  11
ENDBRANCH   7  10
ENDBRANCH   3   4
ENDBRANCH   2   3
BRANCH   2  16
ATOM     16  C   UNL     1       3.451   5.732  18.387  0.00  0.00    +0.000 C 
BRANCH  16  17
ATOM     17  C   UNL     1       2.579   4.755  19.183  0.00  0.00    +0.000 A 
ATOM     18  C   UNL     1       1.622   3.946  18.542  0.00  0.00    +0.000 A 
ATOM     19  C   UNL     1       0.813   3.074  19.275  0.00  0.00    +0.000 A 
ATOM     20  C   UNL     1       0.952   2.984  20.655  0.00  0.00    +0.000 A 
ATOM     21  C   UNL     1       1.912   3.758  21.304  0.00  0.00    +0.000 A 
ATOM     22  C   UNL     1       2.719   4.628  20.574  0.00  0.00    +0.000 A 
ENDBRANCH  16  17
BRANCH  16  23
ATOM     23  C   UNL     1       3.913   5.043  17.096  0.00  0.00    +0.000 C 
ATOM     24  C   UNL     1       5.041   5.676  16.225  0.00  0.00    +0.000 C 
ATOM     25  C   UNL     1       5.545   4.246  15.949  0.00  0.00    +0.000 C 
ATOM     26  C   UNL     1       4.867   3.820  17.261  0.00  0.00    +0.000 C 
ENDBRANCH  16  23
BRANCH  16  27
ATOM     27  O   UNL     1       4.634   6.055  19.156  0.00  0.00    +0.000 OA
ATOM     28  H   UNL     1       5.034   5.187  19.382  0.00  0.00    +0.000 HD
ENDBRANCH  16  27
ENDBRANCH   2  16
TORSDOF 8
ENDMDL
MODEL 7
REMARK VINA RESULT:      -6.6      1.175      3.185
REMARK  Name = 
REMARK  8 active torsions:
REMARK  status: ('A' for Active; 'I' for Inactive)
REMARK    1  A    between atoms: C_2  and  C_3
REMARK    2  A    between atoms: C_2  and  C_16
REMARK    3  A    between atoms: C_3  and  N_4
REMARK    4  A    between atoms: N_7  and  C_8
REMARK    5  A    between atoms: C_8  and  C_9
REMARK    6  A    between atoms: C_16  and  O_17
REMARK    7  A    between atoms: C_16  and  C_18
REMARK    8  A    between atoms: C_16  and  C_24
REMARK                            x       y       z     vdW  Elec       q    Type
REMARK                         _______ _______ _______ _____ _____    ______ ____
ROOT
ATOM      1  O   UNL     1       2.437   8.058  17.961  0.00  0.00    +0.000 OA
ATOM      2  C   UNL     1       2.377   7.234  18.891  0.00  0.00    +0.000 C 
ENDROOT
BRANCH   2   3
ATOM      3  C   UNL     1       1.555   7.493  20.154  0.00  0.00    +0.000 C 
BRANCH   3   4
ATOM      4  N   UNL     1       1.706   8.884  20.621  0.00  0.00    +0.000 NA
ATOM      5  C   UNL     1       0.933   9.858  19.818  0.00  0.00    +0.000 C 
ATOM      6  C   UNL     1      -0.554  10.050  20.216  0.00  0.00    +0.000 C 
ATOM      7  N   UNL     1      -0.791  10.235  21.664  0.00  0.00    +0.000 NA
ATOM      8  C   UNL     1      -0.116   9.127  22.371  0.00  0.00    +0.000 C 
ATOM      9  C   UNL     1       1.391   9.007  22.057  0.00  0.00    +0.000 C 
BRANCH   7  10
ATOM     10  C   UNL     1      -0.300  11.567  22.083  0.00  0.00    +0.000 C 
BRANCH  10  11
ATOM     11  C   UNL     1      -1.335  12.401  22.786  0.00  0.00    +0.000 A 
ATOM     12  C   UNL     1      -2.576  12.020  23.256  0.00  0.00    +0.000 A 
ATOM     13  C   UNL     1      -3.296  13.104  23.833  0.00  0.00    +0.000 A 
ATOM     14  C   UNL     1      -2.578  14.279  23.796  0.00  0.00    +0.000 A 
ATOM     15  S   UNL     1      -1.050  14.072  23.062  0.00  0.00    +0.000 S 
ENDBRANCH  10  11
ENDBRANCH   7  10
ENDBRANCH   3   4
ENDBRANCH   2   3
BRANCH   2  16
ATOM     16  C   UNL     1       3.205   5.939  18.787  0.00  0.00    +0.000 C 
BRANCH  16  17
ATOM     17  C   UNL     1       2.394   4.731  19.269  0.00  0.00    +0.000 A 
ATOM     18  C   UNL     1       2.476   4.283  20.601  0.00  0.00    +0.000 A 
ATOM     19  C   UNL     1       1.752   3.169  21.030  0.00  0.00    +0.000 A 
ATOM     20  C   UNL     1       0.925   2.489  20.144  0.00  0.00    +0.000 A 
ATOM     21  C   UNL     1       0.810   2.932  18.828  0.00  0.00    +0.000 A 
ATOM     22  C   UNL     1       1.531   4.043  18.399  0.00  0.00    +0.000 A 
ENDBRANCH  16  17
BRANCH  16  23
ATOM     23  C   UNL     1       3.825   5.604  17.424  0.00  0.00    +0.000 C 
ATOM     24  C   UNL     1       4.962   6.495  16.836  0.00  0.00    +0.000 C 
ATOM     25  C   UNL     1       5.606   5.206  16.290  0.00  0.00    +0.000 C 
ATOM     26  C   UNL     1       4.863   4.440  17.397  0.00  0.00    +0.000 C 
ENDBRANCH  16  23
BRANCH  16  27
ATOM     27  O   UNL     1       4.290   6.187  19.711  0.00  0.00    +0.000 OA
ATOM     28  H   UNL     1       4.367   5.363  20.240  0.00  0.00    +0.000 HD
ENDBRANCH  16  27
ENDBRANCH   2  16
TORSDOF 8
ENDMDL
MODEL 8
REMARK VINA RESULT:      -6.5      1.601      3.785
REMARK  Name = 
REMARK  8 active torsions:
REMARK  status: ('A' for Active; 'I' for Inactive)
REMARK    1  A    between atoms: C_2  and  C_3
REMARK    2  A    between atoms: C_2  and  C_16
REMARK    3  A    between atoms: C_3  and  N_4
REMARK    4  A    between atoms: N_7  and  C_8
REMARK    5  A    between atoms: C_8  and  C_9
REMARK    6  A    between atoms: C_16  and  O_17
REMARK    7  A    between atoms: C_16  and  C_18
REMARK    8  A    between atoms: C_16  and  C_24
REMARK                            x       y       z     vdW  Elec       q    Type
REMARK                         _______ _______ _______ _____ _____    ______ ____
ROOT
ATOM      1  O   UNL     1       4.589   7.332  17.342  0.00  0.00    +0.000 OA
ATOM      2  C   UNL     1       3.739   6.636  17.925  0.00  0.00    +0.000 C 
ENDROOT
BRANCH   2   3
ATOM      3  C   UNL     1       2.338   7.160  18.240  0.00  0.00    +0.000 C 
BRANCH   3   4
ATOM      4  N   UNL     1       2.391   8.455  18.944  0.00  0.00    +0.000 NA
ATOM      5  C   UNL     1       1.830   9.574  18.153  0.00  0.00    +0.000 C 
ATOM      6  C   UNL     1       0.293   9.769  18.233  0.00  0.00    +0.000 C 
ATOM      7  N   UNL     1      -0.267   9.742  19.603  0.00  0.00    +0.000 NA
ATOM      8  C   UNL     1       0.219   8.510  20.258  0.00  0.00    +0.000 C 
ATOM      9  C   UNL     1       1.758   8.372  20.274  0.00  0.00    +0.000 C 
BRANCH   7  10
ATOM     10  C   UNL     1       0.128  10.970  20.326  0.00  0.00    +0.000 C 
BRANCH  10  11
ATOM     11  C   UNL     1      -0.953  11.526  21.211  0.00  0.00    +0.000 A 
ATOM     12  C   UNL     1      -1.949  12.429  20.894  0.00  0.00    +0.000 A 
ATOM     13  C   UNL     1      -2.768  12.751  22.014  0.00  0.00    +0.000 A 
ATOM     14  C   UNL     1      -2.380  12.076  23.149  0.00  0.00    +0.000 A 
ATOM     15  S   UNL     1      -1.031  11.068  22.865  0.00  0.00    +0.000 S 
ENDBRANCH  10  11
ENDBRANCH   7  10
ENDBRANCH   3   4
ENDBRANCH   2   3
BRANCH   2  16
ATOM     16  C   UNL     1       4.135   5.222  18.393  0.00  0.00    +0.000 C 
BRANCH  16  17
ATOM     17  C   UNL     1       2.916   4.460  18.922  0.00  0.00    +0.000 A 
ATOM     18  C   UNL     1       2.200   3.570  18.100  0.00  0.00    +0.000 A 
ATOM     19  C   UNL     1       1.075   2.895  18.580  0.00  0.00    +0.000 A 
ATOM     20  C   UNL     1       0.652   3.085  19.891  0.00  0.00    +0.000 A 
ATOM     21  C   UNL     1       1.363   3.942  20.728  0.00  0.00    +0.000 A 
ATOM     22  C   UNL     1       2.484   4.616  20.250  0.00  0.00    +0.000 A 
ENDBRANCH  16  17
BRANCH  16  23
ATOM     23  C   UNL     1       4.879   4.329  17.391  0.00  0.00    +0.000 C 
ATOM     24  C   UNL     1       4.918   4.705  15.878  0.00  0.00    +0.000 C 
ATOM     25  C   UNL     1       6.367   4.180  15.849  0.00  0.00    +0.000 C 
ATOM     26  C   UNL     1       6.432   4.460  17.360  0.00  0.00    +0.000 C 
ENDBRANCH  16  23
BRANCH  16  27
ATOM     27  O   UNL     1       5.041   5.498  19.488  0.00  0.00    +0.000 OA
ATOM     28  H   UNL     1       4.463   5.774  20.231  0.00  0.00    +0.000 HD
ENDBRANCH  16  27
ENDBRANCH   2  16
TORSDOF 8
ENDMDL
MODEL 9
REMARK VINA RESULT:      -6.5      0.949      1.396
REMARK  Name = 
REMARK  8 active torsions:
REMARK  status: ('A' for Active; 'I' for Inactive)
REMARK    1  A    between atoms: C_2  and  C_3
REMARK    2  A    between atoms: C_2  and  C_16
REMARK    3  A    between atoms: C_3  and  N_4
REMARK    4  A    between atoms: N_7  and  C_8
REMARK    5  A    between atoms: C_8  and  C_9
REMARK    6  A    between atoms: C_16  and  O_17
REMARK    7  A    between atoms: C_16  and  C_18
REMARK    8  A    between atoms: C_16  and  C_24
REMARK                            x       y       z     vdW  Elec       q    Type
REMARK                         _______ _______ _______ _____ _____    ______ ____
ROOT
ATOM      1  O   UNL     1       3.588   7.557  17.563  0.00  0.00    +0.000 OA
ATOM      2  C   UNL     1       2.822   6.862  18.253  0.00  0.00    +0.000 C 
ENDROOT
BRANCH   2   3
ATOM      3  C   UNL     1       1.545   7.431  18.874  0.00  0.00    +0.000 C 
BRANCH   3   4
ATOM      4  N   UNL     1       1.825   8.639  19.672  0.00  0.00    +0.000 NA
ATOM      5  C   UNL     1       1.286   9.878  19.068  0.00  0.00    +0.000 C 
ATOM      6  C   UNL     1      -0.199  10.204  19.379  0.00  0.00    +0.000 C 
ATOM      7  N   UNL     1      -0.574  10.091  20.806  0.00  0.00    +0.000 NA
ATOM      8  C   UNL     1      -0.138   8.761  21.277  0.00  0.00    +0.000 C 
ATOM      9  C   UNL     1       1.367   8.482  21.065  0.00  0.00    +0.000 C 
BRANCH   7  10
ATOM     10  C   UNL     1       0.039  11.200  21.571  0.00  0.00    +0.000 C 
BRANCH  10  11
ATOM     11  C   UNL     1      -0.960  12.065  22.289  0.00  0.00    +0.000 A 
ATOM     12  C   UNL     1      -1.990  11.681  23.125  0.00  0.00    +0.000 A 
ATOM     13  C   UNL     1      -2.756  12.788  23.589  0.00  0.00    +0.000 A 
ATOM     14  C   UNL     1      -2.281  13.985  23.102  0.00  0.00    +0.000 A 
ATOM     15  S   UNL     1      -0.926  13.770  22.086  0.00  0.00    +0.000 S 
ENDBRANCH  10  11
ENDBRANCH   7  10
ENDBRANCH   3   4
ENDBRANCH   2   3
BRANCH   2  16
ATOM     16  C   UNL     1       3.205   5.396  18.536  0.00  0.00    +0.000 C 
BRANCH  16  17
ATOM     17  C   UNL     1       4.620   5.093  18.031  0.00  0.00    +0.000 A 
ATOM     18  C   UNL     1       5.751   5.378  18.819  0.00  0.00    +0.000 A 
ATOM     19  C   UNL     1       7.040   5.122  18.345  0.00  0.00    +0.000 A 
ATOM     20  C   UNL     1       7.223   4.566  17.084  0.00  0.00    +0.000 A 
ATOM     21  C   UNL     1       6.115   4.253  16.300  0.00  0.00    +0.000 A 
ATOM     22  C   UNL     1       4.829   4.509  16.771  0.00  0.00    +0.000 A 
ENDBRANCH  16  17
BRANCH  16  23
ATOM     23  C   UNL     1       3.081   4.900  19.982  0.00  0.00    +0.000 C 
ATOM     24  C   UNL     1       1.679   4.769  20.653  0.00  0.00    +0.000 C 
ATOM     25  C   UNL     1       2.199   3.496  21.350  0.00  0.00    +0.000 C 
ATOM     26  C   UNL     1       3.219   3.363  20.207  0.00  0.00    +0.000 C 
ENDBRANCH  16  23
BRANCH  16  27
ATOM     27  O   UNL     1       2.244   4.663  17.739  0.00  0.00    +0.000 OA
ATOM     28  H   UNL     1       1.393   4.756  18.219  0.00  0.00    +0.000 HD
ENDBRANCH  16  27
ENDBRANCH   2  16
TORSDOF 8
ENDMDL
