MODEL 1
REMARK VINA RESULT:      -8.0      0.000      0.000
REMARK  Name = 
REMARK  6 active torsions:
REMARK  status: ('A' for Active; 'I' for Inactive)
REMARK    1  A    between atoms: C_1  and  C_2
REMARK    2  A    between atoms: N_9  and  C_10
REMARK    3  A    between atoms: C_12  and  C_13
REMARK    4  A    between atoms: C_13  and  O_14
REMARK    5  A    between atoms: O_14  and  P_15
REMARK    6  A    between atoms: C_21  and  O_22
REMARK                            x       y       z     vdW  Elec       q    Type
REMARK                         _______ _______ _______ _____ _____    ______ ____
ROOT
ATOM      1  C   UNL     1       2.646   4.611  19.024  0.00  0.00    +0.000 C 
ATOM      2  O   UNL     1       4.027   4.478  18.636  0.00  0.00    +0.000 OA
ATOM      3  C   UNL     1       4.214   3.287  17.834  0.00  0.00    +0.000 C 
ATOM      4  C   UNL     1       2.839   2.673  17.549  0.00  0.00    +0.000 C 
ATOM      5  C   UNL     1       1.945   3.809  17.949  0.00  0.00    +0.000 C 
ATOM      6  O   UNL     1       0.800   3.960  17.532  0.00  0.00    +0.000 OA
ENDROOT
BRANCH   1  15
ATOM      7  C   UNL     1       3.888   7.107  17.673  0.00  0.00    +0.000 C 
ATOM      8  C   UNL     1       2.408   6.876  17.981  0.00  0.00    +0.000 C 
ATOM      9  N   UNL     1       1.752   8.149  18.208  0.00  0.00    +0.000 N 
ATOM     10  C   UNL     1       1.557   8.734  19.430  0.00  0.00    +0.000 C 
ATOM     11  O   UNL     1       1.283   9.925  19.525  0.00  0.00    +0.000 OA
ATOM     12  C   UNL     1       1.648   7.841  20.597  0.00  0.00    +0.000 C 
ATOM     13  F   UNL     1       1.381   8.350  21.815  0.00  0.00    +0.000 F 
ATOM     14  C   UNL     1       1.949   6.561  20.392  0.00  0.00    +0.000 C 
ATOM     15  N   UNL     1       2.212   6.004  19.142  0.00  0.00    +0.000 N 
ATOM     16  H   UNL     1       1.708   8.802  17.440  0.00  0.00    +0.000 HD
ENDBRANCH   1  15
BRANCH   4  17
ATOM     17  O   UNL     1       2.599   1.517  18.343  0.00  0.00    +0.000 OA
ATOM     18  H   UNL     1       2.074   1.750  19.129  0.00  0.00    +0.000 HD
ENDBRANCH   4  17
BRANCH   3  19
ATOM     19  C   UNL     1       4.927   3.655  16.519  0.00  0.00    +0.000 C 
BRANCH  19  20
ATOM     20  O   UNL     1       5.561   4.943  16.595  0.00  0.00    +0.000 OA
BRANCH  20  21
ATOM     21  P   UNL     1       7.184   4.862  16.618  0.00  0.00    +0.000 P 
ATOM     22  O   UNL     1       7.578   6.409  16.395  0.00  0.00    +0.000 OA
ATOM     23  C   UNL     1       7.499   7.380  17.424  0.00  0.00    +0.000 C 
ATOM     24  C   UNL     1       8.135   6.898  18.711  0.00  0.00    +0.000 C 
ATOM     25  C   UNL     1       7.362   5.674  19.151  0.00  0.00    +0.000 C 
ATOM     26  O   UNL     1       7.438   4.628  18.196  0.00  0.00    +0.000 OA
ENDBRANCH  20  21
ENDBRANCH  19  20
ENDBRANCH   3  19
TORSDOF 5
ENDMDL
MODEL 2
REMARK VINA RESULT:      -8.0      1.169      1.701
REMARK  Name = 
REMARK  6 active torsions:
REMARK  status: ('A' for Active; 'I' for Inactive)
REMARK    1  A    between atoms: C_1  and  C_2
REMARK    2  A    between atoms: N_9  and  C_10
REMARK    3  A    between atoms: C_12  and  C_13
REMARK    4  A    between atoms: C_13  and  O_14
REMARK    5  A    between atoms: O_14  and  P_15
REMARK    6  A    between atoms: C_21  and  O_22
REMARK                            x       y       z     vdW  Elec       q    Type
REMARK                         _______ _______ _______ _____ _____    ______ ____
ROOT
ATOM      1  C   UNL     1       2.978   4.401  19.031  0.00  0.00    +0.000 C 
ATOM      2  O   UNL     1       4.334   4.258  18.569  0.00  0.00    +0.000 OA
ATOM      3  C   UNL     1       4.442   3.139  17.656  0.00  0.00    +0.000 C 
ATOM      4  C   UNL     1       3.033   2.598  17.383  0.00  0.00    +0.000 C 
ATOM      5  C   UNL     1       2.201   3.722  17.924  0.00  0.00    +0.000 C 
ATOM      6  O   UNL     1       1.045   3.948  17.577  0.00  0.00    +0.000 OA
ENDROOT
BRANCH   1  15
ATOM      7  C   UNL     1       0.549   5.439  20.650  0.00  0.00    +0.000 C 
ATOM      8  C   UNL     1       1.931   6.087  20.561  0.00  0.00    +0.000 C 
ATOM      9  N   UNL     1       1.809   7.522  20.728  0.00  0.00    +0.000 N 
ATOM     10  C   UNL     1       1.700   8.432  19.713  0.00  0.00    +0.000 C 
ATOM     11  O   UNL     1       1.296   9.570  19.925  0.00  0.00    +0.000 OA
ATOM     12  C   UNL     1       2.139   7.976  18.384  0.00  0.00    +0.000 C 
ATOM     13  F   UNL     1       2.131   8.860  17.368  0.00  0.00    +0.000 F 
ATOM     14  C   UNL     1       2.565   6.722  18.254  0.00  0.00    +0.000 C 
ATOM     15  N   UNL     1       2.601   5.792  19.292  0.00  0.00    +0.000 N 
ATOM     16  H   UNL     1       1.473   7.867  21.615  0.00  0.00    +0.000 HD
ENDBRANCH   1  15
BRANCH   4  17
ATOM     17  O   UNL     1       2.786   1.384  18.083  0.00  0.00    +0.000 OA
ATOM     18  H   UNL     1       1.989   0.949  17.733  0.00  0.00    +0.000 HD
ENDBRANCH   4  17
BRANCH   3  19
ATOM     19  C   UNL     1       5.109   3.599  16.346  0.00  0.00    +0.000 C 
BRANCH  19  20
ATOM     20  O   UNL     1       5.658   4.923  16.462  0.00  0.00    +0.000 OA
BRANCH  20  21
ATOM     21  P   UNL     1       7.283   4.949  16.456  0.00  0.00    +0.000 P 
ATOM     22  O   UNL     1       7.570   6.530  16.342  0.00  0.00    +0.000 OA
ATOM     23  C   UNL     1       7.448   7.416  17.441  0.00  0.00    +0.000 C 
ATOM     24  C   UNL     1       8.139   6.885  18.680  0.00  0.00    +0.000 C 
ATOM     25  C   UNL     1       7.456   5.584  19.039  0.00  0.00    +0.000 C 
ATOM     26  O   UNL     1       7.582   4.617  18.008  0.00  0.00    +0.000 OA
ENDBRANCH  20  21
ENDBRANCH  19  20
ENDBRANCH   3  19
TORSDOF 5
ENDMDL
MODEL 3
REMARK VINA RESULT:      -7.7      2.973      5.732
REMARK  Name = 
REMARK  6 active torsions:
REMARK  status: ('A' for Active; 'I' for Inactive)
REMARK    1  A    between atoms: C_1  and  C_2
REMARK    2  A    between atoms: N_9  and  C_10
REMARK    3  A    between atoms: C_12  and  C_13
REMARK    4  A    between atoms: C_13  and  O_14
REMARK    5  A    between atoms: O_14  and  P_15
REMARK    6  A    between atoms: C_21  and  O_22
REMARK                            x       y       z     vdW  Elec       q    Type
REMARK                         _______ _______ _______ _____ _____    ______ ____
ROOT
ATOM      1  C   UNL     1       3.997   6.067  19.448  0.00  0.00    +0.000 C 
ATOM      2  O   UNL     1       3.443   4.996  20.236  0.00  0.00    +0.000 OA
ATOM      3  C   UNL     1       2.170   5.392  20.802  0.00  0.00    +0.000 C 
ATOM      4  C   UNL     1       1.789   6.762  20.229  0.00  0.00    +0.000 C 
ATOM      5  C   UNL     1       2.759   6.859  19.089  0.00  0.00    +0.000 C 
ATOM      6  O   UNL     1       2.585   7.566  18.100  0.00  0.00    +0.000 OA
ENDROOT
BRANCH   1  15
ATOM      7  C   UNL     1       7.057   5.599  19.316  0.00  0.00    +0.000 C 
ATOM      8  C   UNL     1       5.977   4.794  18.591  0.00  0.00    +0.000 C 
ATOM      9  N   UNL     1       6.514   4.260  17.354  0.00  0.00    +0.000 N 
ATOM     10  C   UNL     1       6.410   4.850  16.124  0.00  0.00    +0.000 C 
ATOM     11  O   UNL     1       7.137   4.512  15.197  0.00  0.00    +0.000 OA
ATOM     12  C   UNL     1       5.352   5.864  15.980  0.00  0.00    +0.000 C 
ATOM     13  F   UNL     1       5.153   6.414  14.767  0.00  0.00    +0.000 F 
ATOM     14  C   UNL     1       4.612   6.161  17.045  0.00  0.00    +0.000 C 
ATOM     15  N   UNL     1       4.784   5.595  18.307  0.00  0.00    +0.000 N 
ATOM     16  H   UNL     1       7.268   3.592  17.416  0.00  0.00    +0.000 HD
ENDBRANCH   1  15
BRANCH   4  17
ATOM     17  O   UNL     1       1.989   7.807  21.173  0.00  0.00    +0.000 OA
ATOM     18  H   UNL     1       2.500   7.481  21.935  0.00  0.00    +0.000 HD
ENDBRANCH   4  17
BRANCH   3  19
ATOM     19  C   UNL     1       1.098   4.341  20.456  0.00  0.00    +0.000 C 
BRANCH  19  20
ATOM     20  O   UNL     1       1.628   3.006  20.488  0.00  0.00    +0.000 OA
BRANCH  20  21
ATOM     21  P   UNL     1       1.146   2.091  19.235  0.00  0.00    +0.000 P 
ATOM     22  O   UNL     1       0.856   3.216  18.118  0.00  0.00    +0.000 OA
ATOM     23  C   UNL     1       1.887   3.864  17.393  0.00  0.00    +0.000 C 
ATOM     24  C   UNL     1       2.900   2.882  16.842  0.00  0.00    +0.000 C 
ATOM     25  C   UNL     1       3.521   2.180  18.029  0.00  0.00    +0.000 C 
ATOM     26  O   UNL     1       2.559   1.456  18.780  0.00  0.00    +0.000 OA
ENDBRANCH  20  21
ENDBRANCH  19  20
ENDBRANCH   3  19
TORSDOF 5
ENDMDL
MODEL 4
REMARK VINA RESULT:      -7.4      1.150      1.235
REMARK  Name = 
REMARK  6 active torsions:
REMARK  status: ('A' for Active; 'I' for Inactive)
REMARK    1  A    between atoms: C_1  and  C_2
REMARK    2  A    between atoms: N_9  and  C_10
REMARK    3  A    between atoms: C_12  and  C_13
REMARK    4  A    between atoms: C_13  and  O_14
REMARK    5  A    between atoms: O_14  and  P_15
REMARK    6  A    between atoms: C_21  and  O_22
REMARK                            x       y       z     vdW  Elec       q    Type
REMARK                         _______ _______ _______ _____ _____    ______ ____
ROOT
ATOM      1  C   UNL     1       2.888   5.555  19.981  0.00  0.00    +0.000 C 
ATOM      2  O   UNL     1       4.194   5.351  19.409  0.00  0.00    +0.000 OA
ATOM      3  C   UNL     1       4.451   3.938  19.228  0.00  0.00    +0.000 C 
ATOM      4  C   UNL     1       3.170   3.165  19.565  0.00  0.00    +0.000 C 
ATOM      5  C   UNL     1       2.172   4.284  19.578  0.00  0.00    +0.000 C 
ATOM      6  O   UNL     1       0.968   4.130  19.398  0.00  0.00    +0.000 OA
ENDROOT
BRANCH   1  15
ATOM      7  C   UNL     1       3.857   7.499  17.772  0.00  0.00    +0.000 C 
ATOM      8  C   UNL     1       2.407   7.168  18.125  0.00  0.00    +0.000 C 
ATOM      9  N   UNL     1       1.559   8.305  17.822  0.00  0.00    +0.000 N 
ATOM     10  C   UNL     1       1.188   9.277  18.710  0.00  0.00    +0.000 C 
ATOM     11  O   UNL     1       0.739  10.350  18.324  0.00  0.00    +0.000 OA
ATOM     12  C   UNL     1       1.317   8.933  20.137  0.00  0.00    +0.000 C 
ATOM     13  F   UNL     1       0.887   9.824  21.051  0.00  0.00    +0.000 F 
ATOM     14  C   UNL     1       1.814   7.742  20.458  0.00  0.00    +0.000 C 
ATOM     15  N   UNL     1       2.249   6.795  19.532  0.00  0.00    +0.000 N 
ATOM     16  H   UNL     1       1.480   8.592  16.858  0.00  0.00    +0.000 HD
ENDBRANCH   1  15
BRANCH   4  17
ATOM     17  O   UNL     1       3.254   2.526  20.834  0.00  0.00    +0.000 OA
ATOM     18  H   UNL     1       4.182   2.467  21.122  0.00  0.00    +0.000 HD
ENDBRANCH   4  17
BRANCH   3  19
ATOM     19  C   UNL     1       4.880   3.671  17.773  0.00  0.00    +0.000 C 
BRANCH  19  20
ATOM     20  O   UNL     1       5.424   4.847  17.151  0.00  0.00    +0.000 OA
BRANCH  20  21
ATOM     21  P   UNL     1       7.029   4.766  16.915  0.00  0.00    +0.000 P 
ATOM     22  O   UNL     1       7.358   6.282  16.478  0.00  0.00    +0.000 OA
ATOM     23  C   UNL     1       7.435   7.351  17.406  0.00  0.00    +0.000 C 
ATOM     24  C   UNL     1       8.280   6.999  18.612  0.00  0.00    +0.000 C 
ATOM     25  C   UNL     1       7.609   5.826  19.291  0.00  0.00    +0.000 C 
ATOM     26  O   UNL     1       7.542   4.689  18.444  0.00  0.00    +0.000 OA
ENDBRANCH  20  21
ENDBRANCH  19  20
ENDBRANCH   3  19
TORSDOF 5
ENDMDL
MODEL 5
REMARK VINA RESULT:      -7.3      3.590      6.445
REMARK  Name = 
REMARK  6 active torsions:
REMARK  status: ('A' for Active; 'I' for Inactive)
REMARK    1  A    between atoms: C_1  and  C_2
REMARK    2  A    between atoms: N_9  and  C_10
REMARK    3  A    between atoms: C_12  and  C_13
REMARK    4  A    between atoms: C_13  and  O_14
REMARK    5  A    between atoms: O_14  and  P_15
REMARK    6  A    between atoms: C_21  and  O_22
REMARK                            x       y       z     vdW  Elec       q    Type
REMARK                         _______ _______ _______ _____ _____    ______ ____
ROOT
ATOM      1  C   UNL     1       4.209   4.169  17.503  0.00  0.00    +0.000 C 
ATOM      2  O   UNL     1       3.145   5.140  17.488  0.00  0.00    +0.000 OA
ATOM      3  C   UNL     1       2.570   5.280  18.809  0.00  0.00    +0.000 C 
ATOM      4  C   UNL     1       3.408   4.456  19.793  0.00  0.00    +0.000 C 
ATOM      5  C   UNL     1       4.625   4.189  18.958  0.00  0.00    +0.000 C 
ATOM      6  O   UNL     1       5.730   3.926  19.422  0.00  0.00    +0.000 OA
ENDROOT
BRANCH   1  15
ATOM      7  C   UNL     1       5.190   6.954  16.566  0.00  0.00    +0.000 C 
ATOM      8  C   UNL     1       6.045   5.700  16.754  0.00  0.00    +0.000 C 
ATOM      9  N   UNL     1       7.170   5.734  15.839  0.00  0.00    +0.000 N 
ATOM     10  C   UNL     1       7.205   5.150  14.603  0.00  0.00    +0.000 C 
ATOM     11  O   UNL     1       8.048   5.473  13.773  0.00  0.00    +0.000 OA
ATOM     12  C   UNL     1       6.210   4.092  14.358  0.00  0.00    +0.000 C 
ATOM     13  F   UNL     1       6.256   3.429  13.186  0.00  0.00    +0.000 F 
ATOM     14  C   UNL     1       5.336   3.811  15.321  0.00  0.00    +0.000 C 
ATOM     15  N   UNL     1       5.278   4.469  16.548  0.00  0.00    +0.000 N 
ATOM     16  H   UNL     1       7.850   6.471  15.954  0.00  0.00    +0.000 HD
ENDBRANCH   1  15
BRANCH   4  17
ATOM     17  O   UNL     1       2.755   3.246  20.162  0.00  0.00    +0.000 OA
ATOM     18  H   UNL     1       2.487   2.751  19.369  0.00  0.00    +0.000 HD
ENDBRANCH   4  17
BRANCH   3  19
ATOM     19  C   UNL     1       2.561   6.766  19.216  0.00  0.00    +0.000 C 
BRANCH  19  20
ATOM     20  O   UNL     1       1.755   7.559  18.328  0.00  0.00    +0.000 OA
BRANCH  20  21
ATOM     21  P   UNL     1       1.997   9.157  18.494  0.00  0.00    +0.000 P 
ATOM     22  O   UNL     1       0.793   9.750  17.602  0.00  0.00    +0.000 OA
ATOM     23  C   UNL     1      -0.550   9.793  18.052  0.00  0.00    +0.000 C 
ATOM     24  C   UNL     1      -0.663  10.353  19.455  0.00  0.00    +0.000 C 
ATOM     25  C   UNL     1       0.114   9.425  20.362  0.00  0.00    +0.000 C 
ATOM     26  O   UNL     1       1.488   9.370  20.012  0.00  0.00    +0.000 OA
ENDBRANCH  20  21
ENDBRANCH  19  20
ENDBRANCH   3  19
TORSDOF 5
ENDMDL
MODEL 6
REMARK VINA RESULT:      -7.2      3.500      6.547
REMARK  Name = 
REMARK  6 active torsions:
REMARK  status: ('A' for Active; 'I' for Inactive)
REMARK    1  A    between atoms: C_1  and  C_2
REMARK    2  A    between atoms: N_9  and  C_10
REMARK    3  A    between atoms: C_12  and  C_13
REMARK    4  A    between atoms: C_13  and  O_14
REMARK    5  A    between atoms: O_14  and  P_15
REMARK    6  A    between atoms: C_21  and  O_22
REMARK                            x       y       z     vdW  Elec       q    Type
REMARK                         _______ _______ _______ _____ _____    ______ ____
ROOT
ATOM      1  C   UNL     1       2.886   3.960  18.606  0.00  0.00    +0.000 C 
ATOM      2  O   UNL     1       2.308   5.261  18.816  0.00  0.00    +0.000 OA
ATOM      3  C   UNL     1       1.500   5.267  20.019  0.00  0.00    +0.000 C 
ATOM      4  C   UNL     1       1.679   3.920  20.729  0.00  0.00    +0.000 C 
ATOM      5  C   UNL     1       2.881   3.389  20.008  0.00  0.00    +0.000 C 
ATOM      6  O   UNL     1       3.644   2.548  20.474  0.00  0.00    +0.000 OA
ENDROOT
BRANCH   1  15
ATOM      7  C   UNL     1       5.293   5.768  19.341  0.00  0.00    +0.000 C 
ATOM      8  C   UNL     1       5.355   4.338  18.801  0.00  0.00    +0.000 C 
ATOM      9  N   UNL     1       6.579   4.155  18.044  0.00  0.00    +0.000 N 
ATOM     10  C   UNL     1       6.702   4.302  16.689  0.00  0.00    +0.000 C 
ATOM     11  O   UNL     1       7.803   4.436  16.165  0.00  0.00    +0.000 OA
ATOM     12  C   UNL     1       5.452   4.239  15.914  0.00  0.00    +0.000 C 
ATOM     13  F   UNL     1       5.528   4.293  14.570  0.00  0.00    +0.000 F 
ATOM     14  C   UNL     1       4.306   4.088  16.574  0.00  0.00    +0.000 C 
ATOM     15  N   UNL     1       4.201   4.011  17.961  0.00  0.00    +0.000 N 
ATOM     16  H   UNL     1       7.456   4.232  18.537  0.00  0.00    +0.000 HD
ENDBRANCH   1  15
BRANCH   4  17
ATOM     17  O   UNL     1       0.549   3.073  20.553  0.00  0.00    +0.000 OA
ATOM     18  H   UNL     1       0.586   2.326  21.175  0.00  0.00    +0.000 HD
ENDBRANCH   4  17
BRANCH   3  19
ATOM     19  C   UNL     1       1.941   6.426  20.934  0.00  0.00    +0.000 C 
BRANCH  19  20
ATOM     20  O   UNL     1       0.949   7.465  20.996  0.00  0.00    +0.000 OA
BRANCH  20  21
ATOM     21  P   UNL     1       1.582   8.949  21.183  0.00  0.00    +0.000 P 
ATOM     22  O   UNL     1       0.527   9.846  20.358  0.00  0.00    +0.000 OA
ATOM     23  C   UNL     1      -0.745  10.202  20.869  0.00  0.00    +0.000 C 
ATOM     24  C   UNL     1      -0.663  10.730  22.286  0.00  0.00    +0.000 C 
ATOM     25  C   UNL     1      -0.103   9.612  23.139  0.00  0.00    +0.000 C 
ATOM     26  O   UNL     1       1.201   9.233  22.726  0.00  0.00    +0.000 OA
ENDBRANCH  20  21
ENDBRANCH  19  20
ENDBRANCH   3  19
TORSDOF 5
ENDMDL
MODEL 7
REMARK VINA RESULT:      -7.2      2.823      5.106
REMARK  Name = 
REMARK  6 active torsions:
REMARK  status: ('A' for Active; 'I' for Inactive)
REMARK    1  A    between atoms: C_1  and  C_2
REMARK    2  A    between atoms: N_9  and  C_10
REMARK    3  A    between atoms: C_12  and  C_13
REMARK    4  A    between atoms: C_13  and  O_14
REMARK    5  A    between atoms: O_14  and  P_15
REMARK    6  A    between atoms: C_21  and  O_22
REMARK                            x       y       z     vdW  Elec       q    Type
REMARK                         _______ _______ _______ _____ _____    ______ ____
ROOT
ATOM      1  C   UNL     1       4.585   3.717  17.493  0.00  0.00    +0.000 C 
ATOM      2  O   UNL     1       3.202   3.993  17.200  0.00  0.00    +0.000 OA
ATOM      3  C   UNL     1       2.340   3.092  17.935  0.00  0.00    +0.000 C 
ATOM      4  C   UNL     1       3.206   2.263  18.891  0.00  0.00    +0.000 C 
ATOM      5  C   UNL     1       4.486   3.044  18.845  0.00  0.00    +0.000 C 
ATOM      6  O   UNL     1       5.334   3.022  19.732  0.00  0.00    +0.000 OA
ENDROOT
BRANCH   1  15
ATOM      7  C   UNL     1       5.793   5.109  15.002  0.00  0.00    +0.000 C 
ATOM      8  C   UNL     1       5.316   5.788  16.287  0.00  0.00    +0.000 C 
ATOM      9  N   UNL     1       6.077   7.002  16.509  0.00  0.00    +0.000 N 
ATOM     10  C   UNL     1       7.200   7.103  17.284  0.00  0.00    +0.000 C 
ATOM     11  O   UNL     1       7.955   8.064  17.182  0.00  0.00    +0.000 OA
ATOM     12  C   UNL     1       7.409   6.026  18.266  0.00  0.00    +0.000 C 
ATOM     13  F   UNL     1       8.454   6.123  19.111  0.00  0.00    +0.000 F 
ATOM     14  C   UNL     1       6.532   5.026  18.304  0.00  0.00    +0.000 C 
ATOM     15  N   UNL     1       5.432   4.911  17.455  0.00  0.00    +0.000 N 
ATOM     16  H   UNL     1       5.988   7.746  15.833  0.00  0.00    +0.000 HD
ENDBRANCH   1  15
BRANCH   4  17
ATOM     17  O   UNL     1       3.391   0.933  18.420  0.00  0.00    +0.000 OA
ATOM     18  H   UNL     1       4.329   0.681  18.476  0.00  0.00    +0.000 HD
ENDBRANCH   4  17
BRANCH   3  19
ATOM     19  C   UNL     1       1.290   3.902  18.719  0.00  0.00    +0.000 C 
BRANCH  19  20
ATOM     20  O   UNL     1       1.479   5.318  18.560  0.00  0.00    +0.000 OA
BRANCH  20  21
ATOM     21  P   UNL     1       2.519   5.954  19.635  0.00  0.00    +0.000 P 
ATOM     22  O   UNL     1       2.781   7.409  18.995  0.00  0.00    +0.000 OA
ATOM     23  C   UNL     1       1.851   8.473  19.096  0.00  0.00    +0.000 C 
ATOM     24  C   UNL     1       1.339   8.650  20.510  0.00  0.00    +0.000 C 
ATOM     25  C   UNL     1       0.635   7.365  20.886  0.00  0.00    +0.000 C 
ATOM     26  O   UNL     1       1.515   6.253  20.864  0.00  0.00    +0.000 OA
ENDBRANCH  20  21
ENDBRANCH  19  20
ENDBRANCH   3  19
TORSDOF 5
ENDMDL
MODEL 8
REMARK VINA RESULT:      -7.1      2.778      4.940
REMARK  Name = 
REMARK  6 active torsions:
REMARK  status: ('A' for Active; 'I' for Inactive)
REMARK    1  A    between atoms: C_1  and  C_2
REMARK    2  A    between atoms: N_9  and  C_10
REMARK    3  A    between atoms: C_12  and  C_13
REMARK    4  A    between atoms: C_13  and  O_14
REMARK    5  A    between atoms: O_14  and  P_15
REMARK    6  A    between atoms: C_21  and  O_22
REMARK                            x       y       z     vdW  Elec       q    Type
REMARK                         _______ _______ _______ _____ _____    ______ ____
ROOT
ATOM      1  C   UNL     1       5.286   5.691  18.781  0.00  0.00    +0.000 C 
ATOM      2  O   UNL     1       5.395   5.372  17.381  0.00  0.00    +0.000 OA
ATOM      3  C   UNL     1       6.749   5.590  16.917  0.00  0.00    +0.000 C 
ATOM      4  C   UNL     1       7.627   5.934  18.126  0.00  0.00    +0.000 C 
ATOM      5  C   UNL     1       6.716   5.529  19.247  0.00  0.00    +0.000 C 
ATOM      6  O   UNL     1       7.106   5.232  20.373  0.00  0.00    +0.000 OA
ENDROOT
BRANCH   1  15
ATOM      7  C   UNL     1       4.186   2.919  17.939  0.00  0.00    +0.000 C 
ATOM      8  C   UNL     1       4.436   3.408  19.367  0.00  0.00    +0.000 C 
ATOM      9  N   UNL     1       3.511   2.757  20.274  0.00  0.00    +0.000 N 
ATOM     10  C   UNL     1       2.309   3.267  20.682  0.00  0.00    +0.000 C 
ATOM     11  O   UNL     1       1.455   2.547  21.190  0.00  0.00    +0.000 OA
ATOM     12  C   UNL     1       2.132   4.720  20.516  0.00  0.00    +0.000 C 
ATOM     13  F   UNL     1       0.999   5.283  20.979  0.00  0.00    +0.000 F 
ATOM     14  C   UNL     1       3.117   5.417  19.956  0.00  0.00    +0.000 C 
ATOM     15  N   UNL     1       4.306   4.862  19.486  0.00  0.00    +0.000 N 
ATOM     16  H   UNL     1       3.579   1.756  20.381  0.00  0.00    +0.000 HD
ENDBRANCH   1  15
BRANCH   4  17
ATOM     17  O   UNL     1       7.934   7.322  18.180  0.00  0.00    +0.000 OA
ATOM     18  H   UNL     1       8.892   7.452  18.296  0.00  0.00    +0.000 HD
ENDBRANCH   4  17
BRANCH   3  19
ATOM     19  C   UNL     1       7.267   4.321  16.213  0.00  0.00    +0.000 C 
BRANCH  19  20
ATOM     20  O   UNL     1       6.270   3.738  15.358  0.00  0.00    +0.000 OA
BRANCH  20  21
ATOM     21  P   UNL     1       5.670   4.779  14.265  0.00  0.00    +0.000 P 
ATOM     22  O   UNL     1       7.014   5.507  13.755  0.00  0.00    +0.000 OA
ATOM     23  C   UNL     1       7.920   4.903  12.848  0.00  0.00    +0.000 C 
ATOM     24  C   UNL     1       7.213   4.298  11.654  0.00  0.00    +0.000 C 
ATOM     25  C   UNL     1       6.288   3.226  12.188  0.00  0.00    +0.000 C 
ATOM     26  O   UNL     1       5.309   3.761  13.065  0.00  0.00    +0.000 OA
ENDBRANCH  20  21
ENDBRANCH  19  20
ENDBRANCH   3  19
TORSDOF 5
ENDMDL
MODEL 9
REMARK VINA RESULT:      -7.1      3.350      6.210
REMARK  Name = 
REMARK  6 active torsions:
REMARK  status: ('A' for Active; 'I' for Inactive)
REMARK    1  A    between atoms: C_1  and  C_2
REMARK    2  A    between atoms: N_9  and  C_10
REMARK    3  A    between atoms: C_12  and  C_13
REMARK    4  A    between atoms: C_13  and  O_14
REMARK    5  A    between atoms: O_14  and  P_15
REMARK    6  A    between atoms: C_21  and  O_22
REMARK                            x       y       z     vdW  Elec       q    Type
REMARK                         _______ _______ _______ _____ _____    ______ ____
ROOT
ATOM      1  C   UNL     1       2.942   3.799  18.541  0.00  0.00    +0.000 C 
ATOM      2  O   UNL     1       2.294   5.072  18.720  0.00  0.00    +0.000 OA
ATOM      3  C   UNL     1       1.458   5.052  19.902  0.00  0.00    +0.000 C 
ATOM      4  C   UNL     1       1.687   3.725  20.636  0.00  0.00    +0.000 C 
ATOM      5  C   UNL     1       2.932   3.246  19.950  0.00  0.00    +0.000 C 
ATOM      6  O   UNL     1       3.724   2.450  20.446  0.00  0.00    +0.000 OA
ENDROOT
BRANCH   1  15
ATOM      7  C   UNL     1       5.236   5.736  19.307  0.00  0.00    +0.000 C 
ATOM      8  C   UNL     1       5.384   4.304  18.790  0.00  0.00    +0.000 C 
ATOM      9  N   UNL     1       6.632   4.174  18.065  0.00  0.00    +0.000 N 
ATOM     10  C   UNL     1       6.782   4.309  16.711  0.00  0.00    +0.000 C 
ATOM     11  O   UNL     1       7.887   4.492  16.212  0.00  0.00    +0.000 OA
ATOM     12  C   UNL     1       5.555   4.172  15.908  0.00  0.00    +0.000 C 
ATOM     13  F   UNL     1       5.662   4.213  14.566  0.00  0.00    +0.000 F 
ATOM     14  C   UNL     1       4.403   3.972  16.542  0.00  0.00    +0.000 C 
ATOM     15  N   UNL     1       4.268   3.908  17.928  0.00  0.00    +0.000 N 
ATOM     16  H   UNL     1       7.493   4.302  18.577  0.00  0.00    +0.000 HD
ENDBRANCH   1  15
BRANCH   4  17
ATOM     17  O   UNL     1       0.606   2.820  20.444  0.00  0.00    +0.000 OA
ATOM     18  H   UNL     1       0.633   2.446  19.545  0.00  0.00    +0.000 HD
ENDBRANCH   4  17
BRANCH   3  19
ATOM     19  C   UNL     1       1.817   6.243  20.811  0.00  0.00    +0.000 C 
BRANCH  19  20
ATOM     20  O   UNL     1       0.801   7.259  20.788  0.00  0.00    +0.000 OA
BRANCH  20  21
ATOM     21  P   UNL     1       1.399   8.769  20.833  0.00  0.00    +0.000 P 
ATOM     22  O   UNL     1       1.968   8.926  19.334  0.00  0.00    +0.000 OA
ATOM     23  C   UNL     1       1.134   9.170  18.215  0.00  0.00    +0.000 C 
ATOM     24  C   UNL     1       0.142  10.284  18.476  0.00  0.00    +0.000 C 
ATOM     25  C   UNL     1      -0.728   9.835  19.630  0.00  0.00    +0.000 C 
ATOM     26  O   UNL     1       0.028   9.623  20.812  0.00  0.00    +0.000 OA
ENDBRANCH  20  21
ENDBRANCH  19  20
ENDBRANCH   3  19
TORSDOF 5
ENDMDL
