MODEL 1
REMARK VINA RESULT:      -8.0      0.000      0.000
REMARK  Name = 
REMARK  8 active torsions:
REMARK  status: ('A' for Active; 'I' for Inactive)
REMARK    1  A    between atoms: N_1  and  C_2
REMARK    2  A    between atoms: C_3  and  N_4
REMARK    3  A    between atoms: C_5  and  O_7
REMARK    4  A    between atoms: O_7  and  C_8
REMARK    5  A    between atoms: C_13  and  N_14
REMARK    6  A    between atoms: N_14  and  C_15
REMARK    7  A    between atoms: C_15  and  C_16
REMARK    8  A    between atoms: C_19  and  C_20
REMARK                            x       y       z     vdW  Elec       q    Type
REMARK                         _______ _______ _______ _____ _____    ______ ____
ROOT
ATOM      1  C   UNL     1       6.291   4.566  17.698  0.00  0.00    +0.000 A 
ATOM      2  C   UNL     1       5.464   4.040  16.693  0.00  0.00    +0.000 A 
ATOM      3  C   UNL     1       4.069   4.128  16.826  0.00  0.00    +0.000 A 
ATOM      4  C   UNL     1       3.498   4.721  17.963  0.00  0.00    +0.000 A 
ATOM      5  C   UNL     1       4.296   5.299  18.957  0.00  0.00    +0.000 A 
ATOM      6  C   UNL     1       5.682   5.201  18.796  0.00  0.00    +0.000 A 
ATOM      7  F   UNL     1       6.504   5.702  19.738  0.00  0.00    +0.000 F 
ENDROOT
BRANCH   2   8
ATOM      8  N   UNL     1       5.952   3.459  15.507  0.00  0.00    +0.000 N 
ATOM      9  C   UNL     1       6.436   4.106  14.405  0.00  0.00    +0.000 C 
ATOM     10  O   UNL     1       6.711   5.287  14.285  0.00  0.00    +0.000 OA
ATOM     11  H   UNL     1       6.119   2.464  15.489  0.00  0.00    +0.000 HD
BRANCH   9  12
ATOM     12  O   UNL     1       6.664   3.171  13.455  0.00  0.00    +0.000 OA
BRANCH  12  13
ATOM     13  C   UNL     1       6.222   3.465  12.125  0.00  0.00    +0.000 C 
ATOM     14  C   UNL     1       5.610   2.280  11.428  0.00  0.00    +0.000 C 
ATOM     15  C   UNL     1       4.731   3.375  11.961  0.00  0.00    +0.000 C 
ENDBRANCH  12  13
ENDBRANCH   9  12
ENDBRANCH   2   8
BRANCH   1  16
ATOM     16  N   UNL     1       7.689   4.740  17.535  0.00  0.00    +0.000 N 
ATOM     17  H   UNL     1       8.163   4.864  18.431  0.00  0.00    +0.000 HD
ATOM     18  H   UNL     1       7.894   5.524  16.918  0.00  0.00    +0.000 HD
ENDBRANCH   1  16
BRANCH   5  19
ATOM     19  N   UNL     1       3.663   5.859  20.076  0.00  0.00    +0.000 N 
ATOM     20  H   UNL     1       4.064   6.778  20.262  0.00  0.00    +0.000 HD
BRANCH  19  21
ATOM     21  C   UNL     1       2.199   5.965  20.028  0.00  0.00    +0.000 C 
BRANCH  21  22
ATOM     22  C   UNL     1       1.820   7.411  19.812  0.00  0.00    +0.000 A 
ATOM     23  C   UNL     1       1.247   8.183  20.831  0.00  0.00    +0.000 A 
ATOM     24  C   UNL     1       0.923   9.525  20.603  0.00  0.00    +0.000 A 
ATOM     25  C   UNL     1       1.170  10.120  19.357  0.00  0.00    +0.000 A 
ATOM     26  C   UNL     1       1.753   9.350  18.345  0.00  0.00    +0.000 A 
ATOM     27  C   UNL     1       2.081   8.012  18.573  0.00  0.00    +0.000 A 
BRANCH  25  28
ATOM     28  C   UNL     1       0.822  11.564  19.095  0.00  0.00    +0.000 C 
ATOM     29  F   UNL     1      -0.342  11.727  18.405  0.00  0.00    +0.000 F 
ATOM     30  F   UNL     1       0.676  12.282  20.244  0.00  0.00    +0.000 F 
ATOM     31  F   UNL     1       1.777  12.210  18.370  0.00  0.00    +0.000 F 
ENDBRANCH  25  28
ENDBRANCH  21  22
ENDBRANCH  19  21
ENDBRANCH   5  19
TORSDOF 8
ENDMDL
MODEL 2
REMARK VINA RESULT:      -7.8      0.530      1.360
REMARK  Name = 
REMARK  8 active torsions:
REMARK  status: ('A' for Active; 'I' for Inactive)
REMARK    1  A    between atoms: N_1  and  C_2
REMARK    2  A    between atoms: C_3  and  N_4
REMARK    3  A    between atoms: C_5  and  O_7
REMARK    4  A    between atoms: O_7  and  C_8
REMARK    5  A    between atoms: C_13  and  N_14
REMARK    6  A    between atoms: N_14  and  C_15
REMARK    7  A    between atoms: C_15  and  C_16
REMARK    8  A    between atoms: C_19  and  C_20
REMARK                            x       y       z     vdW  Elec       q    Type
REMARK                         _______ _______ _______ _____ _____    ______ ____
ROOT
ATOM      1  C   UNL     1       6.461   4.514  17.291  0.00  0.00    +0.000 A 
ATOM      2  C   UNL     1       5.574   4.249  16.235  0.00  0.00    +0.000 A 
ATOM      3  C   UNL     1       4.198   4.462  16.414  0.00  0.00    +0.000 A 
ATOM      4  C   UNL     1       3.703   4.922  17.645  0.00  0.00    +0.000 A 
ATOM      5  C   UNL     1       4.567   5.244  18.698  0.00  0.00    +0.000 A 
ATOM      6  C   UNL     1       5.933   5.025  18.490  0.00  0.00    +0.000 A 
ATOM      7  F   UNL     1       6.812   5.276  19.479  0.00  0.00    +0.000 F 
ENDROOT
BRANCH   2   8
ATOM      8  N   UNL     1       5.986   3.818  14.960  0.00  0.00    +0.000 N 
ATOM      9  C   UNL     1       6.766   4.497  14.067  0.00  0.00    +0.000 C 
ATOM     10  O   UNL     1       7.404   5.519  14.249  0.00  0.00    +0.000 OA
ATOM     11  H   UNL     1       5.837   2.853  14.703  0.00  0.00    +0.000 HD
BRANCH   9  12
ATOM     12  O   UNL     1       6.798   3.774  12.925  0.00  0.00    +0.000 OA
BRANCH  12  13
ATOM     13  C   UNL     1       5.719   2.859  12.696  0.00  0.00    +0.000 C 
ATOM     14  C   UNL     1       4.862   3.236  11.518  0.00  0.00    +0.000 C 
ATOM     15  C   UNL     1       5.843   2.105  11.402  0.00  0.00    +0.000 C 
ENDBRANCH  12  13
ENDBRANCH   9  12
ENDBRANCH   2   8
BRANCH   1  16
ATOM     16  N   UNL     1       7.868   4.561  17.122  0.00  0.00    +0.000 N 
ATOM     17  H   UNL     1       8.297   3.643  17.257  0.00  0.00    +0.000 HD
ATOM     18  H   UNL     1       8.293   5.242  17.750  0.00  0.00    +0.000 HD
ENDBRANCH   1  16
BRANCH   5  19
ATOM     19  N   UNL     1       4.007   5.681  19.908  0.00  0.00    +0.000 N 
ATOM     20  H   UNL     1       4.374   6.605  20.132  0.00  0.00    +0.000 HD
BRANCH  19  21
ATOM     21  C   UNL     1       2.541   5.703  19.993  0.00  0.00    +0.000 C 
BRANCH  21  22
ATOM     22  C   UNL     1       2.061   7.121  19.794  0.00  0.00    +0.000 A 
ATOM     23  C   UNL     1       2.211   7.785  18.570  0.00  0.00    +0.000 A 
ATOM     24  C   UNL     1       1.741   9.094  18.414  0.00  0.00    +0.000 A 
ATOM     25  C   UNL     1       1.108   9.758  19.475  0.00  0.00    +0.000 A 
ATOM     26  C   UNL     1       0.949   9.089  20.693  0.00  0.00    +0.000 A 
ATOM     27  C   UNL     1       1.414   7.781  20.848  0.00  0.00    +0.000 A 
BRANCH  25  28
ATOM     28  C   UNL     1       0.600  11.171  19.323  0.00  0.00    +0.000 C 
ATOM     29  F   UNL     1       0.523  11.852  20.501  0.00  0.00    +0.000 F 
ATOM     30  F   UNL     1       1.390  11.925  18.509  0.00  0.00    +0.000 F 
ATOM     31  F   UNL     1      -0.650  11.222  18.783  0.00  0.00    +0.000 F 
ENDBRANCH  25  28
ENDBRANCH  21  22
ENDBRANCH  19  21
ENDBRANCH   5  19
TORSDOF 8
ENDMDL
MODEL 3
REMARK VINA RESULT:      -7.7      4.722      7.180
REMARK  Name = 
REMARK  8 active torsions:
REMARK  status: ('A' for Active; 'I' for Inactive)
REMARK    1  A    between atoms: N_1  and  C_2
REMARK    2  A    between atoms: C_3  and  N_4
REMARK    3  A    between atoms: C_5  and  O_7
REMARK    4  A    between atoms: O_7  and  C_8
REMARK    5  A    between atoms: C_13  and  N_14
REMARK    6  A    between atoms: N_14  and  C_15
REMARK    7  A    between atoms: C_15  and  C_16
REMARK    8  A    between atoms: C_19  and  C_20
REMARK                            x       y       z     vdW  Elec       q    Type
REMARK                         _______ _______ _______ _____ _____    ______ ____
ROOT
ATOM      1  C   UNL     1       7.775   5.852  18.908  0.00  0.00    +0.000 A 
ATOM      2  C   UNL     1       8.032   7.109  18.335  0.00  0.00    +0.000 A 
ATOM      3  C   UNL     1       7.557   7.393  17.045  0.00  0.00    +0.000 A 
ATOM      4  C   UNL     1       6.843   6.426  16.320  0.00  0.00    +0.000 A 
ATOM      5  C   UNL     1       6.527   5.184  16.884  0.00  0.00    +0.000 A 
ATOM      6  C   UNL     1       7.010   4.929  18.172  0.00  0.00    +0.000 A 
ATOM      7  F   UNL     1       6.775   3.738  18.754  0.00  0.00    +0.000 F 
ENDROOT
BRANCH   2   8
ATOM      8  N   UNL     1       8.710   8.146  19.003  0.00  0.00    +0.000 N 
ATOM      9  C   UNL     1       8.727   9.471  18.674  0.00  0.00    +0.000 C 
ATOM     10  O   UNL     1       8.033  10.055  17.860  0.00  0.00    +0.000 OA
ATOM     11  H   UNL     1       9.113   7.956  19.909  0.00  0.00    +0.000 HD
BRANCH   9  12
ATOM     12  O   UNL     1       9.608  10.082  19.499  0.00  0.00    +0.000 OA
BRANCH  12  13
ATOM     13  C   UNL     1       9.905  11.459  19.238  0.00  0.00    +0.000 C 
ATOM     14  C   UNL     1      11.218  11.903  19.823  0.00  0.00    +0.000 C 
ATOM     15  C   UNL     1      11.101  11.651  18.348  0.00  0.00    +0.000 C 
ENDBRANCH  12  13
ENDBRANCH   9  12
ENDBRANCH   2   8
BRANCH   1  16
ATOM     16  N   UNL     1       8.001   5.570  20.279  0.00  0.00    +0.000 N 
ATOM     17  H   UNL     1       7.972   6.417  20.850  0.00  0.00    +0.000 HD
ATOM     18  H   UNL     1       8.886   5.084  20.415  0.00  0.00    +0.000 HD
ENDBRANCH   1  16
BRANCH   5  19
ATOM     19  N   UNL     1       5.828   4.256  16.099  0.00  0.00    +0.000 N 
ATOM     20  H   UNL     1       6.060   3.313  16.410  0.00  0.00    +0.000 HD
BRANCH  19  21
ATOM     21  C   UNL     1       4.368   4.405  16.037  0.00  0.00    +0.000 C 
BRANCH  21  22
ATOM     22  C   UNL     1       3.783   4.058  17.385  0.00  0.00    +0.000 A 
ATOM     23  C   UNL     1       3.791   2.745  17.877  0.00  0.00    +0.000 A 
ATOM     24  C   UNL     1       3.256   2.460  19.137  0.00  0.00    +0.000 A 
ATOM     25  C   UNL     1       2.710   3.480  19.931  0.00  0.00    +0.000 A 
ATOM     26  C   UNL     1       2.714   4.791  19.443  0.00  0.00    +0.000 A 
ATOM     27  C   UNL     1       3.252   5.077  18.187  0.00  0.00    +0.000 A 
BRANCH  25  28
ATOM     28  C   UNL     1       2.126   3.186  21.291  0.00  0.00    +0.000 C 
ATOM     29  F   UNL     1       2.753   2.168  21.945  0.00  0.00    +0.000 F 
ATOM     30  F   UNL     1       2.189   4.259  22.129  0.00  0.00    +0.000 F 
ATOM     31  F   UNL     1       0.811   2.835  21.232  0.00  0.00    +0.000 F 
ENDBRANCH  25  28
ENDBRANCH  21  22
ENDBRANCH  19  21
ENDBRANCH   5  19
TORSDOF 8
ENDMDL
MODEL 4
REMARK VINA RESULT:      -7.6      3.263      4.841
REMARK  Name = 
REMARK  8 active torsions:
REMARK  status: ('A' for Active; 'I' for Inactive)
REMARK    1  A    between atoms: N_1  and  C_2
REMARK    2  A    between atoms: C_3  and  N_4
REMARK    3  A    between atoms: C_5  and  O_7
REMARK    4  A    between atoms: O_7  and  C_8
REMARK    5  A    between atoms: C_13  and  N_14
REMARK    6  A    between atoms: N_14  and  C_15
REMARK    7  A    between atoms: C_15  and  C_16
REMARK    8  A    between atoms: C_19  and  C_20
REMARK                            x       y       z     vdW  Elec       q    Type
REMARK                         _______ _______ _______ _____ _____    ______ ____
ROOT
ATOM      1  C   UNL     1       2.577   6.303  19.618  0.00  0.00    +0.000 A 
ATOM      2  C   UNL     1       3.139   6.425  18.336  0.00  0.00    +0.000 A 
ATOM      3  C   UNL     1       2.974   7.621  17.618  0.00  0.00    +0.000 A 
ATOM      4  C   UNL     1       2.240   8.685  18.166  0.00  0.00    +0.000 A 
ATOM      5  C   UNL     1       1.713   8.611  19.460  0.00  0.00    +0.000 A 
ATOM      6  C   UNL     1       1.895   7.410  20.154  0.00  0.00    +0.000 A 
ATOM      7  F   UNL     1       1.377   7.262  21.388  0.00  0.00    +0.000 F 
ENDROOT
BRANCH   2   8
ATOM      8  N   UNL     1       3.916   5.423  17.727  0.00  0.00    +0.000 N 
ATOM      9  C   UNL     1       5.186   5.043  18.056  0.00  0.00    +0.000 C 
ATOM     10  O   UNL     1       5.835   5.357  19.038  0.00  0.00    +0.000 OA
ATOM     11  H   UNL     1       3.470   4.794  17.074  0.00  0.00    +0.000 HD
BRANCH   9  12
ATOM     12  O   UNL     1       5.594   4.146  17.130  0.00  0.00    +0.000 OA
BRANCH  12  13
ATOM     13  C   UNL     1       6.474   4.617  16.103  0.00  0.00    +0.000 C 
ATOM     14  C   UNL     1       6.301   3.892  14.795  0.00  0.00    +0.000 C 
ATOM     15  C   UNL     1       5.755   5.281  14.962  0.00  0.00    +0.000 C 
ENDBRANCH  12  13
ENDBRANCH   9  12
ENDBRANCH   2   8
BRANCH   1  16
ATOM     16  N   UNL     1       2.897   5.240  20.501  0.00  0.00    +0.000 N 
ATOM     17  H   UNL     1       3.846   5.326  20.869  0.00  0.00    +0.000 HD
ATOM     18  H   UNL     1       2.776   4.335  20.049  0.00  0.00    +0.000 HD
ENDBRANCH   1  16
BRANCH   5  19
ATOM     19  N   UNL     1       0.973   9.702  19.941  0.00  0.00    +0.000 N 
ATOM     20  H   UNL     1       1.391  10.033  20.809  0.00  0.00    +0.000 HD
BRANCH  19  21
ATOM     21  C   UNL     1       0.789  10.835  19.024  0.00  0.00    +0.000 C 
BRANCH  21  22
ATOM     22  C   UNL     1      -0.673  10.934  18.658  0.00  0.00    +0.000 A 
ATOM     23  C   UNL     1      -1.249  10.099  17.691  0.00  0.00    +0.000 A 
ATOM     24  C   UNL     1      -2.611  10.206  17.387  0.00  0.00    +0.000 A 
ATOM     25  C   UNL     1      -3.421  11.142  18.046  0.00  0.00    +0.000 A 
ATOM     26  C   UNL     1      -2.846  11.967  19.019  0.00  0.00    +0.000 A 
ATOM     27  C   UNL     1      -1.488  11.858  19.326  0.00  0.00    +0.000 A 
BRANCH  25  28
ATOM     28  C   UNL     1      -4.889  11.271  17.725  0.00  0.00    +0.000 C 
ATOM     29  F   UNL     1      -5.668  10.350  18.360  0.00  0.00    +0.000 F 
ATOM     30  F   UNL     1      -5.395  12.488  18.074  0.00  0.00    +0.000 F 
ATOM     31  F   UNL     1      -5.150  11.125  16.396  0.00  0.00    +0.000 F 
ENDBRANCH  25  28
ENDBRANCH  21  22
ENDBRANCH  19  21
ENDBRANCH   5  19
TORSDOF 8
ENDMDL
MODEL 5
REMARK VINA RESULT:      -7.4      2.705      3.802
REMARK  Name = 
REMARK  8 active torsions:
REMARK  status: ('A' for Active; 'I' for Inactive)
REMARK    1  A    between atoms: N_1  and  C_2
REMARK    2  A    between atoms: C_3  and  N_4
REMARK    3  A    between atoms: C_5  and  O_7
REMARK    4  A    between atoms: O_7  and  C_8
REMARK    5  A    between atoms: C_13  and  N_14
REMARK    6  A    between atoms: N_14  and  C_15
REMARK    7  A    between atoms: C_15  and  C_16
REMARK    8  A    between atoms: C_19  and  C_20
REMARK                            x       y       z     vdW  Elec       q    Type
REMARK                         _______ _______ _______ _____ _____    ______ ____
ROOT
ATOM      1  C   UNL     1       3.462   4.681  19.271  0.00  0.00    +0.000 A 
ATOM      2  C   UNL     1       3.910   5.376  18.136  0.00  0.00    +0.000 A 
ATOM      3  C   UNL     1       3.487   6.697  17.919  0.00  0.00    +0.000 A 
ATOM      4  C   UNL     1       2.608   7.320  18.818  0.00  0.00    +0.000 A 
ATOM      5  C   UNL     1       2.184   6.672  19.984  0.00  0.00    +0.000 A 
ATOM      6  C   UNL     1       2.624   5.358  20.177  0.00  0.00    +0.000 A 
ATOM      7  F   UNL     1       2.219   4.666  21.258  0.00  0.00    +0.000 F 
ENDROOT
BRANCH   2   8
ATOM      8  N   UNL     1       4.817   4.841  17.202  0.00  0.00    +0.000 N 
ATOM      9  C   UNL     1       6.132   4.533  17.406  0.00  0.00    +0.000 C 
ATOM     10  O   UNL     1       6.741   4.487  18.461  0.00  0.00    +0.000 OA
ATOM     11  H   UNL     1       4.460   4.493  16.324  0.00  0.00    +0.000 HD
BRANCH   9  12
ATOM     12  O   UNL     1       6.655   4.176  16.211  0.00  0.00    +0.000 OA
BRANCH  12  13
ATOM     13  C   UNL     1       6.133   4.825  15.046  0.00  0.00    +0.000 C 
ATOM     14  C   UNL     1       7.117   4.883  13.909  0.00  0.00    +0.000 C 
ATOM     15  C   UNL     1       5.981   3.903  13.869  0.00  0.00    +0.000 C 
ENDBRANCH  12  13
ENDBRANCH   9  12
ENDBRANCH   2   8
BRANCH   1  16
ATOM     16  N   UNL     1       4.023   3.449  19.693  0.00  0.00    +0.000 N 
ATOM     17  H   UNL     1       4.485   3.534  20.600  0.00  0.00    +0.000 HD
ATOM     18  H   UNL     1       4.675   3.085  19.000  0.00  0.00    +0.000 HD
ENDBRANCH   1  16
BRANCH   5  19
ATOM     19  N   UNL     1       1.290   7.343  20.832  0.00  0.00    +0.000 N 
ATOM     20  H   UNL     1       0.847   6.667  21.452  0.00  0.00    +0.000 HD
BRANCH  19  21
ATOM     21  C   UNL     1       1.833   8.453  21.625  0.00  0.00    +0.000 C 
BRANCH  21  22
ATOM     22  C   UNL     1       0.743   9.474  21.847  0.00  0.00    +0.000 A 
ATOM     23  C   UNL     1       0.383  10.395  20.854  0.00  0.00    +0.000 A 
ATOM     24  C   UNL     1      -0.643  11.318  21.086  0.00  0.00    +0.000 A 
ATOM     25  C   UNL     1      -1.330  11.333  22.309  0.00  0.00    +0.000 A 
ATOM     26  C   UNL     1      -0.976  10.405  23.294  0.00  0.00    +0.000 A 
ATOM     27  C   UNL     1       0.044   9.481  23.062  0.00  0.00    +0.000 A 
BRANCH  25  28
ATOM     28  C   UNL     1      -2.435  12.325  22.574  0.00  0.00    +0.000 C 
ATOM     29  F   UNL     1      -3.256  11.964  23.601  0.00  0.00    +0.000 F 
ATOM     30  F   UNL     1      -1.961  13.561  22.896  0.00  0.00    +0.000 F 
ATOM     31  F   UNL     1      -3.247  12.505  21.495  0.00  0.00    +0.000 F 
ENDBRANCH  25  28
ENDBRANCH  21  22
ENDBRANCH  19  21
ENDBRANCH   5  19
TORSDOF 8
ENDMDL
MODEL 6
REMARK VINA RESULT:      -7.4      1.365      1.955
REMARK  Name = 
REMARK  8 active torsions:
REMARK  status: ('A' for Active; 'I' for Inactive)
REMARK    1  A    between atoms: N_1  and  C_2
REMARK    2  A    between atoms: C_3  and  N_4
REMARK    3  A    between atoms: C_5  and  O_7
REMARK    4  A    between atoms: O_7  and  C_8
REMARK    5  A    between atoms: C_13  and  N_14
REMARK    6  A    between atoms: N_14  and  C_15
REMARK    7  A    between atoms: C_15  and  C_16
REMARK    8  A    between atoms: C_19  and  C_20
REMARK                            x       y       z     vdW  Elec       q    Type
REMARK                         _______ _______ _______ _____ _____    ______ ____
ROOT
ATOM      1  C   UNL     1       5.066   6.036  16.229  0.00  0.00    +0.000 A 
ATOM      2  C   UNL     1       5.137   4.663  15.944  0.00  0.00    +0.000 A 
ATOM      3  C   UNL     1       4.746   3.731  16.919  0.00  0.00    +0.000 A 
ATOM      4  C   UNL     1       4.301   4.162  18.179  0.00  0.00    +0.000 A 
ATOM      5  C   UNL     1       4.171   5.524  18.474  0.00  0.00    +0.000 A 
ATOM      6  C   UNL     1       4.564   6.430  17.483  0.00  0.00    +0.000 A 
ATOM      7  F   UNL     1       4.501   7.754  17.720  0.00  0.00    +0.000 F 
ENDROOT
BRANCH   2   8
ATOM      8  N   UNL     1       5.539   4.144  14.698  0.00  0.00    +0.000 N 
ATOM      9  C   UNL     1       6.632   4.506  13.964  0.00  0.00    +0.000 C 
ATOM     10  O   UNL     1       7.569   5.207  14.302  0.00  0.00    +0.000 OA
ATOM     11  H   UNL     1       5.083   3.313  14.350  0.00  0.00    +0.000 HD
BRANCH   9  12
ATOM     12  O   UNL     1       6.557   3.856  12.780  0.00  0.00    +0.000 OA
BRANCH  12  13
ATOM     13  C   UNL     1       5.472   2.939  12.602  0.00  0.00    +0.000 C 
ATOM     14  C   UNL     1       4.670   3.203  11.356  0.00  0.00    +0.000 C 
ATOM     15  C   UNL     1       5.633   2.052  11.399  0.00  0.00    +0.000 C 
ENDBRANCH  12  13
ENDBRANCH   9  12
ENDBRANCH   2   8
BRANCH   1  16
ATOM     16  N   UNL     1       5.204   7.038  15.235  0.00  0.00    +0.000 N 
ATOM     17  H   UNL     1       4.724   6.782  14.370  0.00  0.00    +0.000 HD
ATOM     18  H   UNL     1       6.186   7.237  15.046  0.00  0.00    +0.000 HD
ENDBRANCH   1  16
BRANCH   5  19
ATOM     19  N   UNL     1       3.739   5.889  19.757  0.00  0.00    +0.000 N 
ATOM     20  H   UNL     1       4.115   6.808  19.988  0.00  0.00    +0.000 HD
BRANCH  19  21
ATOM     21  C   UNL     1       2.290   5.879  19.999  0.00  0.00    +0.000 C 
BRANCH  21  22
ATOM     22  C   UNL     1       1.795   7.305  20.063  0.00  0.00    +0.000 A 
ATOM     23  C   UNL     1       1.799   8.138  18.936  0.00  0.00    +0.000 A 
ATOM     24  C   UNL     1       1.319   9.449  19.026  0.00  0.00    +0.000 A 
ATOM     25  C   UNL     1       0.821   9.948  20.239  0.00  0.00    +0.000 A 
ATOM     26  C   UNL     1       0.808   9.111  21.359  0.00  0.00    +0.000 A 
ATOM     27  C   UNL     1       1.283   7.801  21.270  0.00  0.00    +0.000 A 
BRANCH  25  28
ATOM     28  C   UNL     1       0.304  11.361  20.351  0.00  0.00    +0.000 C 
ATOM     29  F   UNL     1       1.287  12.305  20.320  0.00  0.00    +0.000 F 
ATOM     30  F   UNL     1      -0.553  11.684  19.343  0.00  0.00    +0.000 F 
ATOM     31  F   UNL     1      -0.382  11.577  21.508  0.00  0.00    +0.000 F 
ENDBRANCH  25  28
ENDBRANCH  21  22
ENDBRANCH  19  21
ENDBRANCH   5  19
TORSDOF 8
ENDMDL
MODEL 7
REMARK VINA RESULT:      -7.3      2.823      3.846
REMARK  Name = 
REMARK  8 active torsions:
REMARK  status: ('A' for Active; 'I' for Inactive)
REMARK    1  A    between atoms: N_1  and  C_2
REMARK    2  A    between atoms: C_3  and  N_4
REMARK    3  A    between atoms: C_5  and  O_7
REMARK    4  A    between atoms: O_7  and  C_8
REMARK    5  A    between atoms: C_13  and  N_14
REMARK    6  A    between atoms: N_14  and  C_15
REMARK    7  A    between atoms: C_15  and  C_16
REMARK    8  A    between atoms: C_19  and  C_20
REMARK                            x       y       z     vdW  Elec       q    Type
REMARK                         _______ _______ _______ _____ _____    ______ ____
ROOT
ATOM      1  C   UNL     1       3.166   4.701  19.320  0.00  0.00    +0.000 A 
ATOM      2  C   UNL     1       3.697   5.380  18.211  0.00  0.00    +0.000 A 
ATOM      3  C   UNL     1       3.374   6.731  18.005  0.00  0.00    +0.000 A 
ATOM      4  C   UNL     1       2.514   7.400  18.889  0.00  0.00    +0.000 A 
ATOM      5  C   UNL     1       2.011   6.766  20.031  0.00  0.00    +0.000 A 
ATOM      6  C   UNL     1       2.351   5.421  20.213  0.00  0.00    +0.000 A 
ATOM      7  F   UNL     1       1.866   4.743  21.271  0.00  0.00    +0.000 F 
ENDROOT
BRANCH   2   8
ATOM      8  N   UNL     1       4.591   4.796  17.295  0.00  0.00    +0.000 N 
ATOM      9  C   UNL     1       5.904   4.482  17.503  0.00  0.00    +0.000 C 
ATOM     10  O   UNL     1       6.519   4.473  18.555  0.00  0.00    +0.000 OA
ATOM     11  H   UNL     1       4.224   4.416  16.434  0.00  0.00    +0.000 HD
BRANCH   9  12
ATOM     12  O   UNL     1       6.415   4.069  16.321  0.00  0.00    +0.000 OA
BRANCH  12  13
ATOM     13  C   UNL     1       5.973   4.751  15.141  0.00  0.00    +0.000 C 
ATOM     14  C   UNL     1       7.071   4.969  14.136  0.00  0.00    +0.000 C 
ATOM     15  C   UNL     1       6.041   3.903  13.903  0.00  0.00    +0.000 C 
ENDBRANCH  12  13
ENDBRANCH   9  12
ENDBRANCH   2   8
BRANCH   1  16
ATOM     16  N   UNL     1       3.626   3.426  19.737  0.00  0.00    +0.000 N 
ATOM     17  H   UNL     1       4.579   3.469  20.105  0.00  0.00    +0.000 HD
ATOM     18  H   UNL     1       3.574   2.749  18.978  0.00  0.00    +0.000 HD
ENDBRANCH   1  16
BRANCH   5  19
ATOM     19  N   UNL     1       1.141   7.485  20.864  0.00  0.00    +0.000 N 
ATOM     20  H   UNL     1       0.749   6.855  21.562  0.00  0.00    +0.000 HD
BRANCH  19  21
ATOM     21  C   UNL     1       1.691   8.672  21.532  0.00  0.00    +0.000 C 
BRANCH  21  22
ATOM     22  C   UNL     1       0.564   9.632  21.830  0.00  0.00    +0.000 A 
ATOM     23  C   UNL     1      -0.106   9.622  23.061  0.00  0.00    +0.000 A 
ATOM     24  C   UNL     1      -1.136  10.536  23.311  0.00  0.00    +0.000 A 
ATOM     25  C   UNL     1      -1.510  11.477  22.341  0.00  0.00    +0.000 A 
ATOM     26  C   UNL     1      -0.832  11.492  21.117  0.00  0.00    +0.000 A 
ATOM     27  C   UNL     1       0.199  10.584  20.868  0.00  0.00    +0.000 A 
BRANCH  25  28
ATOM     28  C   UNL     1      -2.621  12.466  22.595  0.00  0.00    +0.000 C 
ATOM     29  F   UNL     1      -3.635  12.391  21.687  0.00  0.00    +0.000 F 
ATOM     30  F   UNL     1      -3.203  12.294  23.815  0.00  0.00    +0.000 F 
ATOM     31  F   UNL     1      -2.190  13.757  22.565  0.00  0.00    +0.000 F 
ENDBRANCH  25  28
ENDBRANCH  21  22
ENDBRANCH  19  21
ENDBRANCH   5  19
TORSDOF 8
ENDMDL
MODEL 8
REMARK VINA RESULT:      -7.3      4.985      9.925
REMARK  Name = 
REMARK  8 active torsions:
REMARK  status: ('A' for Active; 'I' for Inactive)
REMARK    1  A    between atoms: N_1  and  C_2
REMARK    2  A    between atoms: C_3  and  N_4
REMARK    3  A    between atoms: C_5  and  O_7
REMARK    4  A    between atoms: O_7  and  C_8
REMARK    5  A    between atoms: C_13  and  N_14
REMARK    6  A    between atoms: N_14  and  C_15
REMARK    7  A    between atoms: C_15  and  C_16
REMARK    8  A    between atoms: C_19  and  C_20
REMARK                            x       y       z     vdW  Elec       q    Type
REMARK                         _______ _______ _______ _____ _____    ______ ____
ROOT
ATOM      1  C   UNL     1       0.585  10.010  19.321  0.00  0.00    +0.000 A 
ATOM      2  C   UNL     1      -0.084  10.096  20.553  0.00  0.00    +0.000 A 
ATOM      3  C   UNL     1       0.183   9.148  21.554  0.00  0.00    +0.000 A 
ATOM      4  C   UNL     1       1.098   8.109  21.325  0.00  0.00    +0.000 A 
ATOM      5  C   UNL     1       1.817   8.027  20.127  0.00  0.00    +0.000 A 
ATOM      6  C   UNL     1       1.534   8.986  19.149  0.00  0.00    +0.000 A 
ATOM      7  F   UNL     1       2.163   8.938  17.959  0.00  0.00    +0.000 F 
ENDROOT
BRANCH   2   8
ATOM      8  N   UNL     1      -0.990  11.122  20.879  0.00  0.00    +0.000 N 
ATOM      9  C   UNL     1      -0.728  12.272  21.568  0.00  0.00    +0.000 C 
ATOM     10  O   UNL     1       0.356  12.730  21.884  0.00  0.00    +0.000 OA
ATOM     11  H   UNL     1      -1.902  11.118  20.446  0.00  0.00    +0.000 HD
BRANCH   9  12
ATOM     12  O   UNL     1      -1.908  12.902  21.770  0.00  0.00    +0.000 OA
BRANCH  12  13
ATOM     13  C   UNL     1      -2.549  12.705  23.035  0.00  0.00    +0.000 C 
ATOM     14  C   UNL     1      -3.213  13.947  23.563  0.00  0.00    +0.000 C 
ATOM     15  C   UNL     1      -4.044  12.845  22.973  0.00  0.00    +0.000 C 
ENDBRANCH  12  13
ENDBRANCH   9  12
ENDBRANCH   2   8
BRANCH   1  16
ATOM     16  N   UNL     1       0.561  11.050  18.357  0.00  0.00    +0.000 N 
ATOM     17  H   UNL     1      -0.274  11.004  17.770  0.00  0.00    +0.000 HD
ATOM     18  H   UNL     1       1.399  11.035  17.777  0.00  0.00    +0.000 HD
ENDBRANCH   1  16
BRANCH   5  19
ATOM     19  N   UNL     1       2.702   6.953  19.954  0.00  0.00    +0.000 N 
ATOM     20  H   UNL     1       3.040   6.647  20.866  0.00  0.00    +0.000 HD
BRANCH  19  21
ATOM     21  C   UNL     1       2.202   5.793  19.204  0.00  0.00    +0.000 C 
BRANCH  21  22
ATOM     22  C   UNL     1       3.178   5.468  18.098  0.00  0.00    +0.000 A 
ATOM     23  C   UNL     1       3.969   6.457  17.499  0.00  0.00    +0.000 A 
ATOM     24  C   UNL     1       4.875   6.119  16.488  0.00  0.00    +0.000 A 
ATOM     25  C   UNL     1       5.012   4.789  16.063  0.00  0.00    +0.000 A 
ATOM     26  C   UNL     1       4.230   3.802  16.672  0.00  0.00    +0.000 A 
ATOM     27  C   UNL     1       3.328   4.137  17.684  0.00  0.00    +0.000 A 
BRANCH  25  28
ATOM     28  C   UNL     1       5.983   4.411  14.972  0.00  0.00    +0.000 C 
ATOM     29  F   UNL     1       5.412   4.337  13.736  0.00  0.00    +0.000 F 
ATOM     30  F   UNL     1       7.008   5.301  14.853  0.00  0.00    +0.000 F 
ATOM     31  F   UNL     1       6.564   3.198  15.185  0.00  0.00    +0.000 F 
ENDBRANCH  25  28
ENDBRANCH  21  22
ENDBRANCH  19  21
ENDBRANCH   5  19
TORSDOF 8
ENDMDL
MODEL 9
REMARK VINA RESULT:      -7.3      3.408      5.061
REMARK  Name = 
REMARK  8 active torsions:
REMARK  status: ('A' for Active; 'I' for Inactive)
REMARK    1  A    between atoms: N_1  and  C_2
REMARK    2  A    between atoms: C_3  and  N_4
REMARK    3  A    between atoms: C_5  and  O_7
REMARK    4  A    between atoms: O_7  and  C_8
REMARK    5  A    between atoms: C_13  and  N_14
REMARK    6  A    between atoms: N_14  and  C_15
REMARK    7  A    between atoms: C_15  and  C_16
REMARK    8  A    between atoms: C_19  and  C_20
REMARK                            x       y       z     vdW  Elec       q    Type
REMARK                         _______ _______ _______ _____ _____    ______ ____
ROOT
ATOM      1  C   UNL     1       2.478   6.623  19.693  0.00  0.00    +0.000 A 
ATOM      2  C   UNL     1       3.042   6.711  18.410  0.00  0.00    +0.000 A 
ATOM      3  C   UNL     1       2.855   7.876  17.648  0.00  0.00    +0.000 A 
ATOM      4  C   UNL     1       2.094   8.942  18.153  0.00  0.00    +0.000 A 
ATOM      5  C   UNL     1       1.562   8.904  19.447  0.00  0.00    +0.000 A 
ATOM      6  C   UNL     1       1.768   7.734  20.185  0.00  0.00    +0.000 A 
ATOM      7  F   UNL     1       1.247   7.619  21.421  0.00  0.00    +0.000 F 
ENDROOT
BRANCH   2   8
ATOM      8  N   UNL     1       3.845   5.705  17.840  0.00  0.00    +0.000 N 
ATOM      9  C   UNL     1       5.054   5.256  18.289  0.00  0.00    +0.000 C 
ATOM     10  O   UNL     1       5.600   5.497  19.352  0.00  0.00    +0.000 OA
ATOM     11  H   UNL     1       3.452   5.127  17.112  0.00  0.00    +0.000 HD
BRANCH   9  12
ATOM     12  O   UNL     1       5.530   4.385  17.370  0.00  0.00    +0.000 OA
BRANCH  12  13
ATOM     13  C   UNL     1       5.638   4.851  16.020  0.00  0.00    +0.000 C 
ATOM     14  C   UNL     1       7.022   4.696  15.449  0.00  0.00    +0.000 C 
ATOM     15  C   UNL     1       5.929   3.754  15.034  0.00  0.00    +0.000 C 
ENDBRANCH  12  13
ENDBRANCH   9  12
ENDBRANCH   2   8
BRANCH   1  16
ATOM     16  N   UNL     1       2.816   5.601  20.615  0.00  0.00    +0.000 N 
ATOM     17  H   UNL     1       2.464   5.805  21.553  0.00  0.00    +0.000 HD
ATOM     18  H   UNL     1       3.823   5.448  20.644  0.00  0.00    +0.000 HD
ENDBRANCH   1  16
BRANCH   5  19
ATOM     19  N   UNL     1       0.796   9.995  19.884  0.00  0.00    +0.000 N 
ATOM     20  H   UNL     1       1.243  10.411  20.701  0.00  0.00    +0.000 HD
BRANCH  19  21
ATOM     21  C   UNL     1       0.508  11.043  18.897  0.00  0.00    +0.000 C 
BRANCH  21  22
ATOM     22  C   UNL     1      -0.988  11.154  18.724  0.00  0.00    +0.000 A 
ATOM     23  C   UNL     1      -1.751  12.062  19.470  0.00  0.00    +0.000 A 
ATOM     24  C   UNL     1      -3.133  12.151  19.274  0.00  0.00    +0.000 A 
ATOM     25  C   UNL     1      -3.776  11.341  18.326  0.00  0.00    +0.000 A 
ATOM     26  C   UNL     1      -3.010  10.443  17.575  0.00  0.00    +0.000 A 
ATOM     27  C   UNL     1      -1.630  10.356  17.767  0.00  0.00    +0.000 A 
BRANCH  25  28
ATOM     28  C   UNL     1      -5.267  11.423  18.107  0.00  0.00    +0.000 C 
ATOM     29  F   UNL     1      -5.926  10.268  18.408  0.00  0.00    +0.000 F 
ATOM     30  F   UNL     1      -5.853  12.392  18.864  0.00  0.00    +0.000 F 
ATOM     31  F   UNL     1      -5.591  11.709  16.815  0.00  0.00    +0.000 F 
ENDBRANCH  25  28
ENDBRANCH  21  22
ENDBRANCH  19  21
ENDBRANCH   5  19
TORSDOF 8
ENDMDL
