MODEL 1
REMARK VINA RESULT:      -7.3      0.000      0.000
REMARK  Name = 
REMARK  5 active torsions:
REMARK  status: ('A' for Active; 'I' for Inactive)
REMARK    1  A    between atoms: N_1  and  C_2
REMARK    2  A    between atoms: C_4  and  S_5
REMARK    3  A    between atoms: S_5  and  C_6
REMARK    4  A    between atoms: C_6  and  C_7
REMARK    5  A    between atoms: C_7  and  C_8
REMARK                            x       y       z     vdW  Elec       q    Type
REMARK                         _______ _______ _______ _____ _____    ______ ____
ROOT
ATOM      1  C   UNL     1       2.576   5.293  20.207  0.00  0.00    +0.000 A 
ATOM      2  N   UNL     1       3.145   4.346  19.438  0.00  0.00    +0.000 NA
ATOM      3  C   UNL     1       3.465   4.639  18.167  0.00  0.00    +0.000 A 
ATOM      4  N   UNL     1       3.280   5.812  17.546  0.00  0.00    +0.000 NA
ATOM      5  C   UNL     1       2.703   6.732  18.332  0.00  0.00    +0.000 A 
ATOM      6  S   UNL     1       2.377   8.318  17.741  0.00  0.00    +0.000 S 
ATOM      7  C   UNL     1       1.716   8.754  19.211  0.00  0.00    +0.000 A 
ATOM      8  C   UNL     1       1.721   7.752  20.144  0.00  0.00    +0.000 A 
ATOM      9  C   UNL     1       2.311   6.555  19.658  0.00  0.00    +0.000 A 
ATOM     10  C   UNL     1       1.106   8.211  21.417  0.00  0.00    +0.000 C 
ATOM     11  C   UNL     1       0.405   9.538  20.987  0.00  0.00    +0.000 C 
ATOM     12  C   UNL     1       1.125  10.025  19.692  0.00  0.00    +0.000 C 
ENDROOT
BRANCH   1  13
ATOM     13  N   UNL     1       2.294   4.961  21.516  0.00  0.00    +0.000 N 
ATOM     14  H   UNL     1       1.452   4.424  21.653  0.00  0.00    +0.000 HD
ATOM     15  H   UNL     1       2.642   5.539  22.265  0.00  0.00    +0.000 HD
ENDBRANCH   1  13
BRANCH   3  16
ATOM     16  S   UNL     1       4.230   3.366  17.174  0.00  0.00    +0.000 S 
BRANCH  16  17
ATOM     17  C   UNL     1       4.998   4.349  15.834  0.00  0.00    +0.000 C 
BRANCH  17  18
ATOM     18  C   UNL     1       6.527   4.307  15.885  0.00  0.00    +0.000 C 
BRANCH  18  19
ATOM     19  C   UNL     1       7.112   5.284  16.880  0.00  0.00    +0.000 A 
ATOM     20  C   UNL     1       7.149   6.657  16.595  0.00  0.00    +0.000 A 
ATOM     21  C   UNL     1       7.639   7.564  17.537  0.00  0.00    +0.000 A 
ATOM     22  C   UNL     1       8.108   7.110  18.767  0.00  0.00    +0.000 A 
ATOM     23  C   UNL     1       8.092   5.746  19.056  0.00  0.00    +0.000 A 
ATOM     24  C   UNL     1       7.600   4.838  18.116  0.00  0.00    +0.000 A 
ENDBRANCH  18  19
ENDBRANCH  17  18
ENDBRANCH  16  17
ENDBRANCH   3  16
TORSDOF 5
ENDMDL
MODEL 2
REMARK VINA RESULT:      -7.3      0.101      1.033
REMARK  Name = 
REMARK  5 active torsions:
REMARK  status: ('A' for Active; 'I' for Inactive)
REMARK    1  A    between atoms: N_1  and  C_2
REMARK    2  A    between atoms: C_4  and  S_5
REMARK    3  A    between atoms: S_5  and  C_6
REMARK    4  A    between atoms: C_6  and  C_7
REMARK    5  A    between atoms: C_7  and  C_8
REMARK                            x       y       z     vdW  Elec       q    Type
REMARK                         _______ _______ _______ _____ _____    ______ ____
ROOT
ATOM      1  C   UNL     1       2.610   5.202  20.241  0.00  0.00    +0.000 A 
ATOM      2  N   UNL     1       3.203   4.258  19.486  0.00  0.00    +0.000 NA
ATOM      3  C   UNL     1       3.548   4.552  18.221  0.00  0.00    +0.000 A 
ATOM      4  N   UNL     1       3.368   5.723  17.595  0.00  0.00    +0.000 NA
ATOM      5  C   UNL     1       2.767   6.639  18.367  0.00  0.00    +0.000 A 
ATOM      6  S   UNL     1       2.442   8.222  17.767  0.00  0.00    +0.000 S 
ATOM      7  C   UNL     1       1.746   8.654  19.222  0.00  0.00    +0.000 A 
ATOM      8  C   UNL     1       1.738   7.654  20.156  0.00  0.00    +0.000 A 
ATOM      9  C   UNL     1       2.348   6.461  19.684  0.00  0.00    +0.000 A 
ATOM     10  C   UNL     1       1.093   8.110  21.415  0.00  0.00    +0.000 C 
ATOM     11  C   UNL     1       0.391   9.431  20.968  0.00  0.00    +0.000 C 
ATOM     12  C   UNL     1       1.135   9.922  19.689  0.00  0.00    +0.000 C 
ENDROOT
BRANCH   1  13
ATOM     13  N   UNL     1       2.304   4.870  21.544  0.00  0.00    +0.000 N 
ATOM     14  H   UNL     1       1.486   4.289  21.661  0.00  0.00    +0.000 HD
ATOM     15  H   UNL     1       2.595   5.473  22.297  0.00  0.00    +0.000 HD
ENDBRANCH   1  13
BRANCH   3  16
ATOM     16  S   UNL     1       4.344   3.284  17.247  0.00  0.00    +0.000 S 
BRANCH  16  17
ATOM     17  C   UNL     1       4.999   4.252  15.837  0.00  0.00    +0.000 C 
BRANCH  17  18
ATOM     18  C   UNL     1       6.526   4.344  15.854  0.00  0.00    +0.000 C 
BRANCH  18  19
ATOM     19  C   UNL     1       7.048   5.316  16.889  0.00  0.00    +0.000 A 
ATOM     20  C   UNL     1       7.490   4.858  18.138  0.00  0.00    +0.000 A 
ATOM     21  C   UNL     1       8.023   5.749  19.072  0.00  0.00    +0.000 A 
ATOM     22  C   UNL     1       8.110   7.106  18.773  0.00  0.00    +0.000 A 
ATOM     23  C   UNL     1       7.659   7.576  17.540  0.00  0.00    +0.000 A 
ATOM     24  C   UNL     1       7.127   6.686  16.605  0.00  0.00    +0.000 A 
ENDBRANCH  18  19
ENDBRANCH  17  18
ENDBRANCH  16  17
ENDBRANCH   3  16
TORSDOF 5
ENDMDL
MODEL 3
REMARK VINA RESULT:      -7.1      2.260      4.041
REMARK  Name = 
REMARK  5 active torsions:
REMARK  status: ('A' for Active; 'I' for Inactive)
REMARK    1  A    between atoms: N_1  and  C_2
REMARK    2  A    between atoms: C_4  and  S_5
REMARK    3  A    between atoms: S_5  and  C_6
REMARK    4  A    between atoms: C_6  and  C_7
REMARK    5  A    between atoms: C_7  and  C_8
REMARK                            x       y       z     vdW  Elec       q    Type
REMARK                         _______ _______ _______ _____ _____    ______ ____
ROOT
ATOM      1  C   UNL     1       2.357   6.769  19.929  0.00  0.00    +0.000 A 
ATOM      2  N   UNL     1       3.163   6.073  19.107  0.00  0.00    +0.000 NA
ATOM      3  C   UNL     1       3.540   6.621  17.939  0.00  0.00    +0.000 A 
ATOM      4  N   UNL     1       3.197   7.831  17.477  0.00  0.00    +0.000 NA
ATOM      5  C   UNL     1       2.386   8.497  18.312  0.00  0.00    +0.000 A 
ATOM      6  S   UNL     1       1.825  10.079  17.921  0.00  0.00    +0.000 S 
ATOM      7  C   UNL     1       0.960  10.148  19.348  0.00  0.00    +0.000 A 
ATOM      8  C   UNL     1       1.065   9.023  20.119  0.00  0.00    +0.000 A 
ATOM      9  C   UNL     1       1.912   8.040  19.540  0.00  0.00    +0.000 A 
ATOM     10  C   UNL     1       0.259   9.155  21.361  0.00  0.00    +0.000 C 
ATOM     11  C   UNL     1      -0.636  10.394  21.045  0.00  0.00    +0.000 C 
ATOM     12  C   UNL     1       0.098  11.203  19.932  0.00  0.00    +0.000 C 
ENDROOT
BRANCH   1  13
ATOM     13  N   UNL     1       2.022   6.184  21.132  0.00  0.00    +0.000 N 
ATOM     14  H   UNL     1       2.738   6.216  21.842  0.00  0.00    +0.000 HD
ATOM     15  H   UNL     1       1.330   5.451  21.158  0.00  0.00    +0.000 HD
ENDBRANCH   1  13
BRANCH   3  16
ATOM     16  S   UNL     1       4.620   5.679  16.873  0.00  0.00    +0.000 S 
BRANCH  16  17
ATOM     17  C   UNL     1       4.994   4.221  17.915  0.00  0.00    +0.000 C 
BRANCH  17  18
ATOM     18  C   UNL     1       3.987   3.087  17.711  0.00  0.00    +0.000 C 
BRANCH  18  19
ATOM     19  C   UNL     1       3.031   2.928  18.873  0.00  0.00    +0.000 A 
ATOM     20  C   UNL     1       3.517   2.721  20.172  0.00  0.00    +0.000 A 
ATOM     21  C   UNL     1       2.636   2.629  21.252  0.00  0.00    +0.000 A 
ATOM     22  C   UNL     1       1.263   2.733  21.045  0.00  0.00    +0.000 A 
ATOM     23  C   UNL     1       0.767   2.922  19.756  0.00  0.00    +0.000 A 
ATOM     24  C   UNL     1       1.647   3.016  18.675  0.00  0.00    +0.000 A 
ENDBRANCH  18  19
ENDBRANCH  17  18
ENDBRANCH  16  17
ENDBRANCH   3  16
TORSDOF 5
ENDMDL
MODEL 4
REMARK VINA RESULT:      -7.0      2.571      3.960
REMARK  Name = 
REMARK  5 active torsions:
REMARK  status: ('A' for Active; 'I' for Inactive)
REMARK    1  A    between atoms: N_1  and  C_2
REMARK    2  A    between atoms: C_4  and  S_5
REMARK    3  A    between atoms: S_5  and  C_6
REMARK    4  A    between atoms: C_6  and  C_7
REMARK    5  A    between atoms: C_7  and  C_8
REMARK                            x       y       z     vdW  Elec       q    Type
REMARK                         _______ _______ _______ _____ _____    ______ ____
ROOT
ATOM      1  C   UNL     1       2.310   6.754  19.965  0.00  0.00    +0.000 A 
ATOM      2  N   UNL     1       3.122   5.994  19.207  0.00  0.00    +0.000 NA
ATOM      3  C   UNL     1       3.553   6.471  18.027  0.00  0.00    +0.000 A 
ATOM      4  N   UNL     1       3.261   7.666  17.493  0.00  0.00    +0.000 NA
ATOM      5  C   UNL     1       2.443   8.395  18.265  0.00  0.00    +0.000 A 
ATOM      6  S   UNL     1       1.942   9.970  17.776  0.00  0.00    +0.000 S 
ATOM      7  C   UNL     1       1.032  10.136  19.167  0.00  0.00    +0.000 A 
ATOM      8  C   UNL     1       1.079   9.049  19.997  0.00  0.00    +0.000 A 
ATOM      9  C   UNL     1       1.916   8.015  19.497  0.00  0.00    +0.000 A 
ATOM     10  C   UNL     1       0.237   9.267  21.202  0.00  0.00    +0.000 C 
ATOM     11  C   UNL     1      -0.610  10.513  20.793  0.00  0.00    +0.000 C 
ATOM     12  C   UNL     1       0.183  11.243  19.667  0.00  0.00    +0.000 C 
ENDROOT
BRANCH   1  13
ATOM     13  N   UNL     1       1.918   6.241  21.184  0.00  0.00    +0.000 N 
ATOM     14  H   UNL     1       2.438   5.436  21.500  0.00  0.00    +0.000 HD
ATOM     15  H   UNL     1       0.974   6.380  21.506  0.00  0.00    +0.000 HD
ENDBRANCH   1  13
BRANCH   3  16
ATOM     16  S   UNL     1       4.639   5.446  17.047  0.00  0.00    +0.000 S 
BRANCH  16  17
ATOM     17  C   UNL     1       3.602   3.963  16.768  0.00  0.00    +0.000 C 
BRANCH  17  18
ATOM     18  C   UNL     1       3.913   2.842  17.762  0.00  0.00    +0.000 C 
BRANCH  18  19
ATOM     19  C   UNL     1       2.996   2.847  18.965  0.00  0.00    +0.000 A 
ATOM     20  C   UNL     1       1.612   3.001  18.805  0.00  0.00    +0.000 A 
ATOM     21  C   UNL     1       0.761   2.951  19.912  0.00  0.00    +0.000 A 
ATOM     22  C   UNL     1       1.284   2.756  21.188  0.00  0.00    +0.000 A 
ATOM     23  C   UNL     1       2.660   2.618  21.361  0.00  0.00    +0.000 A 
ATOM     24  C   UNL     1       3.512   2.666  20.255  0.00  0.00    +0.000 A 
ENDBRANCH  18  19
ENDBRANCH  17  18
ENDBRANCH  16  17
ENDBRANCH   3  16
TORSDOF 5
ENDMDL
MODEL 5
REMARK VINA RESULT:      -7.0      3.656      5.792
REMARK  Name = 
REMARK  5 active torsions:
REMARK  status: ('A' for Active; 'I' for Inactive)
REMARK    1  A    between atoms: N_1  and  C_2
REMARK    2  A    between atoms: C_4  and  S_5
REMARK    3  A    between atoms: S_5  and  C_6
REMARK    4  A    between atoms: C_6  and  C_7
REMARK    5  A    between atoms: C_7  and  C_8
REMARK                            x       y       z     vdW  Elec       q    Type
REMARK                         _______ _______ _______ _____ _____    ______ ____
ROOT
ATOM      1  C   UNL     1       0.442   9.675  21.341  0.00  0.00    +0.000 A 
ATOM      2  N   UNL     1       1.145   9.107  20.343  0.00  0.00    +0.000 NA
ATOM      3  C   UNL     1       0.970   9.547  19.086  0.00  0.00    +0.000 A 
ATOM      4  N   UNL     1       0.147  10.528  18.689  0.00  0.00    +0.000 NA
ATOM      5  C   UNL     1      -0.547  11.067  19.702  0.00  0.00    +0.000 A 
ATOM      6  S   UNL     1      -1.662  12.351  19.422  0.00  0.00    +0.000 S 
ATOM      7  C   UNL     1      -2.044  12.402  21.047  0.00  0.00    +0.000 A 
ATOM      8  C   UNL     1      -1.371  11.485  21.808  0.00  0.00    +0.000 A 
ATOM      9  C   UNL     1      -0.470  10.696  21.043  0.00  0.00    +0.000 A 
ATOM     10  C   UNL     1      -1.774  11.583  23.234  0.00  0.00    +0.000 C 
ATOM     11  C   UNL     1      -3.062  12.462  23.156  0.00  0.00    +0.000 C 
ATOM     12  C   UNL     1      -2.979  13.256  21.817  0.00  0.00    +0.000 C 
ENDROOT
BRANCH   1  13
ATOM     13  N   UNL     1       0.677   9.217  22.621  0.00  0.00    +0.000 N 
ATOM     14  H   UNL     1       0.179   9.703  23.351  0.00  0.00    +0.000 HD
ATOM     15  H   UNL     1       1.546   8.754  22.836  0.00  0.00    +0.000 HD
ENDBRANCH   1  13
BRANCH   3  16
ATOM     16  S   UNL     1       1.925   8.784  17.783  0.00  0.00    +0.000 S 
BRANCH  16  17
ATOM     17  C   UNL     1       2.867   7.514  18.706  0.00  0.00    +0.000 C 
BRANCH  17  18
ATOM     18  C   UNL     1       2.946   6.185  17.951  0.00  0.00    +0.000 C 
BRANCH  18  19
ATOM     19  C   UNL     1       2.184   5.071  18.634  0.00  0.00    +0.000 A 
ATOM     20  C   UNL     1       1.727   3.966  17.901  0.00  0.00    +0.000 A 
ATOM     21  C   UNL     1       1.072   2.912  18.543  0.00  0.00    +0.000 A 
ATOM     22  C   UNL     1       0.857   2.956  19.918  0.00  0.00    +0.000 A 
ATOM     23  C   UNL     1       1.292   4.057  20.654  0.00  0.00    +0.000 A 
ATOM     24  C   UNL     1       1.949   5.110  20.015  0.00  0.00    +0.000 A 
ENDBRANCH  18  19
ENDBRANCH  17  18
ENDBRANCH  16  17
ENDBRANCH   3  16
TORSDOF 5
ENDMDL
MODEL 6
REMARK VINA RESULT:      -6.9      2.337      3.659
REMARK  Name = 
REMARK  5 active torsions:
REMARK  status: ('A' for Active; 'I' for Inactive)
REMARK    1  A    between atoms: N_1  and  C_2
REMARK    2  A    between atoms: C_4  and  S_5
REMARK    3  A    between atoms: S_5  and  C_6
REMARK    4  A    between atoms: C_6  and  C_7
REMARK    5  A    between atoms: C_7  and  C_8
REMARK                            x       y       z     vdW  Elec       q    Type
REMARK                         _______ _______ _______ _____ _____    ______ ____
ROOT
ATOM      1  C   UNL     1       1.490   9.316  18.765  0.00  0.00    +0.000 A 
ATOM      2  N   UNL     1       2.147   8.143  18.708  0.00  0.00    +0.000 NA
ATOM      3  C   UNL     1       2.116   7.321  19.771  0.00  0.00    +0.000 A 
ATOM      4  N   UNL     1       1.479   7.539  20.931  0.00  0.00    +0.000 NA
ATOM      5  C   UNL     1       0.843   8.719  20.962  0.00  0.00    +0.000 A 
ATOM      6  S   UNL     1      -0.048   9.203  22.355  0.00  0.00    +0.000 S 
ATOM      7  C   UNL     1      -0.460  10.644  21.618  0.00  0.00    +0.000 A 
ATOM      8  C   UNL     1       0.049  10.790  20.356  0.00  0.00    +0.000 A 
ATOM      9  C   UNL     1       0.807   9.664  19.939  0.00  0.00    +0.000 A 
ATOM     10  C   UNL     1      -0.348  12.098  19.774  0.00  0.00    +0.000 C 
ATOM     11  C   UNL     1      -0.879  12.870  21.023  0.00  0.00    +0.000 C 
ATOM     12  C   UNL     1      -1.275  11.794  22.079  0.00  0.00    +0.000 C 
ENDROOT
BRANCH   1  13
ATOM     13  N   UNL     1       1.520  10.113  17.640  0.00  0.00    +0.000 N 
ATOM     14  H   UNL     1       1.141  11.041  17.759  0.00  0.00    +0.000 HD
ATOM     15  H   UNL     1       1.519   9.690  16.726  0.00  0.00    +0.000 HD
ENDBRANCH   1  13
BRANCH   3  16
ATOM     16  S   UNL     1       2.986   5.765  19.663  0.00  0.00    +0.000 S 
BRANCH  16  17
ATOM     17  C   UNL     1       3.107   5.531  17.851  0.00  0.00    +0.000 C 
BRANCH  17  18
ATOM     18  C   UNL     1       4.401   4.823  17.442  0.00  0.00    +0.000 C 
BRANCH  18  19
ATOM     19  C   UNL     1       5.643   5.614  17.790  0.00  0.00    +0.000 A 
ATOM     20  C   UNL     1       6.516   5.165  18.791  0.00  0.00    +0.000 A 
ATOM     21  C   UNL     1       7.690   5.867  19.074  0.00  0.00    +0.000 A 
ATOM     22  C   UNL     1       7.999   7.027  18.368  0.00  0.00    +0.000 A 
ATOM     23  C   UNL     1       7.130   7.492  17.381  0.00  0.00    +0.000 A 
ATOM     24  C   UNL     1       5.956   6.791  17.097  0.00  0.00    +0.000 A 
ENDBRANCH  18  19
ENDBRANCH  17  18
ENDBRANCH  16  17
ENDBRANCH   3  16
TORSDOF 5
ENDMDL
MODEL 7
REMARK VINA RESULT:      -6.9      2.420      3.625
REMARK  Name = 
REMARK  5 active torsions:
REMARK  status: ('A' for Active; 'I' for Inactive)
REMARK    1  A    between atoms: N_1  and  C_2
REMARK    2  A    between atoms: C_4  and  S_5
REMARK    3  A    between atoms: S_5  and  C_6
REMARK    4  A    between atoms: C_6  and  C_7
REMARK    5  A    between atoms: C_7  and  C_8
REMARK                            x       y       z     vdW  Elec       q    Type
REMARK                         _______ _______ _______ _____ _____    ______ ____
ROOT
ATOM      1  C   UNL     1       1.326   9.490  18.887  0.00  0.00    +0.000 A 
ATOM      2  N   UNL     1       1.999   8.332  18.759  0.00  0.00    +0.000 NA
ATOM      3  C   UNL     1       2.055   7.486  19.802  0.00  0.00    +0.000 A 
ATOM      4  N   UNL     1       1.494   7.665  21.006  0.00  0.00    +0.000 NA
ATOM      5  C   UNL     1       0.839   8.831  21.108  0.00  0.00    +0.000 A 
ATOM      6  S   UNL     1       0.034   9.266  22.568  0.00  0.00    +0.000 S 
ATOM      7  C   UNL     1      -0.453  10.714  21.894  0.00  0.00    +0.000 A 
ATOM      8  C   UNL     1      -0.033  10.899  20.605  0.00  0.00    +0.000 A 
ATOM      9  C   UNL     1       0.717   9.798  20.111  0.00  0.00    +0.000 A 
ATOM     10  C   UNL     1      -0.493  12.211  20.081  0.00  0.00    +0.000 C 
ATOM     11  C   UNL     1      -0.952  12.944  21.381  0.00  0.00    +0.000 C 
ATOM     12  C   UNL     1      -1.256  11.837  22.435  0.00  0.00    +0.000 C 
ENDROOT
BRANCH   1  13
ATOM     13  N   UNL     1       1.265  10.312  17.782  0.00  0.00    +0.000 N 
ATOM     14  H   UNL     1       1.951  10.125  17.066  0.00  0.00    +0.000 HD
ATOM     15  H   UNL     1       0.878  11.239  17.867  0.00  0.00    +0.000 HD
ENDBRANCH   1  13
BRANCH   3  16
ATOM     16  S   UNL     1       2.945   5.951  19.599  0.00  0.00    +0.000 S 
BRANCH  16  17
ATOM     17  C   UNL     1       3.161   5.882  17.783  0.00  0.00    +0.000 C 
BRANCH  17  18
ATOM     18  C   UNL     1       4.380   5.053  17.373  0.00  0.00    +0.000 C 
BRANCH  18  19
ATOM     19  C   UNL     1       5.692   5.709  17.744  0.00  0.00    +0.000 A 
ATOM     20  C   UNL     1       6.104   6.889  17.108  0.00  0.00    +0.000 A 
ATOM     21  C   UNL     1       7.289   7.523  17.489  0.00  0.00    +0.000 A 
ATOM     22  C   UNL     1       8.078   6.981  18.501  0.00  0.00    +0.000 A 
ATOM     23  C   UNL     1       7.687   5.799  19.129  0.00  0.00    +0.000 A 
ATOM     24  C   UNL     1       6.502   5.165  18.750  0.00  0.00    +0.000 A 
ENDBRANCH  18  19
ENDBRANCH  17  18
ENDBRANCH  16  17
ENDBRANCH   3  16
TORSDOF 5
ENDMDL
MODEL 8
REMARK VINA RESULT:      -6.9      3.044      5.006
REMARK  Name = 
REMARK  5 active torsions:
REMARK  status: ('A' for Active; 'I' for Inactive)
REMARK    1  A    between atoms: N_1  and  C_2
REMARK    2  A    between atoms: C_4  and  S_5
REMARK    3  A    between atoms: S_5  and  C_6
REMARK    4  A    between atoms: C_6  and  C_7
REMARK    5  A    between atoms: C_7  and  C_8
REMARK                            x       y       z     vdW  Elec       q    Type
REMARK                         _______ _______ _______ _____ _____    ______ ____
ROOT
ATOM      1  C   UNL     1       3.742   6.570  18.206  0.00  0.00    +0.000 A 
ATOM      2  N   UNL     1       4.897   7.007  17.673  0.00  0.00    +0.000 NA
ATOM      3  C   UNL     1       5.978   6.209  17.706  0.00  0.00    +0.000 A 
ATOM      4  N   UNL     1       6.045   4.976  18.227  0.00  0.00    +0.000 NA
ATOM      5  C   UNL     1       4.883   4.572  18.760  0.00  0.00    +0.000 A 
ATOM      6  S   UNL     1       4.739   3.013  19.480  0.00  0.00    +0.000 S 
ATOM      7  C   UNL     1       3.138   3.310  19.853  0.00  0.00    +0.000 A 
ATOM      8  C   UNL     1       2.694   4.544  19.464  0.00  0.00    +0.000 A 
ATOM      9  C   UNL     1       3.697   5.303  18.803  0.00  0.00    +0.000 A 
ATOM     10  C   UNL     1       1.270   4.738  19.842  0.00  0.00    +0.000 C 
ATOM     11  C   UNL     1       1.029   3.563  20.841  0.00  0.00    +0.000 C 
ATOM     12  C   UNL     1       2.110   2.483  20.530  0.00  0.00    +0.000 C 
ENDROOT
BRANCH   1  13
ATOM     13  N   UNL     1       2.648   7.406  18.121  0.00  0.00    +0.000 N 
ATOM     14  H   UNL     1       2.481   7.807  17.209  0.00  0.00    +0.000 HD
ATOM     15  H   UNL     1       2.322   7.890  18.942  0.00  0.00    +0.000 HD
ENDBRANCH   1  13
BRANCH   3  16
ATOM     16  S   UNL     1       7.495   6.811  16.980  0.00  0.00    +0.000 S 
BRANCH  16  17
ATOM     17  C   UNL     1       8.093   7.967  18.267  0.00  0.00    +0.000 C 
BRANCH  17  18
ATOM     18  C   UNL     1       8.057   9.424  17.802  0.00  0.00    +0.000 C 
BRANCH  18  19
ATOM     19  C   UNL     1       9.092  10.289  18.486  0.00  0.00    +0.000 A 
ATOM     20  C   UNL     1       9.118  10.400  19.884  0.00  0.00    +0.000 A 
ATOM     21  C   UNL     1      10.108  11.155  20.517  0.00  0.00    +0.000 A 
ATOM     22  C   UNL     1      11.075  11.814  19.762  0.00  0.00    +0.000 A 
ATOM     23  C   UNL     1      11.050  11.724  18.371  0.00  0.00    +0.000 A 
ATOM     24  C   UNL     1      10.062  10.969  17.737  0.00  0.00    +0.000 A 
ENDBRANCH  18  19
ENDBRANCH  17  18
ENDBRANCH  16  17
ENDBRANCH   3  16
TORSDOF 5
ENDMDL
MODEL 9
REMARK VINA RESULT:      -6.8      3.957      6.133
REMARK  Name = 
REMARK  5 active torsions:
REMARK  status: ('A' for Active; 'I' for Inactive)
REMARK    1  A    between atoms: N_1  and  C_2
REMARK    2  A    between atoms: C_4  and  S_5
REMARK    3  A    between atoms: S_5  and  C_6
REMARK    4  A    between atoms: C_6  and  C_7
REMARK    5  A    between atoms: C_7  and  C_8
REMARK                            x       y       z     vdW  Elec       q    Type
REMARK                         _______ _______ _______ _____ _____    ______ ____
ROOT
ATOM      1  C   UNL     1      -0.284   9.718  21.472  0.00  0.00    +0.000 A 
ATOM      2  N   UNL     1       0.490   9.145  20.532  0.00  0.00    +0.000 NA
ATOM      3  C   UNL     1       0.770   9.827  19.408  0.00  0.00    +0.000 A 
ATOM      4  N   UNL     1       0.354  11.063  19.099  0.00  0.00    +0.000 NA
ATOM      5  C   UNL     1      -0.423  11.603  20.049  0.00  0.00    +0.000 A 
ATOM      6  S   UNL     1      -1.065  13.192  19.864  0.00  0.00    +0.000 S 
ATOM      7  C   UNL     1      -1.836  13.076  21.340  0.00  0.00    +0.000 A 
ATOM      8  C   UNL     1      -1.640  11.882  21.980  0.00  0.00    +0.000 A 
ATOM      9  C   UNL     1      -0.798  11.002  21.248  0.00  0.00    +0.000 A 
ATOM     10  C   UNL     1      -2.367  11.850  23.276  0.00  0.00    +0.000 C 
ATOM     11  C   UNL     1      -3.324  13.077  23.150  0.00  0.00    +0.000 C 
ATOM     12  C   UNL     1      -2.695  14.027  22.086  0.00  0.00    +0.000 C 
ENDROOT
BRANCH   1  13
ATOM     13  N   UNL     1      -0.518   8.997  22.625  0.00  0.00    +0.000 N 
ATOM     14  H   UNL     1      -0.252   8.024  22.587  0.00  0.00    +0.000 HD
ATOM     15  H   UNL     1      -1.244   9.288  23.259  0.00  0.00    +0.000 HD
ENDBRANCH   1  13
BRANCH   3  16
ATOM     16  S   UNL     1       1.810   9.047  18.183  0.00  0.00    +0.000 S 
BRANCH  16  17
ATOM     17  C   UNL     1       2.376   7.550  19.073  0.00  0.00    +0.000 C 
BRANCH  17  18
ATOM     18  C   UNL     1       2.511   6.339  18.146  0.00  0.00    +0.000 C 
BRANCH  18  19
ATOM     19  C   UNL     1       2.002   5.058  18.769  0.00  0.00    +0.000 A 
ATOM     20  C   UNL     1       1.788   4.974  20.152  0.00  0.00    +0.000 A 
ATOM     21  C   UNL     1       1.267   3.808  20.719  0.00  0.00    +0.000 A 
ATOM     22  C   UNL     1       0.965   2.713  19.913  0.00  0.00    +0.000 A 
ATOM     23  C   UNL     1       1.189   2.779  18.539  0.00  0.00    +0.000 A 
ATOM     24  C   UNL     1       1.708   3.944  17.971  0.00  0.00    +0.000 A 
ENDBRANCH  18  19
ENDBRANCH  17  18
ENDBRANCH  16  17
ENDBRANCH   3  16
TORSDOF 5
ENDMDL
