MODEL 1
REMARK VINA RESULT:      -9.9      0.000      0.000
REMARK  Name = 
REMARK  6 active torsions:
REMARK  status: ('A' for Active; 'I' for Inactive)
REMARK    1  A    between atoms: C_1  and  N_2
REMARK    2  A    between atoms: C_3  and  C_5
REMARK    3  A    between atoms: C_8  and  N_9
REMARK    4  A    between atoms: N_13  and  C_14
REMARK    5  A    between atoms: C_19  and  C_20
REMARK    6  A    between atoms: N_22  and  C_23
REMARK                            x       y       z     vdW  Elec       q    Type
REMARK                         _______ _______ _______ _____ _____    ______ ____
ROOT
ATOM      1  N   UNL     1       2.315   7.375  18.271  0.00  0.00    +0.000 N 
ATOM      2  C   UNL     1       2.761   6.155  18.797  0.00  0.00    +0.000 A 
ATOM      3  N   UNL     1       3.863   5.640  18.231  0.00  0.00    +0.000 NA
ATOM      4  C   UNL     1       4.392   4.460  18.664  0.00  0.00    +0.000 A 
ATOM      5  N   UNL     1       5.580   3.995  18.081  0.00  0.00    +0.000 N 
ATOM      6  C   UNL     1       3.728   3.801  19.708  0.00  0.00    +0.000 A 
ATOM      7  C   UNL     1       3.847   2.575  20.424  0.00  0.00    +0.000 A 
ATOM      8  C   UNL     1       2.831   2.533  21.361  0.00  0.00    +0.000 A 
ATOM      9  N   UNL     1       2.101   3.688  21.238  0.00  0.00    +0.000 N 
ATOM     10  C   UNL     1       2.616   4.438  20.220  0.00  0.00    +0.000 A 
ATOM     11  N   UNL     1       2.096   5.598  19.820  0.00  0.00    +0.000 NA
ATOM     12  H   UNL     1       3.016   7.682  17.606  0.00  0.00    +0.000 HD
ATOM     13  H   UNL     1       6.070   3.257  18.569  0.00  0.00    +0.000 HD
ATOM     14  H   UNL     1       1.294   3.955  21.782  0.00  0.00    +0.000 HD
ENDROOT
BRANCH   1  18
ATOM     15  C   UNL     1       0.731  10.515  20.605  0.00  0.00    +0.000 A 
ATOM     16  C   UNL     1       0.937  10.701  19.235  0.00  0.00    +0.000 A 
ATOM     17  C   UNL     1       1.441   9.658  18.462  0.00  0.00    +0.000 A 
ATOM     18  C   UNL     1       1.787   8.428  19.042  0.00  0.00    +0.000 A 
ATOM     19  C   UNL     1       1.543   8.239  20.405  0.00  0.00    +0.000 A 
ATOM     20  C   UNL     1       1.039   9.282  21.191  0.00  0.00    +0.000 A 
BRANCH  15  23
ATOM     21  C   UNL     1      -1.531  12.316  23.034  0.00  0.00    +0.000 C 
ATOM     22  N   UNL     1      -0.926  11.335  22.175  0.00  0.00    +0.000 N 
ATOM     23  C   UNL     1       0.214  11.621  21.453  0.00  0.00    +0.000 C 
ATOM     24  O   UNL     1       0.800  12.696  21.499  0.00  0.00    +0.000 OA
ATOM     25  H   UNL     1      -1.265  10.384  22.218  0.00  0.00    +0.000 HD
ENDBRANCH  15  23
ENDBRANCH   1  18
BRANCH   5  26
ATOM     26  C   UNL     1       6.050   4.295  16.783  0.00  0.00    +0.000 A 
ATOM     27  C   UNL     1       5.661   3.471  15.709  0.00  0.00    +0.000 A 
ATOM     28  C   UNL     1       6.031   3.739  14.391  0.00  0.00    +0.000 A 
ATOM     29  C   UNL     1       6.796   4.864  14.109  0.00  0.00    +0.000 A 
ATOM     30  C   UNL     1       7.211   5.692  15.156  0.00  0.00    +0.000 A 
ATOM     31  C   UNL     1       6.850   5.420  16.490  0.00  0.00    +0.000 A 
BRANCH  31  32
ATOM     32  C   UNL     1       7.396   6.363  17.509  0.00  0.00    +0.000 C 
ATOM     33  O   UNL     1       7.696   5.947  18.624  0.00  0.00    +0.000 OA
ATOM     34  N   UNL     1       7.565   7.681  17.136  0.00  0.00    +0.000 N 
ATOM     35  C   UNL     1       8.148   8.636  18.048  0.00  0.00    +0.000 C 
ATOM     36  H   UNL     1       7.547   7.894  16.144  0.00  0.00    +0.000 HD
ENDBRANCH  31  32
ENDBRANCH   5  26
TORSDOF 4
ENDMDL
MODEL 2
REMARK VINA RESULT:      -9.7      0.716      1.125
REMARK  Name = 
REMARK  6 active torsions:
REMARK  status: ('A' for Active; 'I' for Inactive)
REMARK    1  A    between atoms: C_1  and  N_2
REMARK    2  A    between atoms: C_3  and  C_5
REMARK    3  A    between atoms: C_8  and  N_9
REMARK    4  A    between atoms: N_13  and  C_14
REMARK    5  A    between atoms: C_19  and  C_20
REMARK    6  A    between atoms: N_22  and  C_23
REMARK                            x       y       z     vdW  Elec       q    Type
REMARK                         _______ _______ _______ _____ _____    ______ ____
ROOT
ATOM      1  N   UNL     1       2.249   7.352  18.158  0.00  0.00    +0.000 N 
ATOM      2  C   UNL     1       2.682   6.140  18.713  0.00  0.00    +0.000 A 
ATOM      3  N   UNL     1       3.791   5.611  18.172  0.00  0.00    +0.000 NA
ATOM      4  C   UNL     1       4.309   4.438  18.636  0.00  0.00    +0.000 A 
ATOM      5  N   UNL     1       5.503   3.957  18.080  0.00  0.00    +0.000 N 
ATOM      6  C   UNL     1       3.628   3.801  19.683  0.00  0.00    +0.000 A 
ATOM      7  C   UNL     1       3.731   2.589  20.423  0.00  0.00    +0.000 A 
ATOM      8  C   UNL     1       2.702   2.568  21.346  0.00  0.00    +0.000 A 
ATOM      9  N   UNL     1       1.978   3.723  21.191  0.00  0.00    +0.000 N 
ATOM     10  C   UNL     1       2.510   4.452  20.166  0.00  0.00    +0.000 A 
ATOM     11  N   UNL     1       2.001   5.606  19.737  0.00  0.00    +0.000 NA
ATOM     12  H   UNL     1       2.961   7.644  17.497  0.00  0.00    +0.000 HD
ATOM     13  H   UNL     1       5.984   3.227  18.588  0.00  0.00    +0.000 HD
ATOM     14  H   UNL     1       1.164   4.004  21.718  0.00  0.00    +0.000 HD
ENDROOT
BRANCH   1  18
ATOM     15  C   UNL     1       0.646  10.576  20.361  0.00  0.00    +0.000 A 
ATOM     16  C   UNL     1       1.011   9.397  21.017  0.00  0.00    +0.000 A 
ATOM     17  C   UNL     1       1.558   8.341  20.292  0.00  0.00    +0.000 A 
ATOM     18  C   UNL     1       1.714   8.422  18.900  0.00  0.00    +0.000 A 
ATOM     19  C   UNL     1       1.381   9.618  18.258  0.00  0.00    +0.000 A 
ATOM     20  C   UNL     1       0.827  10.684  18.977  0.00  0.00    +0.000 A 
BRANCH  15  23
ATOM     21  C   UNL     1      -1.037  13.907  20.936  0.00  0.00    +0.000 C 
ATOM     22  N   UNL     1      -0.429  12.750  20.338  0.00  0.00    +0.000 N 
ATOM     23  C   UNL     1       0.039  11.707  21.111  0.00  0.00    +0.000 C 
ATOM     24  O   UNL     1      -0.041  11.672  22.332  0.00  0.00    +0.000 OA
ATOM     25  H   UNL     1      -0.480  12.645  19.334  0.00  0.00    +0.000 HD
ENDBRANCH  15  23
ENDBRANCH   1  18
BRANCH   5  26
ATOM     26  C   UNL     1       5.993   4.230  16.782  0.00  0.00    +0.000 A 
ATOM     27  C   UNL     1       5.570   3.423  15.709  0.00  0.00    +0.000 A 
ATOM     28  C   UNL     1       5.958   3.670  14.392  0.00  0.00    +0.000 A 
ATOM     29  C   UNL     1       6.778   4.756  14.110  0.00  0.00    +0.000 A 
ATOM     30  C   UNL     1       7.227   5.566  15.158  0.00  0.00    +0.000 A 
ATOM     31  C   UNL     1       6.848   5.315  16.490  0.00  0.00    +0.000 A 
BRANCH  31  32
ATOM     32  C   UNL     1       7.433   6.234  17.510  0.00  0.00    +0.000 C 
ATOM     33  O   UNL     1       7.774   5.792  18.602  0.00  0.00    +0.000 OA
ATOM     34  N   UNL     1       7.590   7.560  17.161  0.00  0.00    +0.000 N 
ATOM     35  C   UNL     1       8.208   8.494  18.072  0.00  0.00    +0.000 C 
ATOM     36  H   UNL     1       7.535   7.796  16.175  0.00  0.00    +0.000 HD
ENDBRANCH  31  32
ENDBRANCH   5  26
TORSDOF 4
ENDMDL
MODEL 3
REMARK VINA RESULT:      -9.7      1.180      1.479
REMARK  Name = 
REMARK  6 active torsions:
REMARK  status: ('A' for Active; 'I' for Inactive)
REMARK    1  A    between atoms: C_1  and  N_2
REMARK    2  A    between atoms: C_3  and  C_5
REMARK    3  A    between atoms: C_8  and  N_9
REMARK    4  A    between atoms: N_13  and  C_14
REMARK    5  A    between atoms: C_19  and  C_20
REMARK    6  A    between atoms: N_22  and  C_23
REMARK                            x       y       z     vdW  Elec       q    Type
REMARK                         _______ _______ _______ _____ _____    ______ ____
ROOT
ATOM      1  N   UNL     1       2.437   7.160  17.621  0.00  0.00    +0.000 N 
ATOM      2  C   UNL     1       2.590   5.789  17.873  0.00  0.00    +0.000 A 
ATOM      3  N   UNL     1       3.683   5.215  17.347  0.00  0.00    +0.000 NA
ATOM      4  C   UNL     1       3.939   3.889  17.532  0.00  0.00    +0.000 A 
ATOM      5  N   UNL     1       5.126   3.349  17.015  0.00  0.00    +0.000 N 
ATOM      6  C   UNL     1       3.008   3.149  18.275  0.00  0.00    +0.000 A 
ATOM      7  C   UNL     1       2.809   1.794  18.663  0.00  0.00    +0.000 A 
ATOM      8  C   UNL     1       1.649   1.735  19.413  0.00  0.00    +0.000 A 
ATOM      9  N   UNL     1       1.137   3.006  19.492  0.00  0.00    +0.000 N 
ATOM     10  C   UNL     1       1.933   3.855  18.778  0.00  0.00    +0.000 A 
ATOM     11  N   UNL     1       1.677   5.153  18.621  0.00  0.00    +0.000 NA
ATOM     12  H   UNL     1       3.283   7.469  17.156  0.00  0.00    +0.000 HD
ATOM     13  H   UNL     1       5.403   2.440  17.360  0.00  0.00    +0.000 HD
ATOM     14  H   UNL     1       0.297   3.293  19.973  0.00  0.00    +0.000 HD
ENDROOT
BRANCH   1  18
ATOM     15  C   UNL     1       0.970   9.973  20.405  0.00  0.00    +0.000 A 
ATOM     16  C   UNL     1       1.421   8.727  20.846  0.00  0.00    +0.000 A 
ATOM     17  C   UNL     1       1.923   7.806  19.929  0.00  0.00    +0.000 A 
ATOM     18  C   UNL     1       1.948   8.091  18.556  0.00  0.00    +0.000 A 
ATOM     19  C   UNL     1       1.529   9.355  18.128  0.00  0.00    +0.000 A 
ATOM     20  C   UNL     1       1.020  10.285  19.041  0.00  0.00    +0.000 A 
BRANCH  15  23
ATOM     21  C   UNL     1      -1.317  11.387  23.056  0.00  0.00    +0.000 C 
ATOM     22  N   UNL     1      -0.678  10.530  22.095  0.00  0.00    +0.000 N 
ATOM     23  C   UNL     1       0.410  10.961  21.363  0.00  0.00    +0.000 C 
ATOM     24  O   UNL     1       0.918  12.069  21.483  0.00  0.00    +0.000 OA
ATOM     25  H   UNL     1      -0.945   9.556  22.066  0.00  0.00    +0.000 HD
ENDBRANCH  15  23
ENDBRANCH   1  18
BRANCH   5  26
ATOM     26  C   UNL     1       5.860   3.840  15.911  0.00  0.00    +0.000 A 
ATOM     27  C   UNL     1       5.513   3.410  14.616  0.00  0.00    +0.000 A 
ATOM     28  C   UNL     1       6.147   3.899  13.473  0.00  0.00    +0.000 A 
ATOM     29  C   UNL     1       7.145   4.857  13.600  0.00  0.00    +0.000 A 
ATOM     30  C   UNL     1       7.521   5.291  14.874  0.00  0.00    +0.000 A 
ATOM     31  C   UNL     1       6.894   4.794  16.032  0.00  0.00    +0.000 A 
BRANCH  31  32
ATOM     32  C   UNL     1       7.423   5.315  17.326  0.00  0.00    +0.000 C 
ATOM     33  O   UNL     1       7.678   4.533  18.237  0.00  0.00    +0.000 OA
ATOM     34  N   UNL     1       7.628   6.675  17.432  0.00  0.00    +0.000 N 
ATOM     35  C   UNL     1       8.198   7.243  18.630  0.00  0.00    +0.000 C 
ATOM     36  H   UNL     1       7.647   7.216  16.573  0.00  0.00    +0.000 HD
ENDBRANCH  31  32
ENDBRANCH   5  26
TORSDOF 4
ENDMDL
MODEL 4
REMARK VINA RESULT:      -9.6      1.337      1.357
REMARK  Name = 
REMARK  6 active torsions:
REMARK  status: ('A' for Active; 'I' for Inactive)
REMARK    1  A    between atoms: C_1  and  N_2
REMARK    2  A    between atoms: C_3  and  C_5
REMARK    3  A    between atoms: C_8  and  N_9
REMARK    4  A    between atoms: N_13  and  C_14
REMARK    5  A    between atoms: C_19  and  C_20
REMARK    6  A    between atoms: N_22  and  C_23
REMARK                            x       y       z     vdW  Elec       q    Type
REMARK                         _______ _______ _______ _____ _____    ______ ____
ROOT
ATOM      1  N   UNL     1       2.434   7.120  17.670  0.00  0.00    +0.000 N 
ATOM      2  C   UNL     1       2.592   5.747  17.902  0.00  0.00    +0.000 A 
ATOM      3  N   UNL     1       3.686   5.184  17.367  0.00  0.00    +0.000 NA
ATOM      4  C   UNL     1       3.947   3.856  17.533  0.00  0.00    +0.000 A 
ATOM      5  N   UNL     1       5.134   3.327  17.006  0.00  0.00    +0.000 N 
ATOM      6  C   UNL     1       3.019   3.103  18.266  0.00  0.00    +0.000 A 
ATOM      7  C   UNL     1       2.824   1.741  18.636  0.00  0.00    +0.000 A 
ATOM      8  C   UNL     1       1.666   1.668  19.386  0.00  0.00    +0.000 A 
ATOM      9  N   UNL     1       1.151   2.936  19.484  0.00  0.00    +0.000 N 
ATOM     10  C   UNL     1       1.943   3.798  18.781  0.00  0.00    +0.000 A 
ATOM     11  N   UNL     1       1.682   5.097  18.643  0.00  0.00    +0.000 NA
ATOM     12  H   UNL     1       3.279   7.439  17.208  0.00  0.00    +0.000 HD
ATOM     13  H   UNL     1       5.415   2.414  17.337  0.00  0.00    +0.000 HD
ATOM     14  H   UNL     1       0.310   3.213  19.970  0.00  0.00    +0.000 HD
ENDROOT
BRANCH   1  18
ATOM     15  C   UNL     1       0.969   9.849  20.537  0.00  0.00    +0.000 A 
ATOM     16  C   UNL     1       0.950  10.187  19.182  0.00  0.00    +0.000 A 
ATOM     17  C   UNL     1       1.416   9.278  18.234  0.00  0.00    +0.000 A 
ATOM     18  C   UNL     1       1.944   8.037  18.619  0.00  0.00    +0.000 A 
ATOM     19  C   UNL     1       1.925   7.693  19.974  0.00  0.00    +0.000 A 
ATOM     20  C   UNL     1       1.462   8.600  20.934  0.00  0.00    +0.000 A 
BRANCH  15  23
ATOM     21  C   UNL     1      -0.293  13.097  21.992  0.00  0.00    +0.000 C 
ATOM     22  N   UNL     1       0.175  12.070  21.101  0.00  0.00    +0.000 N 
ATOM     23  C   UNL     1       0.498  10.812  21.567  0.00  0.00    +0.000 C 
ATOM     24  O   UNL     1       0.396  10.470  22.739  0.00  0.00    +0.000 OA
ATOM     25  H   UNL     1       0.125  12.237  20.106  0.00  0.00    +0.000 HD
ENDBRANCH  15  23
ENDBRANCH   1  18
BRANCH   5  26
ATOM     26  C   UNL     1       5.865   3.836  15.908  0.00  0.00    +0.000 A 
ATOM     27  C   UNL     1       5.515   3.426  14.607  0.00  0.00    +0.000 A 
ATOM     28  C   UNL     1       6.145   3.934  13.471  0.00  0.00    +0.000 A 
ATOM     29  C   UNL     1       7.143   4.890  13.610  0.00  0.00    +0.000 A 
ATOM     30  C   UNL     1       7.523   5.305  14.890  0.00  0.00    +0.000 A 
ATOM     31  C   UNL     1       6.898   4.788  16.041  0.00  0.00    +0.000 A 
BRANCH  31  32
ATOM     32  C   UNL     1       7.431   5.289  17.342  0.00  0.00    +0.000 C 
ATOM     33  O   UNL     1       7.697   4.492  18.237  0.00  0.00    +0.000 OA
ATOM     34  N   UNL     1       7.627   6.648  17.472  0.00  0.00    +0.000 N 
ATOM     35  C   UNL     1       8.199   7.198  18.678  0.00  0.00    +0.000 C 
ATOM     36  H   UNL     1       7.637   7.205  16.623  0.00  0.00    +0.000 HD
ENDBRANCH  31  32
ENDBRANCH   5  26
TORSDOF 4
ENDMDL
MODEL 5
REMARK VINA RESULT:      -8.7      1.249      1.318
REMARK  Name = 
REMARK  6 active torsions:
REMARK  status: ('A' for Active; 'I' for Inactive)
REMARK    1  A    between atoms: C_1  and  N_2
REMARK    2  A    between atoms: C_3  and  C_5
REMARK    3  A    between atoms: C_8  and  N_9
REMARK    4  A    between atoms: N_13  and  C_14
REMARK    5  A    between atoms: C_19  and  C_20
REMARK    6  A    between atoms: N_22  and  C_23
REMARK                            x       y       z     vdW  Elec       q    Type
REMARK                         _______ _______ _______ _____ _____    ______ ____
ROOT
ATOM      1  N   UNL     1       2.280   7.547  17.906  0.00  0.00    +0.000 N 
ATOM      2  C   UNL     1       2.493   6.236  18.355  0.00  0.00    +0.000 A 
ATOM      3  N   UNL     1       3.586   5.623  17.875  0.00  0.00    +0.000 NA
ATOM      4  C   UNL     1       3.898   4.349  18.246  0.00  0.00    +0.000 A 
ATOM      5  N   UNL     1       5.083   3.773  17.766  0.00  0.00    +0.000 N 
ATOM      6  C   UNL     1       3.023   3.702  19.131  0.00  0.00    +0.000 A 
ATOM      7  C   UNL     1       2.889   2.415  19.727  0.00  0.00    +0.000 A 
ATOM      8  C   UNL     1       1.761   2.436  20.526  0.00  0.00    +0.000 A 
ATOM      9  N   UNL     1       1.206   3.687  20.434  0.00  0.00    +0.000 N 
ATOM     10  C   UNL     1       1.943   4.442  19.567  0.00  0.00    +0.000 A 
ATOM     11  N   UNL     1       1.633   5.693  19.229  0.00  0.00    +0.000 NA
ATOM     12  H   UNL     1       3.097   7.809  17.365  0.00  0.00    +0.000 HD
ATOM     13  H   UNL     1       5.407   2.935  18.231  0.00  0.00    +0.000 HD
ATOM     14  H   UNL     1       0.374   4.018  20.902  0.00  0.00    +0.000 HD
ENDROOT
BRANCH   1  18
ATOM     15  C   UNL     1       0.818  10.669  20.342  0.00  0.00    +0.000 A 
ATOM     16  C   UNL     1       1.071  10.903  18.988  0.00  0.00    +0.000 A 
ATOM     17  C   UNL     1       1.535   9.867  18.181  0.00  0.00    +0.000 A 
ATOM     18  C   UNL     1       1.794   8.595  18.711  0.00  0.00    +0.000 A 
ATOM     19  C   UNL     1       1.502   8.360  20.058  0.00  0.00    +0.000 A 
ATOM     20  C   UNL     1       1.038   9.395  20.879  0.00  0.00    +0.000 A 
BRANCH  15  23
ATOM     21  C   UNL     1       0.033  14.190  21.460  0.00  0.00    +0.000 C 
ATOM     22  N   UNL     1       0.454  13.039  20.708  0.00  0.00    +0.000 N 
ATOM     23  C   UNL     1       0.344  11.765  21.227  0.00  0.00    +0.000 C 
ATOM     24  O   UNL     1      -0.127  11.515  22.330  0.00  0.00    +0.000 OA
ATOM     25  H   UNL     1       0.698  13.163  19.735  0.00  0.00    +0.000 HD
ENDBRANCH  15  23
ENDBRANCH   1  18
BRANCH   5  26
ATOM     26  C   UNL     1       5.757   4.114  16.571  0.00  0.00    +0.000 A 
ATOM     27  C   UNL     1       5.346   3.516  15.363  0.00  0.00    +0.000 A 
ATOM     28  C   UNL     1       5.918   3.849  14.134  0.00  0.00    +0.000 A 
ATOM     29  C   UNL     1       6.916   4.815  14.082  0.00  0.00    +0.000 A 
ATOM     30  C   UNL     1       7.354   5.414  15.266  0.00  0.00    +0.000 A 
ATOM     31  C   UNL     1       6.789   5.074  16.510  0.00  0.00    +0.000 A 
BRANCH  31  32
ATOM     32  C   UNL     1       7.381   5.761  17.695  0.00  0.00    +0.000 C 
ATOM     33  O   UNL     1       7.479   6.984  17.703  0.00  0.00    +0.000 OA
ATOM     34  N   UNL     1       7.777   4.975  18.759  0.00  0.00    +0.000 N 
ATOM     35  C   UNL     1       8.298   5.575  19.964  0.00  0.00    +0.000 C 
ATOM     36  H   UNL     1       7.431   4.021  18.792  0.00  0.00    +0.000 HD
ENDBRANCH  31  32
ENDBRANCH   5  26
TORSDOF 4
ENDMDL
MODEL 6
REMARK VINA RESULT:      -8.5      2.728      7.275
REMARK  Name = 
REMARK  6 active torsions:
REMARK  status: ('A' for Active; 'I' for Inactive)
REMARK    1  A    between atoms: C_1  and  N_2
REMARK    2  A    between atoms: C_3  and  C_5
REMARK    3  A    between atoms: C_8  and  N_9
REMARK    4  A    between atoms: N_13  and  C_14
REMARK    5  A    between atoms: C_19  and  C_20
REMARK    6  A    between atoms: N_22  and  C_23
REMARK                            x       y       z     vdW  Elec       q    Type
REMARK                         _______ _______ _______ _____ _____    ______ ____
ROOT
ATOM      1  N   UNL     1       7.504   7.045  18.656  0.00  0.00    +0.000 N 
ATOM      2  C   UNL     1       6.983   6.266  17.615  0.00  0.00    +0.000 A 
ATOM      3  N   UNL     1       5.863   5.582  17.898  0.00  0.00    +0.000 NA
ATOM      4  C   UNL     1       5.263   4.795  16.961  0.00  0.00    +0.000 A 
ATOM      5  N   UNL     1       4.061   4.149  17.286  0.00  0.00    +0.000 N 
ATOM      6  C   UNL     1       5.872   4.714  15.700  0.00  0.00    +0.000 A 
ATOM      7  C   UNL     1       5.673   4.011  14.477  0.00  0.00    +0.000 A 
ATOM      8  C   UNL     1       6.669   4.399  13.600  0.00  0.00    +0.000 A 
ATOM      9  N   UNL     1       7.464   5.311  14.248  0.00  0.00    +0.000 N 
ATOM     10  C   UNL     1       7.009   5.477  15.524  0.00  0.00    +0.000 A 
ATOM     11  N   UNL     1       7.598   6.265  16.423  0.00  0.00    +0.000 NA
ATOM     12  H   UNL     1       6.832   7.009  19.415  0.00  0.00    +0.000 HD
ATOM     13  H   UNL     1       3.523   3.770  16.518  0.00  0.00    +0.000 HD
ATOM     14  H   UNL     1       8.276   5.781  13.874  0.00  0.00    +0.000 HD
ENDROOT
BRANCH   1  18
ATOM     15  C   UNL     1       9.235  10.865  18.171  0.00  0.00    +0.000 A 
ATOM     16  C   UNL     1       8.236  10.436  17.292  0.00  0.00    +0.000 A 
ATOM     17  C   UNL     1       7.652   9.183  17.465  0.00  0.00    +0.000 A 
ATOM     18  C   UNL     1       8.076   8.321  18.486  0.00  0.00    +0.000 A 
ATOM     19  C   UNL     1       9.049   8.773  19.383  0.00  0.00    +0.000 A 
ATOM     20  C   UNL     1       9.644  10.028  19.216  0.00  0.00    +0.000 A 
BRANCH  15  23
ATOM     21  C   UNL     1      11.764  13.399  16.971  0.00  0.00    +0.000 C 
ATOM     22  N   UNL     1      11.033  12.186  17.223  0.00  0.00    +0.000 N 
ATOM     23  C   UNL     1       9.888  12.188  17.992  0.00  0.00    +0.000 C 
ATOM     24  O   UNL     1       9.402  13.195  18.492  0.00  0.00    +0.000 OA
ATOM     25  H   UNL     1      11.289  11.356  16.708  0.00  0.00    +0.000 HD
ENDBRANCH  15  23
ENDBRANCH   1  18
BRANCH   5  26
ATOM     26  C   UNL     1       3.630   3.783  18.581  0.00  0.00    +0.000 A 
ATOM     27  C   UNL     1       3.950   2.502  19.071  0.00  0.00    +0.000 A 
ATOM     28  C   UNL     1       3.616   2.092  20.362  0.00  0.00    +0.000 A 
ATOM     29  C   UNL     1       2.960   2.973  21.213  0.00  0.00    +0.000 A 
ATOM     30  C   UNL     1       2.615   4.245  20.749  0.00  0.00    +0.000 A 
ATOM     31  C   UNL     1       2.939   4.661  19.444  0.00  0.00    +0.000 A 
BRANCH  31  32
ATOM     32  C   UNL     1       2.474   6.029  19.070  0.00  0.00    +0.000 C 
ATOM     33  O   UNL     1       2.247   6.293  17.893  0.00  0.00    +0.000 OA
ATOM     34  N   UNL     1       2.294   6.944  20.087  0.00  0.00    +0.000 N 
ATOM     35  C   UNL     1       1.785   8.265  19.808  0.00  0.00    +0.000 C 
ATOM     36  H   UNL     1       2.246   6.587  21.036  0.00  0.00    +0.000 HD
ENDBRANCH  31  32
ENDBRANCH   5  26
TORSDOF 4
ENDMDL
MODEL 7
REMARK VINA RESULT:      -7.9      5.080     12.093
REMARK  Name = 
REMARK  6 active torsions:
REMARK  status: ('A' for Active; 'I' for Inactive)
REMARK    1  A    between atoms: C_1  and  N_2
REMARK    2  A    between atoms: C_3  and  C_5
REMARK    3  A    between atoms: C_8  and  N_9
REMARK    4  A    between atoms: N_13  and  C_14
REMARK    5  A    between atoms: C_19  and  C_20
REMARK    6  A    between atoms: N_22  and  C_23
REMARK                            x       y       z     vdW  Elec       q    Type
REMARK                         _______ _______ _______ _____ _____    ______ ____
ROOT
ATOM      1  N   UNL     1      -2.009  13.029  19.354  0.00  0.00    +0.000 N 
ATOM      2  C   UNL     1      -2.909  13.005  20.429  0.00  0.00    +0.000 A 
ATOM      3  N   UNL     1      -4.135  13.489  20.179  0.00  0.00    +0.000 NA
ATOM      4  C   UNL     1      -5.094  13.510  21.147  0.00  0.00    +0.000 A 
ATOM      5  N   UNL     1      -6.378  13.969  20.819  0.00  0.00    +0.000 N 
ATOM      6  C   UNL     1      -4.743  13.024  22.414  0.00  0.00    +0.000 A 
ATOM      7  C   UNL     1      -5.343  12.905  23.700  0.00  0.00    +0.000 A 
ATOM      8  C   UNL     1      -4.418  12.320  24.545  0.00  0.00    +0.000 A 
ATOM      9  N   UNL     1      -3.280  12.081  23.818  0.00  0.00    +0.000 N 
ATOM     10  C   UNL     1      -3.458  12.536  22.543  0.00  0.00    +0.000 A 
ATOM     11  N   UNL     1      -2.514  12.492  21.603  0.00  0.00    +0.000 NA
ATOM     12  H   UNL     1      -2.534  13.329  18.539  0.00  0.00    +0.000 HD
ATOM     13  H   UNL     1      -7.121  13.759  21.473  0.00  0.00    +0.000 HD
ATOM     14  H   UNL     1      -2.424  11.661  24.152  0.00  0.00    +0.000 HD
ENDROOT
BRANCH   1  18
ATOM     15  C   UNL     1       0.794   9.989  18.508  0.00  0.00    +0.000 A 
ATOM     16  C   UNL     1      -0.548   9.814  18.163  0.00  0.00    +0.000 A 
ATOM     17  C   UNL     1      -1.469  10.825  18.425  0.00  0.00    +0.000 A 
ATOM     18  C   UNL     1      -1.081  12.009  19.069  0.00  0.00    +0.000 A 
ATOM     19  C   UNL     1       0.270  12.192  19.376  0.00  0.00    +0.000 A 
ATOM     20  C   UNL     1       1.203  11.180  19.120  0.00  0.00    +0.000 A 
BRANCH  15  23
ATOM     21  C   UNL     1       2.812   6.858  19.130  0.00  0.00    +0.000 C 
ATOM     22  N   UNL     1       1.887   7.953  19.245  0.00  0.00    +0.000 N 
ATOM     23  C   UNL     1       1.790   8.914  18.259  0.00  0.00    +0.000 C 
ATOM     24  O   UNL     1       2.448   8.902  17.227  0.00  0.00    +0.000 OA
ATOM     25  H   UNL     1       1.205   7.930  19.990  0.00  0.00    +0.000 HD
ENDBRANCH  15  23
ENDBRANCH   1  18
BRANCH   5  26
ATOM     26  C   UNL     1      -6.707  14.875  19.785  0.00  0.00    +0.000 A 
ATOM     27  C   UNL     1      -6.959  16.222  20.112  0.00  0.00    +0.000 A 
ATOM     28  C   UNL     1      -7.225  17.187  19.141  0.00  0.00    +0.000 A 
ATOM     29  C   UNL     1      -7.228  16.828  17.799  0.00  0.00    +0.000 A 
ATOM     30  C   UNL     1      -6.996  15.496  17.445  0.00  0.00    +0.000 A 
ATOM     31  C   UNL     1      -6.738  14.514  18.421  0.00  0.00    +0.000 A 
BRANCH  31  32
ATOM     32  C   UNL     1      -6.550  13.127  17.904  0.00  0.00    +0.000 C 
ATOM     33  O   UNL     1      -7.520  12.385  17.785  0.00  0.00    +0.000 OA
ATOM     34  N   UNL     1      -5.271  12.743  17.554  0.00  0.00    +0.000 N 
ATOM     35  C   UNL     1      -5.023  11.439  16.987  0.00  0.00    +0.000 C 
ATOM     36  H   UNL     1      -4.578  13.474  17.431  0.00  0.00    +0.000 HD
ENDBRANCH  31  32
ENDBRANCH   5  26
TORSDOF 4
ENDMDL
MODEL 8
REMARK VINA RESULT:      -7.8      3.240      9.828
REMARK  Name = 
REMARK  6 active torsions:
REMARK  status: ('A' for Active; 'I' for Inactive)
REMARK    1  A    between atoms: C_1  and  N_2
REMARK    2  A    between atoms: C_3  and  C_5
REMARK    3  A    between atoms: C_8  and  N_9
REMARK    4  A    between atoms: N_13  and  C_14
REMARK    5  A    between atoms: C_19  and  C_20
REMARK    6  A    between atoms: N_22  and  C_23
REMARK                            x       y       z     vdW  Elec       q    Type
REMARK                         _______ _______ _______ _____ _____    ______ ____
ROOT
ATOM      1  N   UNL     1       0.637   9.818  20.134  0.00  0.00    +0.000 N 
ATOM      2  C   UNL     1      -0.504  10.406  19.572  0.00  0.00    +0.000 A 
ATOM      3  N   UNL     1      -0.690  11.706  19.848  0.00  0.00    +0.000 NA
ATOM      4  C   UNL     1      -1.763  12.385  19.350  0.00  0.00    +0.000 A 
ATOM      5  N   UNL     1      -1.880  13.756  19.616  0.00  0.00    +0.000 N 
ATOM      6  C   UNL     1      -2.670  11.666  18.557  0.00  0.00    +0.000 A 
ATOM      7  C   UNL     1      -3.911  11.902  17.901  0.00  0.00    +0.000 A 
ATOM      8  C   UNL     1      -4.287  10.729  17.274  0.00  0.00    +0.000 A 
ATOM      9  N   UNL     1      -3.319   9.791  17.528  0.00  0.00    +0.000 N 
ATOM     10  C   UNL     1      -2.361  10.340  18.331  0.00  0.00    +0.000 A 
ATOM     11  N   UNL     1      -1.309   9.666  18.794  0.00  0.00    +0.000 NA
ATOM     12  H   UNL     1       1.168  10.564  20.570  0.00  0.00    +0.000 HD
ATOM     13  H   UNL     1      -2.540  14.277  19.054  0.00  0.00    +0.000 HD
ATOM     14  H   UNL     1      -3.304   8.833  17.207  0.00  0.00    +0.000 HD
ENDROOT
BRANCH   1  18
ATOM     15  C   UNL     1       3.074   6.968  18.196  0.00  0.00    +0.000 A 
ATOM     16  C   UNL     1       2.755   8.165  17.550  0.00  0.00    +0.000 A 
ATOM     17  C   UNL     1       1.966   9.113  18.198  0.00  0.00    +0.000 A 
ATOM     18  C   UNL     1       1.450   8.873  19.479  0.00  0.00    +0.000 A 
ATOM     19  C   UNL     1       1.806   7.689  20.133  0.00  0.00    +0.000 A 
ATOM     20  C   UNL     1       2.595   6.728  19.489  0.00  0.00    +0.000 A 
BRANCH  15  23
ATOM     21  C   UNL     1       4.304   3.526  17.246  0.00  0.00    +0.000 C 
ATOM     22  N   UNL     1       3.587   4.625  17.833  0.00  0.00    +0.000 N 
ATOM     23  C   UNL     1       3.895   5.932  17.515  0.00  0.00    +0.000 C 
ATOM     24  O   UNL     1       4.765   6.254  16.715  0.00  0.00    +0.000 OA
ATOM     25  H   UNL     1       2.756   4.424  18.371  0.00  0.00    +0.000 HD
ENDBRANCH  15  23
ENDBRANCH   1  18
BRANCH   5  26
ATOM     26  C   UNL     1      -1.336  14.445  20.724  0.00  0.00    +0.000 A 
ATOM     27  C   UNL     1      -2.108  14.573  21.895  0.00  0.00    +0.000 A 
ATOM     28  C   UNL     1      -1.616  15.181  23.050  0.00  0.00    +0.000 A 
ATOM     29  C   UNL     1      -0.315  15.668  23.068  0.00  0.00    +0.000 A 
ATOM     30  C   UNL     1       0.470  15.570  21.915  0.00  0.00    +0.000 A 
ATOM     31  C   UNL     1      -0.024  14.968  20.742  0.00  0.00    +0.000 A 
BRANCH  31  32
ATOM     32  C   UNL     1       0.907  14.968  19.576  0.00  0.00    +0.000 C 
ATOM     33  O   UNL     1       1.005  15.972  18.877  0.00  0.00    +0.000 OA
ATOM     34  N   UNL     1       1.647  13.826  19.348  0.00  0.00    +0.000 N 
ATOM     35  C   UNL     1       2.614  13.777  18.278  0.00  0.00    +0.000 C 
ATOM     36  H   UNL     1       1.710  13.149  20.102  0.00  0.00    +0.000 HD
ENDBRANCH  31  32
ENDBRANCH   5  26
TORSDOF 4
ENDMDL
MODEL 9
REMARK VINA RESULT:      -7.8      3.187      9.890
REMARK  Name = 
REMARK  6 active torsions:
REMARK  status: ('A' for Active; 'I' for Inactive)
REMARK    1  A    between atoms: C_1  and  N_2
REMARK    2  A    between atoms: C_3  and  C_5
REMARK    3  A    between atoms: C_8  and  N_9
REMARK    4  A    between atoms: N_13  and  C_14
REMARK    5  A    between atoms: C_19  and  C_20
REMARK    6  A    between atoms: N_22  and  C_23
REMARK                            x       y       z     vdW  Elec       q    Type
REMARK                         _______ _______ _______ _____ _____    ______ ____
ROOT
ATOM      1  N   UNL     1       1.082   9.788  19.860  0.00  0.00    +0.000 N 
ATOM      2  C   UNL     1      -0.074  10.360  19.311  0.00  0.00    +0.000 A 
ATOM      3  N   UNL     1      -0.136  11.701  19.343  0.00  0.00    +0.000 NA
ATOM      4  C   UNL     1      -1.209  12.368  18.833  0.00  0.00    +0.000 A 
ATOM      5  N   UNL     1      -1.199  13.770  18.833  0.00  0.00    +0.000 N 
ATOM      6  C   UNL     1      -2.251  11.599  18.294  0.00  0.00    +0.000 A 
ATOM      7  C   UNL     1      -3.541  11.819  17.733  0.00  0.00    +0.000 A 
ATOM      8  C   UNL     1      -4.068  10.587  17.391  0.00  0.00    +0.000 A 
ATOM      9  N   UNL     1      -3.145   9.629  17.726  0.00  0.00    +0.000 N 
ATOM     10  C   UNL     1      -2.063  10.231  18.303  0.00  0.00    +0.000 A 
ATOM     11  N   UNL     1      -1.013   9.564  18.781  0.00  0.00    +0.000 NA
ATOM     12  H   UNL     1       1.710  10.551  20.084  0.00  0.00    +0.000 HD
ATOM     13  H   UNL     1      -1.883  14.234  18.249  0.00  0.00    +0.000 HD
ATOM     14  H   UNL     1      -3.233   8.631  17.601  0.00  0.00    +0.000 HD
ENDROOT
BRANCH   1  18
ATOM     15  C   UNL     1       3.066   6.412  18.284  0.00  0.00    +0.000 A 
ATOM     16  C   UNL     1       2.971   7.581  17.525  0.00  0.00    +0.000 A 
ATOM     17  C   UNL     1       2.333   8.701  18.053  0.00  0.00    +0.000 A 
ATOM     18  C   UNL     1       1.745   8.666  19.326  0.00  0.00    +0.000 A 
ATOM     19  C   UNL     1       1.877   7.505  20.093  0.00  0.00    +0.000 A 
ATOM     20  C   UNL     1       2.513   6.373  19.569  0.00  0.00    +0.000 A 
BRANCH  15  23
ATOM     21  C   UNL     1       3.827   2.745  17.796  0.00  0.00    +0.000 C 
ATOM     22  N   UNL     1       3.276   3.996  18.242  0.00  0.00    +0.000 N 
ATOM     23  C   UNL     1       3.723   5.198  17.732  0.00  0.00    +0.000 C 
ATOM     24  O   UNL     1       4.584   5.295  16.867  0.00  0.00    +0.000 OA
ATOM     25  H   UNL     1       2.454   3.977  18.830  0.00  0.00    +0.000 HD
ENDBRANCH  15  23
ENDBRANCH   1  18
BRANCH   5  26
ATOM     26  C   UNL     1      -0.482  14.603  19.722  0.00  0.00    +0.000 A 
ATOM     27  C   UNL     1       0.399  15.567  19.193  0.00  0.00    +0.000 A 
ATOM     28  C   UNL     1       1.091  16.468  20.002  0.00  0.00    +0.000 A 
ATOM     29  C   UNL     1       0.904  16.438  21.379  0.00  0.00    +0.000 A 
ATOM     30  C   UNL     1       0.048  15.482  21.934  0.00  0.00    +0.000 A 
ATOM     31  C   UNL     1      -0.645  14.563  21.124  0.00  0.00    +0.000 A 
BRANCH  31  32
ATOM     32  C   UNL     1      -1.492  13.573  21.852  0.00  0.00    +0.000 C 
ATOM     33  O   UNL     1      -2.711  13.720  21.881  0.00  0.00    +0.000 OA
ATOM     34  N   UNL     1      -0.857  12.505  22.450  0.00  0.00    +0.000 N 
ATOM     35  C   UNL     1      -1.617  11.474  23.116  0.00  0.00    +0.000 C 
ATOM     36  H   UNL     1       0.098  12.308  22.168  0.00  0.00    +0.000 HD
ENDBRANCH  31  32
ENDBRANCH   5  26
TORSDOF 4
ENDMDL
