MODEL 1
REMARK VINA RESULT:      -8.0      0.000      0.000
REMARK  Name = 
REMARK  6 active torsions:
REMARK  status: ('A' for Active; 'I' for Inactive)
REMARK    1  A    between atoms: C_1  and  C_2
REMARK    2  A    between atoms: C_9  and  O_10
REMARK    3  A    between atoms: C_19  and  N_20
REMARK    4  A    between atoms: N_20  and  S_21
REMARK    5  A    between atoms: S_21  and  C_24
REMARK    6  A    between atoms: C_28  and  N_29
REMARK                            x       y       z     vdW  Elec       q    Type
REMARK                         _______ _______ _______ _____ _____    ______ ____
ROOT
ATOM      1  C   UNL     1       0.017   9.039  18.004  0.00  0.00    +0.000 C 
ATOM      2  C   UNL     1       1.254   9.446  18.851  0.00  0.00    +0.000 C 
ATOM      3  C   UNL     1       2.575   9.310  18.089  0.00  0.00    +0.000 C 
ATOM      4  C   UNL     1       2.853   7.875  17.677  0.00  0.00    +0.000 C 
ATOM      5  C   UNL     1       2.888   6.930  18.889  0.00  0.00    +0.000 C 
ATOM      6  C   UNL     1       3.175   5.487  18.511  0.00  0.00    +0.000 A 
ATOM      7  C   UNL     1       3.987   5.176  17.404  0.00  0.00    +0.000 A 
ATOM      8  C   UNL     1       4.273   3.860  17.060  0.00  0.00    +0.000 A 
ATOM      9  C   UNL     1       3.759   2.835  17.840  0.00  0.00    +0.000 A 
ATOM     10  C   UNL     1       2.979   3.111  18.961  0.00  0.00    +0.000 A 
ATOM     11  C   UNL     1       2.686   4.440  19.314  0.00  0.00    +0.000 A 
ATOM     12  C   UNL     1       1.794   4.695  20.509  0.00  0.00    +0.000 C 
ATOM     13  C   UNL     1       1.737   6.157  20.971  0.00  0.00    +0.000 C 
ATOM     14  C   UNL     1       1.599   7.081  19.760  0.00  0.00    +0.000 C 
ATOM     15  C   UNL     1       1.418   8.568  20.123  0.00  0.00    +0.000 C 
ATOM     16  C   UNL     1       0.263   9.017  21.010  0.00  0.00    +0.000 C 
ATOM     17  C   UNL     1       0.122  10.525  20.698  0.00  0.00    +0.000 C 
ATOM     18  C   UNL     1       1.043  10.833  19.482  0.00  0.00    +0.000 C 
ENDROOT
BRANCH   9  19
ATOM     19  O   UNL     1       4.009   1.531  17.534  0.00  0.00    +0.000 OA
ATOM     20  H   UNL     1       4.928   1.332  17.780  0.00  0.00    +0.000 HD
ENDBRANCH   9  19
BRANCH  18  21
ATOM     21  N   UNL     1       0.402  11.830  18.603  0.00  0.00    +0.000 NA
ATOM     22  H   UNL     1      -0.006  11.469  17.739  0.00  0.00    +0.000 HD
BRANCH  21  23
ATOM     23  S   UNL     1      -0.505  13.150  19.157  0.00  0.00    +0.000 S 
ATOM     24  O   UNL     1      -0.206  13.452  20.535  0.00  0.00    +0.000 OA
ATOM     25  O   UNL     1      -0.388  14.166  18.136  0.00  0.00    +0.000 OA
BRANCH  23  26
ATOM     26  C   UNL     1      -2.153  12.510  19.047  0.00  0.00    +0.000 A 
ATOM     27  C   UNL     1      -2.599  11.723  17.980  0.00  0.00    +0.000 A 
ATOM     28  C   UNL     1      -3.943  11.334  17.940  0.00  0.00    +0.000 A 
ATOM     29  C   UNL     1      -4.828  11.735  18.950  0.00  0.00    +0.000 A 
ATOM     30  C   UNL     1      -4.353  12.505  20.020  0.00  0.00    +0.000 A 
ATOM     31  C   UNL     1      -3.015  12.878  20.081  0.00  0.00    +0.000 A 
BRANCH  30  32
ATOM     32  N   UNL     1      -5.260  12.972  21.073  0.00  0.00    +0.000 N 
ATOM     33  O   UNL     1      -5.677  12.137  21.885  0.00  0.00    +0.000 OA
ATOM     34  O   UNL     1      -5.574  14.171  21.068  0.00  0.00    +0.000 OA
ENDBRANCH  30  32
ENDBRANCH  23  26
ENDBRANCH  21  23
ENDBRANCH  18  21
TORSDOF 5
ENDMDL
MODEL 2
REMARK VINA RESULT:      -8.0      4.551      9.553
REMARK  Name = 
REMARK  6 active torsions:
REMARK  status: ('A' for Active; 'I' for Inactive)
REMARK    1  A    between atoms: C_1  and  C_2
REMARK    2  A    between atoms: C_9  and  O_10
REMARK    3  A    between atoms: C_19  and  N_20
REMARK    4  A    between atoms: N_20  and  S_21
REMARK    5  A    between atoms: S_21  and  C_24
REMARK    6  A    between atoms: C_28  and  N_29
REMARK                            x       y       z     vdW  Elec       q    Type
REMARK                         _______ _______ _______ _____ _____    ______ ____
ROOT
ATOM      1  C   UNL     1       3.992   6.477  19.821  0.00  0.00    +0.000 C 
ATOM      2  C   UNL     1       2.614   6.241  19.143  0.00  0.00    +0.000 C 
ATOM      3  C   UNL     1       2.474   6.963  17.800  0.00  0.00    +0.000 C 
ATOM      4  C   UNL     1       2.571   8.472  17.949  0.00  0.00    +0.000 C 
ATOM      5  C   UNL     1       1.505   9.019  18.912  0.00  0.00    +0.000 C 
ATOM      6  C   UNL     1       1.567  10.528  19.074  0.00  0.00    +0.000 A 
ATOM      7  C   UNL     1       1.991  11.354  18.016  0.00  0.00    +0.000 A 
ATOM      8  C   UNL     1       2.034  12.737  18.146  0.00  0.00    +0.000 A 
ATOM      9  C   UNL     1       1.630  13.311  19.342  0.00  0.00    +0.000 A 
ATOM     10  C   UNL     1       1.175  12.524  20.397  0.00  0.00    +0.000 A 
ATOM     11  C   UNL     1       1.130  11.124  20.271  0.00  0.00    +0.000 A 
ATOM     12  C   UNL     1       0.676  10.303  21.458  0.00  0.00    +0.000 C 
ATOM     13  C   UNL     1       0.415   8.822  21.155  0.00  0.00    +0.000 C 
ATOM     14  C   UNL     1       1.537   8.262  20.280  0.00  0.00    +0.000 C 
ATOM     15  C   UNL     1       1.429   6.749  20.011  0.00  0.00    +0.000 C 
ATOM     16  C   UNL     1       1.390   5.755  21.166  0.00  0.00    +0.000 C 
ATOM     17  C   UNL     1       1.812   4.417  20.516  0.00  0.00    +0.000 C 
ATOM     18  C   UNL     1       2.298   4.737  19.072  0.00  0.00    +0.000 C 
ENDROOT
BRANCH   9  19
ATOM     19  O   UNL     1       1.663  14.663  19.514  0.00  0.00    +0.000 OA
ATOM     20  H   UNL     1       0.749  14.992  19.510  0.00  0.00    +0.000 HD
ENDBRANCH   9  19
BRANCH  18  21
ATOM     21  N   UNL     1       3.441   3.873  18.721  0.00  0.00    +0.000 NA
ATOM     22  H   UNL     1       3.860   3.349  19.491  0.00  0.00    +0.000 HD
BRANCH  21  23
ATOM     23  S   UNL     1       3.556   2.975  17.289  0.00  0.00    +0.000 S 
ATOM     24  O   UNL     1       3.948   1.612  17.552  0.00  0.00    +0.000 OA
ATOM     25  O   UNL     1       2.353   3.265  16.543  0.00  0.00    +0.000 OA
BRANCH  23  26
ATOM     26  C   UNL     1       4.879   3.811  16.459  0.00  0.00    +0.000 A 
ATOM     27  C   UNL     1       5.286   3.496  15.158  0.00  0.00    +0.000 A 
ATOM     28  C   UNL     1       6.397   4.155  14.618  0.00  0.00    +0.000 A 
ATOM     29  C   UNL     1       7.092   5.109  15.373  0.00  0.00    +0.000 A 
ATOM     30  C   UNL     1       6.652   5.423  16.665  0.00  0.00    +0.000 A 
ATOM     31  C   UNL     1       5.536   4.791  17.203  0.00  0.00    +0.000 A 
BRANCH  30  32
ATOM     32  N   UNL     1       7.379   6.389  17.495  0.00  0.00    +0.000 N 
ATOM     33  O   UNL     1       7.710   6.035  18.633  0.00  0.00    +0.000 OA
ATOM     34  O   UNL     1       7.592   7.511  17.014  0.00  0.00    +0.000 OA
ENDBRANCH  30  32
ENDBRANCH  23  26
ENDBRANCH  21  23
ENDBRANCH  18  21
TORSDOF 5
ENDMDL
MODEL 3
REMARK VINA RESULT:      -7.9      1.024      1.264
REMARK  Name = 
REMARK  6 active torsions:
REMARK  status: ('A' for Active; 'I' for Inactive)
REMARK    1  A    between atoms: C_1  and  C_2
REMARK    2  A    between atoms: C_9  and  O_10
REMARK    3  A    between atoms: C_19  and  N_20
REMARK    4  A    between atoms: N_20  and  S_21
REMARK    5  A    between atoms: S_21  and  C_24
REMARK    6  A    between atoms: C_28  and  N_29
REMARK                            x       y       z     vdW  Elec       q    Type
REMARK                         _______ _______ _______ _____ _____    ______ ____
ROOT
ATOM      1  C   UNL     1       0.070   8.862  17.958  0.00  0.00    +0.000 C 
ATOM      2  C   UNL     1       1.321   9.295  18.772  0.00  0.00    +0.000 C 
ATOM      3  C   UNL     1       2.630   9.120  17.997  0.00  0.00    +0.000 C 
ATOM      4  C   UNL     1       2.894   7.668  17.637  0.00  0.00    +0.000 C 
ATOM      5  C   UNL     1       2.941   6.771  18.885  0.00  0.00    +0.000 C 
ATOM      6  C   UNL     1       3.214   5.313  18.560  0.00  0.00    +0.000 A 
ATOM      7  C   UNL     1       4.009   4.953  17.454  0.00  0.00    +0.000 A 
ATOM      8  C   UNL     1       4.282   3.623  17.158  0.00  0.00    +0.000 A 
ATOM      9  C   UNL     1       3.774   2.633  17.985  0.00  0.00    +0.000 A 
ATOM     10  C   UNL     1       3.011   2.958  19.105  0.00  0.00    +0.000 A 
ATOM     11  C   UNL     1       2.731   4.302  19.410  0.00  0.00    +0.000 A 
ATOM     12  C   UNL     1       1.858   4.608  20.607  0.00  0.00    +0.000 C 
ATOM     13  C   UNL     1       1.816   6.087  21.012  0.00  0.00    +0.000 C 
ATOM     14  C   UNL     1       1.666   6.965  19.768  0.00  0.00    +0.000 C 
ATOM     15  C   UNL     1       1.498   8.465  20.074  0.00  0.00    +0.000 C 
ATOM     16  C   UNL     1       0.359   8.956  20.960  0.00  0.00    +0.000 C 
ATOM     17  C   UNL     1       0.222  10.451  20.590  0.00  0.00    +0.000 C 
ATOM     18  C   UNL     1       1.127  10.706  19.350  0.00  0.00    +0.000 C 
ENDROOT
BRANCH   9  19
ATOM     19  O   UNL     1       4.012   1.317  17.727  0.00  0.00    +0.000 OA
ATOM     20  H   UNL     1       3.410   0.786  18.275  0.00  0.00    +0.000 HD
ENDBRANCH   9  19
BRANCH  18  21
ATOM     21  N   UNL     1       0.479  11.672  18.442  0.00  0.00    +0.000 NA
ATOM     22  H   UNL     1       0.337  11.357  17.482  0.00  0.00    +0.000 HD
BRANCH  21  23
ATOM     23  S   UNL     1      -0.777  12.715  18.895  0.00  0.00    +0.000 S 
ATOM     24  O   UNL     1      -0.982  12.703  20.323  0.00  0.00    +0.000 OA
ATOM     25  O   UNL     1      -0.531  13.956  18.196  0.00  0.00    +0.000 OA
BRANCH  23  26
ATOM     26  C   UNL     1      -2.166  11.954  18.102  0.00  0.00    +0.000 A 
ATOM     27  C   UNL     1      -2.117  11.441  16.801  0.00  0.00    +0.000 A 
ATOM     28  C   UNL     1      -3.290  10.934  16.229  0.00  0.00    +0.000 A 
ATOM     29  C   UNL     1      -4.493  10.948  16.947  0.00  0.00    +0.000 A 
ATOM     30  C   UNL     1      -4.512  11.447  18.256  0.00  0.00    +0.000 A 
ATOM     31  C   UNL     1      -3.348  11.932  18.842  0.00  0.00    +0.000 A 
BRANCH  30  32
ATOM     32  N   UNL     1      -5.761  11.510  19.021  0.00  0.00    +0.000 N 
ATOM     33  O   UNL     1      -6.096  12.606  19.485  0.00  0.00    +0.000 OA
ATOM     34  O   UNL     1      -6.390  10.453  19.178  0.00  0.00    +0.000 OA
ENDBRANCH  30  32
ENDBRANCH  23  26
ENDBRANCH  21  23
ENDBRANCH  18  21
TORSDOF 5
ENDMDL
MODEL 4
REMARK VINA RESULT:      -7.8      1.763      2.415
REMARK  Name = 
REMARK  6 active torsions:
REMARK  status: ('A' for Active; 'I' for Inactive)
REMARK    1  A    between atoms: C_1  and  C_2
REMARK    2  A    between atoms: C_9  and  O_10
REMARK    3  A    between atoms: C_19  and  N_20
REMARK    4  A    between atoms: N_20  and  S_21
REMARK    5  A    between atoms: S_21  and  C_24
REMARK    6  A    between atoms: C_28  and  N_29
REMARK                            x       y       z     vdW  Elec       q    Type
REMARK                         _______ _______ _______ _____ _____    ______ ____
ROOT
ATOM      1  C   UNL     1       0.110   9.103  17.982  0.00  0.00    +0.000 C 
ATOM      2  C   UNL     1       1.332   9.476  18.867  0.00  0.00    +0.000 C 
ATOM      3  C   UNL     1       2.669   9.322  18.139  0.00  0.00    +0.000 C 
ATOM      4  C   UNL     1       2.930   7.887  17.717  0.00  0.00    +0.000 C 
ATOM      5  C   UNL     1       2.915   6.928  18.918  0.00  0.00    +0.000 C 
ATOM      6  C   UNL     1       3.184   5.484  18.531  0.00  0.00    +0.000 A 
ATOM      7  C   UNL     1       4.019   5.169  17.443  0.00  0.00    +0.000 A 
ATOM      8  C   UNL     1       4.288   3.851  17.091  0.00  0.00    +0.000 A 
ATOM      9  C   UNL     1       3.734   2.829  17.845  0.00  0.00    +0.000 A 
ATOM     10  C   UNL     1       2.929   3.107  18.948  0.00  0.00    +0.000 A 
ATOM     11  C   UNL     1       2.653   4.438  19.309  0.00  0.00    +0.000 A 
ATOM     12  C   UNL     1       1.735   4.697  20.483  0.00  0.00    +0.000 C 
ATOM     13  C   UNL     1       1.694   6.154  20.960  0.00  0.00    +0.000 C 
ATOM     14  C   UNL     1       1.606   7.095  19.757  0.00  0.00    +0.000 C 
ATOM     15  C   UNL     1       1.445   8.580  20.132  0.00  0.00    +0.000 C 
ATOM     16  C   UNL     1       0.275   9.042  20.994  0.00  0.00    +0.000 C 
ATOM     17  C   UNL     1       0.172  10.556  20.695  0.00  0.00    +0.000 C 
ATOM     18  C   UNL     1       1.131  10.860  19.508  0.00  0.00    +0.000 C 
ENDROOT
BRANCH   9  19
ATOM     19  O   UNL     1       3.966   1.523  17.531  0.00  0.00    +0.000 OA
ATOM     20  H   UNL     1       3.371   0.971  18.065  0.00  0.00    +0.000 HD
ENDBRANCH   9  19
BRANCH  18  21
ATOM     21  N   UNL     1       0.533  11.879  18.624  0.00  0.00    +0.000 NA
ATOM     22  H   UNL     1       0.277  11.565  17.687  0.00  0.00    +0.000 HD
BRANCH  21  23
ATOM     23  S   UNL     1      -0.548  13.077  19.141  0.00  0.00    +0.000 S 
ATOM     24  O   UNL     1      -0.527  13.220  20.576  0.00  0.00    +0.000 OA
ATOM     25  O   UNL     1      -0.315  14.216  18.284  0.00  0.00    +0.000 OA
BRANCH  23  26
ATOM     26  C   UNL     1      -2.101  12.382  18.648  0.00  0.00    +0.000 A 
ATOM     27  C   UNL     1      -3.235  12.385  19.467  0.00  0.00    +0.000 A 
ATOM     28  C   UNL     1      -4.393  11.736  19.023  0.00  0.00    +0.000 A 
ATOM     29  C   UNL     1      -4.411  11.089  17.780  0.00  0.00    +0.000 A 
ATOM     30  C   UNL     1      -3.270  11.118  16.968  0.00  0.00    +0.000 A 
ATOM     31  C   UNL     1      -2.121  11.779  17.390  0.00  0.00    +0.000 A 
BRANCH  30  32
ATOM     32  N   UNL     1      -3.243  10.420  15.679  0.00  0.00    +0.000 N 
ATOM     33  O   UNL     1      -2.896  11.065  14.683  0.00  0.00    +0.000 OA
ATOM     34  O   UNL     1      -3.597   9.232  15.665  0.00  0.00    +0.000 OA
ENDBRANCH  30  32
ENDBRANCH  23  26
ENDBRANCH  21  23
ENDBRANCH  18  21
TORSDOF 5
ENDMDL
MODEL 5
REMARK VINA RESULT:      -7.8      3.580     10.041
REMARK  Name = 
REMARK  6 active torsions:
REMARK  status: ('A' for Active; 'I' for Inactive)
REMARK    1  A    between atoms: C_1  and  C_2
REMARK    2  A    between atoms: C_9  and  O_10
REMARK    3  A    between atoms: C_19  and  N_20
REMARK    4  A    between atoms: N_20  and  S_21
REMARK    5  A    between atoms: S_21  and  C_24
REMARK    6  A    between atoms: C_28  and  N_29
REMARK                            x       y       z     vdW  Elec       q    Type
REMARK                         _______ _______ _______ _____ _____    ______ ____
ROOT
ATOM      1  C   UNL     1       0.463   6.755  20.319  0.00  0.00    +0.000 C 
ATOM      2  C   UNL     1       1.662   7.743  20.344  0.00  0.00    +0.000 C 
ATOM      3  C   UNL     1       1.870   8.398  21.712  0.00  0.00    +0.000 C 
ATOM      4  C   UNL     1       0.677   9.237  22.133  0.00  0.00    +0.000 C 
ATOM      5  C   UNL     1       0.363  10.338  21.107  0.00  0.00    +0.000 C 
ATOM      6  C   UNL     1      -0.819  11.204  21.505  0.00  0.00    +0.000 A 
ATOM      7  C   UNL     1      -1.108  11.459  22.859  0.00  0.00    +0.000 A 
ATOM      8  C   UNL     1      -2.176  12.265  23.235  0.00  0.00    +0.000 A 
ATOM      9  C   UNL     1      -2.959  12.844  22.248  0.00  0.00    +0.000 A 
ATOM     10  C   UNL     1      -2.680  12.638  20.899  0.00  0.00    +0.000 A 
ATOM     11  C   UNL     1      -1.601  11.823  20.512  0.00  0.00    +0.000 A 
ATOM     12  C   UNL     1      -1.363  11.585  19.038  0.00  0.00    +0.000 C 
ATOM     13  C   UNL     1      -0.030  10.904  18.702  0.00  0.00    +0.000 C 
ATOM     14  C   UNL     1       0.221   9.745  19.668  0.00  0.00    +0.000 C 
ATOM     15  C   UNL     1       1.482   8.920  19.345  0.00  0.00    +0.000 C 
ATOM     16  C   UNL     1       1.648   8.253  17.985  0.00  0.00    +0.000 C 
ATOM     17  C   UNL     1       2.699   7.149  18.241  0.00  0.00    +0.000 C 
ATOM     18  C   UNL     1       2.925   7.073  19.779  0.00  0.00    +0.000 C 
ENDROOT
BRANCH   9  19
ATOM     19  O   UNL     1      -4.020  13.636  22.573  0.00  0.00    +0.000 OA
ATOM     20  H   UNL     1      -4.101  14.328  21.896  0.00  0.00    +0.000 HD
ENDBRANCH   9  19
BRANCH  18  21
ATOM     21  N   UNL     1       3.128   5.670  20.191  0.00  0.00    +0.000 NA
ATOM     22  H   UNL     1       2.560   5.347  20.975  0.00  0.00    +0.000 HD
BRANCH  21  23
ATOM     23  S   UNL     1       3.403   4.389  19.116  0.00  0.00    +0.000 S 
ATOM     24  O   UNL     1       3.390   3.119  19.798  0.00  0.00    +0.000 OA
ATOM     25  O   UNL     1       2.536   4.628  17.985  0.00  0.00    +0.000 OA
BRANCH  23  26
ATOM     26  C   UNL     1       5.052   4.740  18.571  0.00  0.00    +0.000 A 
ATOM     27  C   UNL     1       6.029   5.298  19.401  0.00  0.00    +0.000 A 
ATOM     28  C   UNL     1       7.279   5.618  18.857  0.00  0.00    +0.000 A 
ATOM     29  C   UNL     1       7.542   5.386  17.500  0.00  0.00    +0.000 A 
ATOM     30  C   UNL     1       6.554   4.806  16.694  0.00  0.00    +0.000 A 
ATOM     31  C   UNL     1       5.317   4.464  17.229  0.00  0.00    +0.000 A 
BRANCH  30  32
ATOM     32  N   UNL     1       6.783   4.585  15.262  0.00  0.00    +0.000 N 
ATOM     33  O   UNL     1       6.162   3.666  14.715  0.00  0.00    +0.000 OA
ATOM     34  O   UNL     1       7.608   5.317  14.695  0.00  0.00    +0.000 OA
ENDBRANCH  30  32
ENDBRANCH  23  26
ENDBRANCH  21  23
ENDBRANCH  18  21
TORSDOF 5
ENDMDL
MODEL 6
REMARK VINA RESULT:      -7.8      1.531      1.832
REMARK  Name = 
REMARK  6 active torsions:
REMARK  status: ('A' for Active; 'I' for Inactive)
REMARK    1  A    between atoms: C_1  and  C_2
REMARK    2  A    between atoms: C_9  and  O_10
REMARK    3  A    between atoms: C_19  and  N_20
REMARK    4  A    between atoms: N_20  and  S_21
REMARK    5  A    between atoms: S_21  and  C_24
REMARK    6  A    between atoms: C_28  and  N_29
REMARK                            x       y       z     vdW  Elec       q    Type
REMARK                         _______ _______ _______ _____ _____    ______ ____
ROOT
ATOM      1  C   UNL     1      -0.124   9.294  18.189  0.00  0.00    +0.000 C 
ATOM      2  C   UNL     1       1.187   9.606  18.963  0.00  0.00    +0.000 C 
ATOM      3  C   UNL     1       2.448   9.352  18.132  0.00  0.00    +0.000 C 
ATOM      4  C   UNL     1       2.583   7.895  17.728  0.00  0.00    +0.000 C 
ATOM      5  C   UNL     1       2.608   6.963  18.951  0.00  0.00    +0.000 C 
ATOM      6  C   UNL     1       2.754   5.498  18.581  0.00  0.00    +0.000 A 
ATOM      7  C   UNL     1       3.475   5.107  17.437  0.00  0.00    +0.000 A 
ATOM      8  C   UNL     1       3.632   3.769  17.098  0.00  0.00    +0.000 A 
ATOM      9  C   UNL     1       3.080   2.799  17.921  0.00  0.00    +0.000 A 
ATOM     10  C   UNL     1       2.388   3.151  19.078  0.00  0.00    +0.000 A 
ATOM     11  C   UNL     1       2.226   4.504  19.425  0.00  0.00    +0.000 A 
ATOM     12  C   UNL     1       1.425   4.845  20.663  0.00  0.00    +0.000 C 
ATOM     13  C   UNL     1       1.514   6.311  21.104  0.00  0.00    +0.000 C 
ATOM     14  C   UNL     1       1.386   7.231  19.889  0.00  0.00    +0.000 C 
ATOM     15  C   UNL     1       1.348   8.731  20.237  0.00  0.00    +0.000 C 
ATOM     16  C   UNL     1       0.284   9.284  21.178  0.00  0.00    +0.000 C 
ATOM     17  C   UNL     1       0.251  10.795  20.850  0.00  0.00    +0.000 C 
ATOM     18  C   UNL     1       1.126  11.012  19.582  0.00  0.00    +0.000 C 
ENDROOT
BRANCH   9  19
ATOM     19  O   UNL     1       3.205   1.476  17.623  0.00  0.00    +0.000 OA
ATOM     20  H   UNL     1       2.814   0.962  18.349  0.00  0.00    +0.000 HD
ENDBRANCH   9  19
BRANCH  18  21
ATOM     21  N   UNL     1       0.521  12.049  18.723  0.00  0.00    +0.000 NA
ATOM     22  H   UNL     1      -0.063  11.712  17.957  0.00  0.00    +0.000 HD
BRANCH  21  23
ATOM     23  S   UNL     1      -0.076  13.531  19.290  0.00  0.00    +0.000 S 
ATOM     24  O   UNL     1       0.519  13.889  20.554  0.00  0.00    +0.000 OA
ATOM     25  O   UNL     1      -0.019  14.436  18.165  0.00  0.00    +0.000 OA
BRANCH  23  26
ATOM     26  C   UNL     1      -1.786  13.143  19.541  0.00  0.00    +0.000 A 
ATOM     27  C   UNL     1      -2.536  13.649  20.608  0.00  0.00    +0.000 A 
ATOM     28  C   UNL     1      -3.859  13.218  20.770  0.00  0.00    +0.000 A 
ATOM     29  C   UNL     1      -4.417  12.291  19.880  0.00  0.00    +0.000 A 
ATOM     30  C   UNL     1      -3.653  11.816  18.806  0.00  0.00    +0.000 A 
ATOM     31  C   UNL     1      -2.346  12.254  18.623  0.00  0.00    +0.000 A 
BRANCH  30  32
ATOM     32  N   UNL     1      -4.194  10.817  17.879  0.00  0.00    +0.000 N 
ATOM     33  O   UNL     1      -5.266  11.074  17.319  0.00  0.00    +0.000 OA
ATOM     34  O   UNL     1      -3.556   9.764  17.736  0.00  0.00    +0.000 OA
ENDBRANCH  30  32
ENDBRANCH  23  26
ENDBRANCH  21  23
ENDBRANCH  18  21
TORSDOF 5
ENDMDL
MODEL 7
REMARK VINA RESULT:      -7.7      4.646      9.830
REMARK  Name = 
REMARK  6 active torsions:
REMARK  status: ('A' for Active; 'I' for Inactive)
REMARK    1  A    between atoms: C_1  and  C_2
REMARK    2  A    between atoms: C_9  and  O_10
REMARK    3  A    between atoms: C_19  and  N_20
REMARK    4  A    between atoms: N_20  and  S_21
REMARK    5  A    between atoms: S_21  and  C_24
REMARK    6  A    between atoms: C_28  and  N_29
REMARK                            x       y       z     vdW  Elec       q    Type
REMARK                         _______ _______ _______ _____ _____    ______ ____
ROOT
ATOM      1  C   UNL     1       3.830   6.157  20.016  0.00  0.00    +0.000 C 
ATOM      2  C   UNL     1       2.469   5.975  19.288  0.00  0.00    +0.000 C 
ATOM      3  C   UNL     1       2.434   6.636  17.908  0.00  0.00    +0.000 C 
ATOM      4  C   UNL     1       2.623   8.141  17.989  0.00  0.00    +0.000 C 
ATOM      5  C   UNL     1       1.556   8.803  18.875  0.00  0.00    +0.000 C 
ATOM      6  C   UNL     1       1.710  10.311  18.967  0.00  0.00    +0.000 A 
ATOM      7  C   UNL     1       2.232  11.054  17.891  0.00  0.00    +0.000 A 
ATOM      8  C   UNL     1       2.360  12.436  17.957  0.00  0.00    +0.000 A 
ATOM      9  C   UNL     1       1.945  13.095  19.104  0.00  0.00    +0.000 A 
ATOM     10  C   UNL     1       1.395  12.392  20.174  0.00  0.00    +0.000 A 
ATOM     11  C   UNL     1       1.263  10.993  20.114  0.00  0.00    +0.000 A 
ATOM     12  C   UNL     1       0.707  10.264  21.316  0.00  0.00    +0.000 C 
ATOM     13  C   UNL     1       0.362   8.789  21.073  0.00  0.00    +0.000 C 
ATOM     14  C   UNL     1       1.481   8.116  20.277  0.00  0.00    +0.000 C 
ATOM     15  C   UNL     1       1.285   6.601  20.076  0.00  0.00    +0.000 C 
ATOM     16  C   UNL     1       1.132   5.671  21.275  0.00  0.00    +0.000 C 
ATOM     17  C   UNL     1       1.492   4.278  20.709  0.00  0.00    +0.000 C 
ATOM     18  C   UNL     1       2.059   4.493  19.275  0.00  0.00    +0.000 C 
ENDROOT
BRANCH   9  19
ATOM     19  O   UNL     1       2.059  14.448  19.213  0.00  0.00    +0.000 OA
ATOM     20  H   UNL     1       1.290  14.854  18.780  0.00  0.00    +0.000 HD
ENDBRANCH   9  19
BRANCH  18  21
ATOM     21  N   UNL     1       3.156   3.541  19.018  0.00  0.00    +0.000 NA
ATOM     22  H   UNL     1       3.294   2.815  19.723  0.00  0.00    +0.000 HD
BRANCH  21  23
ATOM     23  S   UNL     1       3.557   2.935  17.487  0.00  0.00    +0.000 S 
ATOM     24  O   UNL     1       3.815   1.517  17.533  0.00  0.00    +0.000 OA
ATOM     25  O   UNL     1       2.572   3.476  16.578  0.00  0.00    +0.000 OA
BRANCH  23  26
ATOM     26  C   UNL     1       5.072   3.792  17.159  0.00  0.00    +0.000 A 
ATOM     27  C   UNL     1       5.828   4.417  18.155  0.00  0.00    +0.000 A 
ATOM     28  C   UNL     1       6.968   5.143  17.787  0.00  0.00    +0.000 A 
ATOM     29  C   UNL     1       7.339   5.243  16.439  0.00  0.00    +0.000 A 
ATOM     30  C   UNL     1       6.578   4.589  15.461  0.00  0.00    +0.000 A 
ATOM     31  C   UNL     1       5.457   3.848  15.819  0.00  0.00    +0.000 A 
BRANCH  30  32
ATOM     32  N   UNL     1       6.917   4.706  14.040  0.00  0.00    +0.000 N 
ATOM     33  O   UNL     1       6.316   3.974  13.243  0.00  0.00    +0.000 OA
ATOM     34  O   UNL     1       7.806   5.511  13.727  0.00  0.00    +0.000 OA
ENDBRANCH  30  32
ENDBRANCH  23  26
ENDBRANCH  21  23
ENDBRANCH  18  21
TORSDOF 5
ENDMDL
MODEL 8
REMARK VINA RESULT:      -7.7      3.273      9.989
REMARK  Name = 
REMARK  6 active torsions:
REMARK  status: ('A' for Active; 'I' for Inactive)
REMARK    1  A    between atoms: C_1  and  C_2
REMARK    2  A    between atoms: C_9  and  O_10
REMARK    3  A    between atoms: C_19  and  N_20
REMARK    4  A    between atoms: N_20  and  S_21
REMARK    5  A    between atoms: S_21  and  C_24
REMARK    6  A    between atoms: C_28  and  N_29
REMARK                            x       y       z     vdW  Elec       q    Type
REMARK                         _______ _______ _______ _____ _____    ______ ____
ROOT
ATOM      1  C   UNL     1       0.495  12.458  21.116  0.00  0.00    +0.000 C 
ATOM      2  C   UNL     1      -0.548  11.338  20.846  0.00  0.00    +0.000 C 
ATOM      3  C   UNL     1      -1.548  11.702  19.746  0.00  0.00    +0.000 C 
ATOM      4  C   UNL     1      -2.382  12.918  20.110  0.00  0.00    +0.000 C 
ATOM      5  C   UNL     1      -3.154  12.708  21.422  0.00  0.00    +0.000 C 
ATOM      6  C   UNL     1      -4.008  13.903  21.809  0.00  0.00    +0.000 A 
ATOM      7  C   UNL     1      -4.584  14.731  20.826  0.00  0.00    +0.000 A 
ATOM      8  C   UNL     1      -5.383  15.816  21.167  0.00  0.00    +0.000 A 
ATOM      9  C   UNL     1      -5.630  16.072  22.507  0.00  0.00    +0.000 A 
ATOM     10  C   UNL     1      -5.101  15.253  23.503  0.00  0.00    +0.000 A 
ATOM     11  C   UNL     1      -4.292  14.154  23.164  0.00  0.00    +0.000 A 
ATOM     12  C   UNL     1      -3.697  13.320  24.277  0.00  0.00    +0.000 C 
ATOM     13  C   UNL     1      -3.047  12.007  23.821  0.00  0.00    +0.000 C 
ATOM     14  C   UNL     1      -2.199  12.251  22.572  0.00  0.00    +0.000 C 
ATOM     15  C   UNL     1      -1.410  11.015  22.098  0.00  0.00    +0.000 C 
ATOM     16  C   UNL     1      -0.426  10.316  23.030  0.00  0.00    +0.000 C 
ATOM     17  C   UNL     1       0.498   9.531  22.070  0.00  0.00    +0.000 C 
ATOM     18  C   UNL     1       0.156   9.989  20.622  0.00  0.00    +0.000 C 
ENDROOT
BRANCH   9  19
ATOM     19  O   UNL     1      -6.402  17.129  22.886  0.00  0.00    +0.000 OA
ATOM     20  H   UNL     1      -6.834  16.905  23.726  0.00  0.00    +0.000 HD
ENDBRANCH   9  19
BRANCH  18  21
ATOM     21  N   UNL     1       1.385  10.051  19.809  0.00  0.00    +0.000 NA
ATOM     22  H   UNL     1       2.257   9.846  20.299  0.00  0.00    +0.000 HD
BRANCH  21  23
ATOM     23  S   UNL     1       1.496   9.526  18.201  0.00  0.00    +0.000 S 
ATOM     24  O   UNL     1       0.193   9.253  17.647  0.00  0.00    +0.000 OA
ATOM     25  O   UNL     1       2.398  10.445  17.547  0.00  0.00    +0.000 OA
BRANCH  23  26
ATOM     26  C   UNL     1       2.378   8.002  18.392  0.00  0.00    +0.000 A 
ATOM     27  C   UNL     1       2.137   7.104  19.437  0.00  0.00    +0.000 A 
ATOM     28  C   UNL     1       2.943   5.965  19.552  0.00  0.00    +0.000 A 
ATOM     29  C   UNL     1       3.979   5.735  18.637  0.00  0.00    +0.000 A 
ATOM     30  C   UNL     1       4.187   6.637  17.586  0.00  0.00    +0.000 A 
ATOM     31  C   UNL     1       3.377   7.760  17.449  0.00  0.00    +0.000 A 
BRANCH  30  32
ATOM     32  N   UNL     1       5.285   6.445  16.633  0.00  0.00    +0.000 N 
ATOM     33  O   UNL     1       6.305   5.874  17.039  0.00  0.00    +0.000 OA
ATOM     34  O   UNL     1       5.134   6.892  15.487  0.00  0.00    +0.000 OA
ENDBRANCH  30  32
ENDBRANCH  23  26
ENDBRANCH  21  23
ENDBRANCH  18  21
TORSDOF 5
ENDMDL
MODEL 9
REMARK VINA RESULT:      -7.7      1.481      2.133
REMARK  Name = 
REMARK  6 active torsions:
REMARK  status: ('A' for Active; 'I' for Inactive)
REMARK    1  A    between atoms: C_1  and  C_2
REMARK    2  A    between atoms: C_9  and  O_10
REMARK    3  A    between atoms: C_19  and  N_20
REMARK    4  A    between atoms: N_20  and  S_21
REMARK    5  A    between atoms: S_21  and  C_24
REMARK    6  A    between atoms: C_28  and  N_29
REMARK                            x       y       z     vdW  Elec       q    Type
REMARK                         _______ _______ _______ _____ _____    ______ ____
ROOT
ATOM      1  C   UNL     1       0.127   8.870  18.022  0.00  0.00    +0.000 C 
ATOM      2  C   UNL     1       1.279   9.330  18.957  0.00  0.00    +0.000 C 
ATOM      3  C   UNL     1       2.540   9.747  18.196  0.00  0.00    +0.000 C 
ATOM      4  C   UNL     1       3.133   8.598  17.399  0.00  0.00    +0.000 C 
ATOM      5  C   UNL     1       3.478   7.399  18.297  0.00  0.00    +0.000 C 
ATOM      6  C   UNL     1       4.085   6.236  17.531  0.00  0.00    +0.000 A 
ATOM      7  C   UNL     1       4.874   6.455  16.386  0.00  0.00    +0.000 A 
ATOM      8  C   UNL     1       5.451   5.401  15.688  0.00  0.00    +0.000 A 
ATOM      9  C   UNL     1       5.256   4.107  16.146  0.00  0.00    +0.000 A 
ATOM     10  C   UNL     1       4.507   3.859  17.294  0.00  0.00    +0.000 A 
ATOM     11  C   UNL     1       3.921   4.922  18.005  0.00  0.00    +0.000 A 
ATOM     12  C   UNL     1       3.074   4.605  19.218  0.00  0.00    +0.000 C 
ATOM     13  C   UNL     1       2.691   5.821  20.071  0.00  0.00    +0.000 C 
ATOM     14  C   UNL     1       2.251   6.975  19.168  0.00  0.00    +0.000 C 
ATOM     15  C   UNL     1       1.736   8.209  19.932  0.00  0.00    +0.000 C 
ATOM     16  C   UNL     1       0.566   8.091  20.902  0.00  0.00    +0.000 C 
ATOM     17  C   UNL     1       0.040   9.539  21.025  0.00  0.00    +0.000 C 
ATOM     18  C   UNL     1       0.776  10.391  19.950  0.00  0.00    +0.000 C 
ENDROOT
BRANCH   9  19
ATOM     19  O   UNL     1       5.797   3.043  15.488  0.00  0.00    +0.000 OA
ATOM     20  H   UNL     1       5.159   2.741  14.821  0.00  0.00    +0.000 HD
ENDBRANCH   9  19
BRANCH  18  21
ATOM     21  N   UNL     1      -0.146  11.394  19.383  0.00  0.00    +0.000 NA
ATOM     22  H   UNL     1      -1.081  11.060  19.148  0.00  0.00    +0.000 HD
BRANCH  21  23
ATOM     23  S   UNL     1      -0.224  13.012  19.882  0.00  0.00    +0.000 S 
ATOM     24  O   UNL     1       1.010  13.432  20.499  0.00  0.00    +0.000 OA
ATOM     25  O   UNL     1      -0.777  13.743  18.765  0.00  0.00    +0.000 OA
BRANCH  23  26
ATOM     26  C   UNL     1      -1.494  12.935  21.115  0.00  0.00    +0.000 A 
ATOM     27  C   UNL     1      -1.226  12.889  22.487  0.00  0.00    +0.000 A 
ATOM     28  C   UNL     1      -2.294  12.744  23.381  0.00  0.00    +0.000 A 
ATOM     29  C   UNL     1      -3.608  12.640  22.905  0.00  0.00    +0.000 A 
ATOM     30  C   UNL     1      -3.853  12.710  21.528  0.00  0.00    +0.000 A 
ATOM     31  C   UNL     1      -2.802  12.877  20.632  0.00  0.00    +0.000 A 
BRANCH  30  32
ATOM     32  N   UNL     1      -5.211  12.567  20.995  0.00  0.00    +0.000 N 
ATOM     33  O   UNL     1      -5.453  13.072  19.892  0.00  0.00    +0.000 OA
ATOM     34  O   UNL     1      -6.042  11.971  21.697  0.00  0.00    +0.000 OA
ENDBRANCH  30  32
ENDBRANCH  23  26
ENDBRANCH  21  23
ENDBRANCH  18  21
TORSDOF 5
ENDMDL
