MODEL 1
REMARK VINA RESULT:      -8.1      0.000      0.000
REMARK  Name = 
REMARK  6 active torsions:
REMARK  status: ('A' for Active; 'I' for Inactive)
REMARK    1  A    between atoms: C_1  and  C_2
REMARK    2  A    between atoms: C_2  and  N_3
REMARK    3  A    between atoms: C_2  and  C_16
REMARK    4  A    between atoms: N_3  and  C_4
REMARK    5  A    between atoms: C_10  and  C_11
REMARK    6  A    between atoms: N_25  and  C_26
REMARK                            x       y       z     vdW  Elec       q    Type
REMARK                         _______ _______ _______ _____ _____    ______ ____
ROOT
ATOM      1  C   UNL     1       4.437   2.929  18.138  0.00  0.00    +0.000 C 
ATOM      2  C   UNL     1       4.419   4.293  17.450  0.00  0.00    +0.000 C 
ENDROOT
BRANCH   2   3
ATOM      3  C   UNL     1       5.203   4.374  16.091  0.00  0.00    +0.000 A 
ATOM      4  N   UNL     1       4.586   3.797  15.096  0.00  0.00    +0.000 NA
ATOM      5  N   UNL     1       5.238   3.745  13.939  0.00  0.00    +0.000 N 
ATOM      6  C   UNL     1       4.815   3.067  12.828  0.00  0.00    +0.000 A 
ATOM      7  C   UNL     1       5.766   3.228  11.838  0.00  0.00    +0.000 A 
ATOM      8  C   UNL     1       6.793   4.039  12.382  0.00  0.00    +0.000 A 
ATOM      9  C   UNL     1       6.433   4.332  13.685  0.00  0.00    +0.000 A 
ATOM     10  C   UNL     1       7.083   5.081  14.713  0.00  0.00    +0.000 A 
ATOM     11  O   UNL     1       8.129   5.692  14.492  0.00  0.00    +0.000 OA
ATOM     12  N   UNL     1       6.437   5.022  15.961  0.00  0.00    +0.000 N 
BRANCH  12  13
ATOM     13  C   UNL     1       7.067   5.727  17.028  0.00  0.00    +0.000 A 
ATOM     14  C   UNL     1       7.559   5.018  18.136  0.00  0.00    +0.000 A 
ATOM     15  C   UNL     1       8.230   5.686  19.164  0.00  0.00    +0.000 A 
ATOM     16  C   UNL     1       8.394   7.069  19.103  0.00  0.00    +0.000 A 
ATOM     17  C   UNL     1       7.863   7.787  18.032  0.00  0.00    +0.000 A 
ATOM     18  C   UNL     1       7.192   7.119  17.003  0.00  0.00    +0.000 A 
ENDBRANCH  12  13
ENDBRANCH   2   3
BRANCH   2  19
ATOM     19  N   UNL     1       3.046   4.834  17.319  0.00  0.00    +0.000 N 
ATOM     20  H   UNL     1       2.314   4.155  17.550  0.00  0.00    +0.000 HD
BRANCH  19  21
ATOM     21  C   UNL     1       2.770   6.039  18.010  0.00  0.00    +0.000 A 
ATOM     22  N   UNL     1       2.939   7.187  17.334  0.00  0.00    +0.000 NA
ATOM     23  C   UNL     1       2.620   8.333  17.934  0.00  0.00    +0.000 A 
ATOM     24  N   UNL     1       2.188   8.455  19.185  0.00  0.00    +0.000 NA
ATOM     25  C   UNL     1       2.036   7.309  19.866  0.00  0.00    +0.000 A 
ATOM     26  N   UNL     1       1.593   7.525  21.173  0.00  0.00    +0.000 N 
ATOM     27  C   UNL     1       2.271   6.037  19.320  0.00  0.00    +0.000 A 
ATOM     28  H   UNL     1       1.564   8.530  21.324  0.00  0.00    +0.000 HD
ATOM     29  H   UNL     1       2.159   7.046  21.863  0.00  0.00    +0.000 HD
BRANCH  27  30
ATOM     30  C   UNL     1       2.064   4.785  20.065  0.00  0.00    +0.000 A 
ATOM     31  N   UNL     1       2.686   4.468  21.189  0.00  0.00    +0.000 NA
ATOM     32  C   UNL     1       2.238   3.244  21.656  0.00  0.00    +0.000 A 
ATOM     33  C   UNL     1       1.264   2.633  20.896  0.00  0.00    +0.000 A 
ATOM     34  S   UNL     1       0.979   3.562  19.493  0.00  0.00    +0.000 S 
ENDBRANCH  27  30
ENDBRANCH  19  21
ENDBRANCH   2  19
TORSDOF 5
ENDMDL
MODEL 2
REMARK VINA RESULT:      -7.6      8.747     11.404
REMARK  Name = 
REMARK  6 active torsions:
REMARK  status: ('A' for Active; 'I' for Inactive)
REMARK    1  A    between atoms: C_1  and  C_2
REMARK    2  A    between atoms: C_2  and  N_3
REMARK    3  A    between atoms: C_2  and  C_16
REMARK    4  A    between atoms: N_3  and  C_4
REMARK    5  A    between atoms: C_10  and  C_11
REMARK    6  A    between atoms: N_25  and  C_26
REMARK                            x       y       z     vdW  Elec       q    Type
REMARK                         _______ _______ _______ _____ _____    ______ ____
ROOT
ATOM      1  C   UNL     1      -2.424  11.278  18.193  0.00  0.00    +0.000 C 
ATOM      2  C   UNL     1      -2.463  12.170  19.433  0.00  0.00    +0.000 C 
ENDROOT
BRANCH   2   3
ATOM      3  C   UNL     1      -1.159  13.001  19.708  0.00  0.00    +0.000 A 
ATOM      4  N   UNL     1      -1.159  14.177  19.142  0.00  0.00    +0.000 NA
ATOM      5  N   UNL     1      -0.046  14.894  19.255  0.00  0.00    +0.000 N 
ATOM      6  C   UNL     1       0.192  16.083  18.622  0.00  0.00    +0.000 A 
ATOM      7  C   UNL     1       1.461  16.509  18.966  0.00  0.00    +0.000 A 
ATOM      8  C   UNL     1       1.997  15.535  19.845  0.00  0.00    +0.000 A 
ATOM      9  C   UNL     1       1.038  14.549  19.993  0.00  0.00    +0.000 A 
ATOM     10  C   UNL     1       1.028  13.325  20.729  0.00  0.00    +0.000 A 
ATOM     11  O   UNL     1       1.964  13.021  21.472  0.00  0.00    +0.000 OA
ATOM     12  N   UNL     1      -0.107  12.527  20.501  0.00  0.00    +0.000 N 
BRANCH  12  13
ATOM     13  C   UNL     1      -0.146  11.279  21.189  0.00  0.00    +0.000 A 
ATOM     14  C   UNL     1       0.341  10.121  20.560  0.00  0.00    +0.000 A 
ATOM     15  C   UNL     1       0.363   8.901  21.239  0.00  0.00    +0.000 A 
ATOM     16  C   UNL     1      -0.121   8.823  22.544  0.00  0.00    +0.000 A 
ATOM     17  C   UNL     1      -0.654   9.956  23.158  0.00  0.00    +0.000 A 
ATOM     18  C   UNL     1      -0.676  11.179  22.479  0.00  0.00    +0.000 A 
ENDBRANCH  12  13
ENDBRANCH   2   3
BRANCH   2  19
ATOM     19  N   UNL     1      -3.671  13.027  19.467  0.00  0.00    +0.000 N 
ATOM     20  H   UNL     1      -3.739  13.673  18.674  0.00  0.00    +0.000 HD
BRANCH  19  21
ATOM     21  C   UNL     1      -4.915  12.365  19.609  0.00  0.00    +0.000 A 
ATOM     22  N   UNL     1      -5.422  11.770  18.516  0.00  0.00    +0.000 NA
ATOM     23  C   UNL     1      -6.555  11.079  18.634  0.00  0.00    +0.000 A 
ATOM     24  N   UNL     1      -7.275  10.961  19.745  0.00  0.00    +0.000 NA
ATOM     25  C   UNL     1      -6.777  11.570  20.832  0.00  0.00    +0.000 A 
ATOM     26  N   UNL     1      -7.599  11.410  21.950  0.00  0.00    +0.000 N 
ATOM     27  C   UNL     1      -5.559  12.266  20.850  0.00  0.00    +0.000 A 
ATOM     28  H   UNL     1      -8.437  10.922  21.647  0.00  0.00    +0.000 HD
ATOM     29  H   UNL     1      -7.807  12.287  22.413  0.00  0.00    +0.000 HD
BRANCH  27  30
ATOM     30  C   UNL     1      -5.004  12.898  22.058  0.00  0.00    +0.000 A 
ATOM     31  N   UNL     1      -4.084  12.353  22.837  0.00  0.00    +0.000 NA
ATOM     32  C   UNL     1      -3.750  13.220  23.863  0.00  0.00    +0.000 A 
ATOM     33  C   UNL     1      -4.405  14.433  23.860  0.00  0.00    +0.000 A 
ATOM     34  S   UNL     1      -5.558  14.447  22.602  0.00  0.00    +0.000 S 
ENDBRANCH  27  30
ENDBRANCH  19  21
ENDBRANCH   2  19
TORSDOF 5
ENDMDL
MODEL 3
REMARK VINA RESULT:      -7.5      7.745     11.298
REMARK  Name = 
REMARK  6 active torsions:
REMARK  status: ('A' for Active; 'I' for Inactive)
REMARK    1  A    between atoms: C_1  and  C_2
REMARK    2  A    between atoms: C_2  and  N_3
REMARK    3  A    between atoms: C_2  and  C_16
REMARK    4  A    between atoms: N_3  and  C_4
REMARK    5  A    between atoms: C_10  and  C_11
REMARK    6  A    between atoms: N_25  and  C_26
REMARK                            x       y       z     vdW  Elec       q    Type
REMARK                         _______ _______ _______ _____ _____    ______ ____
ROOT
ATOM      1  C   UNL     1      -0.795  14.302  19.840  0.00  0.00    +0.000 C 
ATOM      2  C   UNL     1      -1.431  12.924  19.659  0.00  0.00    +0.000 C 
ENDROOT
BRANCH   2   3
ATOM      3  C   UNL     1      -0.695  11.741  20.382  0.00  0.00    +0.000 A 
ATOM      4  N   UNL     1       0.024  11.003  19.580  0.00  0.00    +0.000 NA
ATOM      5  N   UNL     1       0.596   9.928  20.112  0.00  0.00    +0.000 N 
ATOM      6  C   UNL     1       1.271   8.967  19.408  0.00  0.00    +0.000 A 
ATOM      7  C   UNL     1       1.699   8.001  20.299  0.00  0.00    +0.000 A 
ATOM      8  C   UNL     1       1.267   8.409  21.586  0.00  0.00    +0.000 A 
ATOM      9  C   UNL     1       0.583   9.600  21.427  0.00  0.00    +0.000 A 
ATOM     10  C   UNL     1      -0.089  10.452  22.358  0.00  0.00    +0.000 A 
ATOM     11  O   UNL     1      -0.053  10.225  23.569  0.00  0.00    +0.000 OA
ATOM     12  N   UNL     1      -0.788  11.516  21.761  0.00  0.00    +0.000 N 
BRANCH  12  13
ATOM     13  C   UNL     1      -1.502  12.373  22.648  0.00  0.00    +0.000 A 
ATOM     14  C   UNL     1      -0.899  13.556  23.108  0.00  0.00    +0.000 A 
ATOM     15  C   UNL     1      -1.603  14.437  23.933  0.00  0.00    +0.000 A 
ATOM     16  C   UNL     1      -2.906  14.131  24.323  0.00  0.00    +0.000 A 
ATOM     17  C   UNL     1      -3.494  12.935  23.913  0.00  0.00    +0.000 A 
ATOM     18  C   UNL     1      -2.790  12.053  23.087  0.00  0.00    +0.000 A 
ENDBRANCH  12  13
ENDBRANCH   2   3
BRANCH   2  19
ATOM     19  N   UNL     1      -2.880  12.933  19.967  0.00  0.00    +0.000 N 
ATOM     20  H   UNL     1      -3.263  13.873  20.112  0.00  0.00    +0.000 HD
BRANCH  19  21
ATOM     21  C   UNL     1      -3.725  12.245  19.064  0.00  0.00    +0.000 A 
ATOM     22  N   UNL     1      -3.151  11.701  17.977  0.00  0.00    +0.000 NA
ATOM     23  C   UNL     1      -3.908  10.987  17.146  0.00  0.00    +0.000 A 
ATOM     24  N   UNL     1      -5.218  10.797  17.264  0.00  0.00    +0.000 NA
ATOM     25  C   UNL     1      -5.795  11.355  18.340  0.00  0.00    +0.000 A 
ATOM     26  N   UNL     1      -7.172  11.121  18.382  0.00  0.00    +0.000 N 
ATOM     27  C   UNL     1      -5.092  12.069  19.323  0.00  0.00    +0.000 A 
ATOM     28  H   UNL     1      -7.426  10.636  17.526  0.00  0.00    +0.000 HD
ATOM     29  H   UNL     1      -7.709  11.968  18.523  0.00  0.00    +0.000 HD
BRANCH  27  30
ATOM     30  C   UNL     1      -5.730  12.644  20.518  0.00  0.00    +0.000 A 
ATOM     31  N   UNL     1      -6.223  11.935  21.521  0.00  0.00    +0.000 NA
ATOM     32  C   UNL     1      -6.714  12.777  22.506  0.00  0.00    +0.000 A 
ATOM     33  C   UNL     1      -6.583  14.126  22.260  0.00  0.00    +0.000 A 
ATOM     34  S   UNL     1      -5.929  14.354  20.701  0.00  0.00    +0.000 S 
ENDBRANCH  27  30
ENDBRANCH  19  21
ENDBRANCH   2  19
TORSDOF 5
ENDMDL
MODEL 4
REMARK VINA RESULT:      -7.4      8.641     11.468
REMARK  Name = 
REMARK  6 active torsions:
REMARK  status: ('A' for Active; 'I' for Inactive)
REMARK    1  A    between atoms: C_1  and  C_2
REMARK    2  A    between atoms: C_2  and  N_3
REMARK    3  A    between atoms: C_2  and  C_16
REMARK    4  A    between atoms: N_3  and  C_4
REMARK    5  A    between atoms: C_10  and  C_11
REMARK    6  A    between atoms: N_25  and  C_26
REMARK                            x       y       z     vdW  Elec       q    Type
REMARK                         _______ _______ _______ _____ _____    ______ ____
ROOT
ATOM      1  C   UNL     1      -2.440  11.838  18.232  0.00  0.00    +0.000 C 
ATOM      2  C   UNL     1      -2.216  12.484  19.599  0.00  0.00    +0.000 C 
ENDROOT
BRANCH   2   3
ATOM      3  C   UNL     1      -0.816  13.166  19.802  0.00  0.00    +0.000 A 
ATOM      4  N   UNL     1      -0.730  14.353  19.267  0.00  0.00    +0.000 NA
ATOM      5  N   UNL     1       0.458  14.946  19.319  0.00  0.00    +0.000 N 
ATOM      6  C   UNL     1       0.778  16.124  18.700  0.00  0.00    +0.000 A 
ATOM      7  C   UNL     1       2.105  16.405  18.964  0.00  0.00    +0.000 A 
ATOM      8  C   UNL     1       2.592  15.353  19.780  0.00  0.00    +0.000 A 
ATOM      9  C   UNL     1       1.547  14.468  19.971  0.00  0.00    +0.000 A 
ATOM     10  C   UNL     1       1.457  13.229  20.675  0.00  0.00    +0.000 A 
ATOM     11  O   UNL     1       2.402  12.805  21.343  0.00  0.00    +0.000 OA
ATOM     12  N   UNL     1       0.230  12.560  20.508  0.00  0.00    +0.000 N 
BRANCH  12  13
ATOM     13  C   UNL     1       0.107  11.302  21.166  0.00  0.00    +0.000 A 
ATOM     14  C   UNL     1       0.555  10.135  20.527  0.00  0.00    +0.000 A 
ATOM     15  C   UNL     1       0.493   8.901  21.179  0.00  0.00    +0.000 A 
ATOM     16  C   UNL     1      -0.037   8.821  22.465  0.00  0.00    +0.000 A 
ATOM     17  C   UNL     1      -0.532   9.966  23.087  0.00  0.00    +0.000 A 
ATOM     18  C   UNL     1      -0.471  11.202  22.435  0.00  0.00    +0.000 A 
ENDBRANCH  12  13
ENDBRANCH   2   3
BRANCH   2  19
ATOM     19  N   UNL     1      -3.324  13.393  19.975  0.00  0.00    +0.000 N 
ATOM     20  H   UNL     1      -3.999  13.551  19.221  0.00  0.00    +0.000 HD
BRANCH  19  21
ATOM     21  C   UNL     1      -4.040  13.068  21.152  0.00  0.00    +0.000 A 
ATOM     22  N   UNL     1      -3.379  13.157  22.318  0.00  0.00    +0.000 NA
ATOM     23  C   UNL     1      -4.045  12.926  23.448  0.00  0.00    +0.000 A 
ATOM     24  N   UNL     1      -5.319  12.557  23.531  0.00  0.00    +0.000 NA
ATOM     25  C   UNL     1      -5.975  12.451  22.366  0.00  0.00    +0.000 A 
ATOM     26  N   UNL     1      -7.301  12.046  22.539  0.00  0.00    +0.000 N 
ATOM     27  C   UNL     1      -5.402  12.737  21.117  0.00  0.00    +0.000 A 
ATOM     28  H   UNL     1      -7.434  11.851  23.528  0.00  0.00    +0.000 HD
ATOM     29  H   UNL     1      -7.552  11.261  21.952  0.00  0.00    +0.000 HD
BRANCH  27  30
ATOM     30  C   UNL     1      -6.143  12.654  19.847  0.00  0.00    +0.000 A 
ATOM     31  N   UNL     1      -6.070  11.640  19.000  0.00  0.00    +0.000 NA
ATOM     32  C   UNL     1      -6.918  11.851  17.927  0.00  0.00    +0.000 A 
ATOM     33  C   UNL     1      -7.649  13.019  17.962  0.00  0.00    +0.000 A 
ATOM     34  S   UNL     1      -7.179  13.938  19.320  0.00  0.00    +0.000 S 
ENDBRANCH  27  30
ENDBRANCH  19  21
ENDBRANCH   2  19
TORSDOF 5
ENDMDL
MODEL 5
REMARK VINA RESULT:      -7.3      8.068     11.071
REMARK  Name = 
REMARK  6 active torsions:
REMARK  status: ('A' for Active; 'I' for Inactive)
REMARK    1  A    between atoms: C_1  and  C_2
REMARK    2  A    between atoms: C_2  and  N_3
REMARK    3  A    between atoms: C_2  and  C_16
REMARK    4  A    between atoms: N_3  and  C_4
REMARK    5  A    between atoms: C_10  and  C_11
REMARK    6  A    between atoms: N_25  and  C_26
REMARK                            x       y       z     vdW  Elec       q    Type
REMARK                         _______ _______ _______ _____ _____    ______ ____
ROOT
ATOM      1  C   UNL     1      -1.780  10.412  18.080  0.00  0.00    +0.000 C 
ATOM      2  C   UNL     1      -2.191  11.547  19.017  0.00  0.00    +0.000 C 
ENDROOT
BRANCH   2   3
ATOM      3  C   UNL     1      -1.041  12.537  19.424  0.00  0.00    +0.000 A 
ATOM      4  N   UNL     1      -1.195  13.742  18.949  0.00  0.00    +0.000 NA
ATOM      5  N   UNL     1      -0.209  14.604  19.176  0.00  0.00    +0.000 N 
ATOM      6  C   UNL     1      -0.128  15.863  18.647  0.00  0.00    +0.000 A 
ATOM      7  C   UNL     1       1.046  16.442  19.091  0.00  0.00    +0.000 A 
ATOM      8  C   UNL     1       1.685  15.490  19.924  0.00  0.00    +0.000 A 
ATOM      9  C   UNL     1       0.881  14.364  19.945  0.00  0.00    +0.000 A 
ATOM     10  C   UNL     1       1.025  13.096  20.586  0.00  0.00    +0.000 A 
ATOM     11  O   UNL     1       1.963  12.873  21.355  0.00  0.00    +0.000 OA
ATOM     12  N   UNL     1       0.035  12.160  20.237  0.00  0.00    +0.000 N 
BRANCH  12  13
ATOM     13  C   UNL     1       0.156  10.868  20.827  0.00  0.00    +0.000 A 
ATOM     14  C   UNL     1      -0.501  10.591  22.038  0.00  0.00    +0.000 A 
ATOM     15  C   UNL     1      -0.439   9.315  22.602  0.00  0.00    +0.000 A 
ATOM     16  C   UNL     1       0.297   8.313  21.974  0.00  0.00    +0.000 A 
ATOM     17  C   UNL     1       0.995   8.592  20.799  0.00  0.00    +0.000 A 
ATOM     18  C   UNL     1       0.934   9.870  20.233  0.00  0.00    +0.000 A 
ENDBRANCH  12  13
ENDBRANCH   2   3
BRANCH   2  19
ATOM     19  N   UNL     1      -3.385  12.273  18.524  0.00  0.00    +0.000 N 
ATOM     20  H   UNL     1      -3.460  12.294  17.502  0.00  0.00    +0.000 HD
BRANCH  19  21
ATOM     21  C   UNL     1      -4.635  11.873  19.054  0.00  0.00    +0.000 A 
ATOM     22  N   UNL     1      -5.355  10.997  18.334  0.00  0.00    +0.000 NA
ATOM     23  C   UNL     1      -6.502  10.547  18.839  0.00  0.00    +0.000 A 
ATOM     24  N   UNL     1      -7.040  10.928  19.993  0.00  0.00    +0.000 NA
ATOM     25  C   UNL     1      -6.329  11.816  20.705  0.00  0.00    +0.000 A 
ATOM     26  N   UNL     1      -6.968  12.175  21.894  0.00  0.00    +0.000 N 
ATOM     27  C   UNL     1      -5.075  12.309  20.312  0.00  0.00    +0.000 A 
ATOM     28  H   UNL     1      -7.878  11.723  21.899  0.00  0.00    +0.000 HD
ATOM     29  H   UNL     1      -7.033  13.178  22.018  0.00  0.00    +0.000 HD
BRANCH  27  30
ATOM     30  C   UNL     1      -4.286  13.254  21.119  0.00  0.00    +0.000 A 
ATOM     31  N   UNL     1      -4.106  14.531  20.820  0.00  0.00    +0.000 NA
ATOM     32  C   UNL     1      -3.353  15.151  21.801  0.00  0.00    +0.000 A 
ATOM     33  C   UNL     1      -2.970  14.352  22.857  0.00  0.00    +0.000 A 
ATOM     34  S   UNL     1      -3.469  12.748  22.559  0.00  0.00    +0.000 S 
ENDBRANCH  27  30
ENDBRANCH  19  21
ENDBRANCH   2  19
TORSDOF 5
ENDMDL
MODEL 6
REMARK VINA RESULT:      -7.3      8.742     11.599
REMARK  Name = 
REMARK  6 active torsions:
REMARK  status: ('A' for Active; 'I' for Inactive)
REMARK    1  A    between atoms: C_1  and  C_2
REMARK    2  A    between atoms: C_2  and  N_3
REMARK    3  A    between atoms: C_2  and  C_16
REMARK    4  A    between atoms: N_3  and  C_4
REMARK    5  A    between atoms: C_10  and  C_11
REMARK    6  A    between atoms: N_25  and  C_26
REMARK                            x       y       z     vdW  Elec       q    Type
REMARK                         _______ _______ _______ _____ _____    ______ ____
ROOT
ATOM      1  C   UNL     1      -2.695  11.496  18.579  0.00  0.00    +0.000 C 
ATOM      2  C   UNL     1      -2.537  12.426  19.782  0.00  0.00    +0.000 C 
ENDROOT
BRANCH   2   3
ATOM      3  C   UNL     1      -1.142  13.136  19.906  0.00  0.00    +0.000 A 
ATOM      4  N   UNL     1      -1.123  14.342  19.407  0.00  0.00    +0.000 NA
ATOM      5  N   UNL     1       0.052  14.963  19.394  0.00  0.00    +0.000 N 
ATOM      6  C   UNL     1       0.298  16.169  18.794  0.00  0.00    +0.000 A 
ATOM      7  C   UNL     1       1.633  16.474  18.972  0.00  0.00    +0.000 A 
ATOM      8  C   UNL     1       2.203  15.410  19.714  0.00  0.00    +0.000 A 
ATOM      9  C   UNL     1       1.195  14.492  19.949  0.00  0.00    +0.000 A 
ATOM     10  C   UNL     1       1.185  13.229  20.616  0.00  0.00    +0.000 A 
ATOM     11  O   UNL     1       2.187  12.809  21.200  0.00  0.00    +0.000 OA
ATOM     12  N   UNL     1      -0.034  12.535  20.514  0.00  0.00    +0.000 N 
BRANCH  12  13
ATOM     13  C   UNL     1      -0.080  11.254  21.137  0.00  0.00    +0.000 A 
ATOM     14  C   UNL     1      -0.522  11.142  22.466  0.00  0.00    +0.000 A 
ATOM     15  C   UNL     1      -0.627   9.888  23.075  0.00  0.00    +0.000 A 
ATOM     16  C   UNL     1      -0.272   8.741  22.368  0.00  0.00    +0.000 A 
ATOM     17  C   UNL     1       0.216   8.848  21.066  0.00  0.00    +0.000 A 
ATOM     18  C   UNL     1       0.322  10.102  20.456  0.00  0.00    +0.000 A 
ENDBRANCH  12  13
ENDBRANCH   2   3
BRANCH   2  19
ATOM     19  N   UNL     1      -3.653  13.395  19.888  0.00  0.00    +0.000 N 
ATOM     20  H   UNL     1      -4.057  13.657  18.983  0.00  0.00    +0.000 HD
BRANCH  19  21
ATOM     21  C   UNL     1      -4.711  13.050  20.764  0.00  0.00    +0.000 A 
ATOM     22  N   UNL     1      -5.693  12.279  20.269  0.00  0.00    +0.000 NA
ATOM     23  C   UNL     1      -6.665  11.881  21.087  0.00  0.00    +0.000 A 
ATOM     24  N   UNL     1      -6.786  12.222  22.366  0.00  0.00    +0.000 NA
ATOM     25  C   UNL     1      -5.814  13.006  22.857  0.00  0.00    +0.000 A 
ATOM     26  N   UNL     1      -6.022  13.329  24.200  0.00  0.00    +0.000 N 
ATOM     27  C   UNL     1      -4.702  13.432  22.113  0.00  0.00    +0.000 A 
ATOM     28  H   UNL     1      -6.923  12.945  24.470  0.00  0.00    +0.000 HD
ATOM     29  H   UNL     1      -5.955  14.324  24.379  0.00  0.00    +0.000 HD
BRANCH  27  30
ATOM     30  C   UNL     1      -3.623  14.261  22.673  0.00  0.00    +0.000 A 
ATOM     31  N   UNL     1      -2.490  13.788  23.168  0.00  0.00    +0.000 NA
ATOM     32  C   UNL     1      -1.673  14.829  23.574  0.00  0.00    +0.000 A 
ATOM     33  C   UNL     1      -2.175  16.097  23.376  0.00  0.00    +0.000 A 
ATOM     34  S   UNL     1      -3.765  15.985  22.769  0.00  0.00    +0.000 S 
ENDBRANCH  27  30
ENDBRANCH  19  21
ENDBRANCH   2  19
TORSDOF 5
ENDMDL
MODEL 7
REMARK VINA RESULT:      -7.0      8.878     11.666
REMARK  Name = 
REMARK  6 active torsions:
REMARK  status: ('A' for Active; 'I' for Inactive)
REMARK    1  A    between atoms: C_1  and  C_2
REMARK    2  A    between atoms: C_2  and  N_3
REMARK    3  A    between atoms: C_2  and  C_16
REMARK    4  A    between atoms: N_3  and  C_4
REMARK    5  A    between atoms: C_10  and  C_11
REMARK    6  A    between atoms: N_25  and  C_26
REMARK                            x       y       z     vdW  Elec       q    Type
REMARK                         _______ _______ _______ _____ _____    ______ ____
ROOT
ATOM      1  C   UNL     1      -2.956  11.874  18.782  0.00  0.00    +0.000 C 
ATOM      2  C   UNL     1      -2.594  12.714  20.007  0.00  0.00    +0.000 C 
ENDROOT
BRANCH   2   3
ATOM      3  C   UNL     1      -1.126  13.270  20.033  0.00  0.00    +0.000 A 
ATOM      4  N   UNL     1      -1.001  14.444  19.477  0.00  0.00    +0.000 NA
ATOM      5  N   UNL     1       0.232  14.930  19.380  0.00  0.00    +0.000 N 
ATOM      6  C   UNL     1       0.577  16.074  18.713  0.00  0.00    +0.000 A 
ATOM      7  C   UNL     1       1.945  16.237  18.815  0.00  0.00    +0.000 A 
ATOM      8  C   UNL     1       2.433  15.149  19.579  0.00  0.00    +0.000 A 
ATOM      9  C   UNL     1       1.345  14.359  19.904  0.00  0.00    +0.000 A 
ATOM     10  C   UNL     1       1.232  13.134  20.630  0.00  0.00    +0.000 A 
ATOM     11  O   UNL     1       2.210  12.631  21.186  0.00  0.00    +0.000 OA
ATOM     12  N   UNL     1      -0.059  12.576  20.618  0.00  0.00    +0.000 N 
BRANCH  12  13
ATOM     13  C   UNL     1      -0.213  11.335  21.302  0.00  0.00    +0.000 A 
ATOM     14  C   UNL     1       0.114  10.135  20.649  0.00  0.00    +0.000 A 
ATOM     15  C   UNL     1       0.023   8.914  21.322  0.00  0.00    +0.000 A 
ATOM     16  C   UNL     1      -0.416   8.881  22.644  0.00  0.00    +0.000 A 
ATOM     17  C   UNL     1      -0.791  10.061  23.284  0.00  0.00    +0.000 A 
ATOM     18  C   UNL     1      -0.701  11.285  22.611  0.00  0.00    +0.000 A 
ENDBRANCH  12  13
ENDBRANCH   2   3
BRANCH   2  19
ATOM     19  N   UNL     1      -3.586  13.783  20.264  0.00  0.00    +0.000 N 
ATOM     20  H   UNL     1      -4.441  13.693  19.705  0.00  0.00    +0.000 HD
BRANCH  19  21
ATOM     21  C   UNL     1      -3.958  13.994  21.613  0.00  0.00    +0.000 A 
ATOM     22  N   UNL     1      -3.107  14.692  22.383  0.00  0.00    +0.000 NA
ATOM     23  C   UNL     1      -3.461  14.967  23.638  0.00  0.00    +0.000 A 
ATOM     24  N   UNL     1      -4.580  14.564  24.230  0.00  0.00    +0.000 NA
ATOM     25  C   UNL     1      -5.423  13.851  23.466  0.00  0.00    +0.000 A 
ATOM     26  N   UNL     1      -6.565  13.455  24.165  0.00  0.00    +0.000 N 
ATOM     27  C   UNL     1      -5.194  13.559  22.112  0.00  0.00    +0.000 A 
ATOM     28  H   UNL     1      -6.447  13.745  25.132  0.00  0.00    +0.000 HD
ATOM     29  H   UNL     1      -6.756  12.465  24.078  0.00  0.00    +0.000 HD
BRANCH  27  30
ATOM     30  C   UNL     1      -6.143  12.809  21.274  0.00  0.00    +0.000 A 
ATOM     31  N   UNL     1      -6.418  11.522  21.416  0.00  0.00    +0.000 NA
ATOM     32  C   UNL     1      -7.380  11.134  20.499  0.00  0.00    +0.000 A 
ATOM     33  C   UNL     1      -7.849  12.127  19.666  0.00  0.00    +0.000 A 
ATOM     34  S   UNL     1      -6.981  13.566  19.960  0.00  0.00    +0.000 S 
ENDBRANCH  27  30
ENDBRANCH  19  21
ENDBRANCH   2  19
TORSDOF 5
ENDMDL
MODEL 8
REMARK VINA RESULT:      -7.0      8.934     11.231
REMARK  Name = 
REMARK  6 active torsions:
REMARK  status: ('A' for Active; 'I' for Inactive)
REMARK    1  A    between atoms: C_1  and  C_2
REMARK    2  A    between atoms: C_2  and  N_3
REMARK    3  A    between atoms: C_2  and  C_16
REMARK    4  A    between atoms: N_3  and  C_4
REMARK    5  A    between atoms: C_10  and  C_11
REMARK    6  A    between atoms: N_25  and  C_26
REMARK                            x       y       z     vdW  Elec       q    Type
REMARK                         _______ _______ _______ _____ _____    ______ ____
ROOT
ATOM      1  C   UNL     1       6.364  14.379  17.547  0.00  0.00    +0.000 C 
ATOM      2  C   UNL     1       7.110  14.838  18.800  0.00  0.00    +0.000 C 
ENDROOT
BRANCH   2   3
ATOM      3  C   UNL     1       8.569  15.366  18.562  0.00  0.00    +0.000 A 
ATOM      4  N   UNL     1       8.632  16.652  18.351  0.00  0.00    +0.000 NA
ATOM      5  N   UNL     1       9.826  17.150  18.047  0.00  0.00    +0.000 N 
ATOM      6  C   UNL     1      10.066  18.441  17.662  0.00  0.00    +0.000 A 
ATOM      7  C   UNL     1      11.419  18.571  17.410  0.00  0.00    +0.000 A 
ATOM      8  C   UNL     1      12.007  17.307  17.660  0.00  0.00    +0.000 A 
ATOM      9  C   UNL     1      10.989  16.453  18.045  0.00  0.00    +0.000 A 
ATOM     10  C   UNL     1      10.980  15.068  18.394  0.00  0.00    +0.000 A 
ATOM     11  O   UNL     1      12.029  14.426  18.480  0.00  0.00    +0.000 OA
ATOM     12  N   UNL     1       9.695  14.534  18.594  0.00  0.00    +0.000 N 
BRANCH  12  13
ATOM     13  C   UNL     1       9.634  13.146  18.912  0.00  0.00    +0.000 A 
ATOM     14  C   UNL     1       9.750  12.732  20.249  0.00  0.00    +0.000 A 
ATOM     15  C   UNL     1       9.637  11.381  20.586  0.00  0.00    +0.000 A 
ATOM     16  C   UNL     1       9.430  10.431  19.587  0.00  0.00    +0.000 A 
ATOM     17  C   UNL     1       9.365  10.827  18.252  0.00  0.00    +0.000 A 
ATOM     18  C   UNL     1       9.478  12.180  17.913  0.00  0.00    +0.000 A 
ENDBRANCH  12  13
ENDBRANCH   2   3
BRANCH   2  19
ATOM     19  N   UNL     1       6.311  15.789  19.608  0.00  0.00    +0.000 N 
ATOM     20  H   UNL     1       5.712  16.403  19.046  0.00  0.00    +0.000 HD
BRANCH  19  21
ATOM     21  C   UNL     1       5.528  15.236  20.649  0.00  0.00    +0.000 A 
ATOM     22  N   UNL     1       6.180  14.601  21.637  0.00  0.00    +0.000 NA
ATOM     23  C   UNL     1       5.477  14.132  22.667  0.00  0.00    +0.000 A 
ATOM     24  N   UNL     1       4.155  14.189  22.789  0.00  0.00    +0.000 NA
ATOM     25  C   UNL     1       3.502  14.809  21.793  0.00  0.00    +0.000 A 
ATOM     26  N   UNL     1       2.119  14.814  21.991  0.00  0.00    +0.000 N 
ATOM     27  C   UNL     1       4.137  15.405  20.693  0.00  0.00    +0.000 A 
ATOM     28  H   UNL     1       1.927  14.266  22.825  0.00  0.00    +0.000 HD
ATOM     29  H   UNL     1       1.606  14.481  21.183  0.00  0.00    +0.000 HD
BRANCH  27  30
ATOM     30  C   UNL     1       3.412  16.115  19.626  0.00  0.00    +0.000 A 
ATOM     31  N   UNL     1       3.435  15.774  18.347  0.00  0.00    +0.000 NA
ATOM     32  C   UNL     1       2.618  16.617  17.614  0.00  0.00    +0.000 A 
ATOM     33  C   UNL     1       1.961  17.592  18.333  0.00  0.00    +0.000 A 
ATOM     34  S   UNL     1       2.468  17.527  19.961  0.00  0.00    +0.000 S 
ENDBRANCH  27  30
ENDBRANCH  19  21
ENDBRANCH   2  19
TORSDOF 5
ENDMDL
MODEL 9
REMARK VINA RESULT:      -6.9      7.938     11.494
REMARK  Name = 
REMARK  6 active torsions:
REMARK  status: ('A' for Active; 'I' for Inactive)
REMARK    1  A    between atoms: C_1  and  C_2
REMARK    2  A    between atoms: C_2  and  N_3
REMARK    3  A    between atoms: C_2  and  C_16
REMARK    4  A    between atoms: N_3  and  C_4
REMARK    5  A    between atoms: C_10  and  C_11
REMARK    6  A    between atoms: N_25  and  C_26
REMARK                            x       y       z     vdW  Elec       q    Type
REMARK                         _______ _______ _______ _____ _____    ______ ____
ROOT
ATOM      1  C   UNL     1      -0.740  14.207  19.563  0.00  0.00    +0.000 C 
ATOM      2  C   UNL     1      -1.472  12.866  19.591  0.00  0.00    +0.000 C 
ENDROOT
BRANCH   2   3
ATOM      3  C   UNL     1      -0.727  11.706  20.343  0.00  0.00    +0.000 A 
ATOM      4  N   UNL     1      -0.010  10.950  19.557  0.00  0.00    +0.000 NA
ATOM      5  N   UNL     1       0.571   9.892  20.114  0.00  0.00    +0.000 N 
ATOM      6  C   UNL     1       1.245   8.915  19.434  0.00  0.00    +0.000 A 
ATOM      7  C   UNL     1       1.683   7.976  20.348  0.00  0.00    +0.000 A 
ATOM      8  C   UNL     1       1.256   8.417  21.626  0.00  0.00    +0.000 A 
ATOM      9  C   UNL     1       0.566   9.601  21.439  0.00  0.00    +0.000 A 
ATOM     10  C   UNL     1      -0.104  10.474  22.349  0.00  0.00    +0.000 A 
ATOM     11  O   UNL     1      -0.060  10.282  23.566  0.00  0.00    +0.000 OA
ATOM     12  N   UNL     1      -0.811  11.519  21.727  0.00  0.00    +0.000 N 
BRANCH  12  13
ATOM     13  C   UNL     1      -1.523  12.398  22.595  0.00  0.00    +0.000 A 
ATOM     14  C   UNL     1      -2.836  12.081  22.982  0.00  0.00    +0.000 A 
ATOM     15  C   UNL     1      -3.529  12.901  23.876  0.00  0.00    +0.000 A 
ATOM     16  C   UNL     1      -2.925  14.054  24.372  0.00  0.00    +0.000 A 
ATOM     17  C   UNL     1      -1.642  14.404  23.953  0.00  0.00    +0.000 A 
ATOM     18  C   UNL     1      -0.947  13.584  23.058  0.00  0.00    +0.000 A 
ENDBRANCH  12  13
ENDBRANCH   2   3
BRANCH   2  19
ATOM     19  N   UNL     1      -2.872  13.005  20.056  0.00  0.00    +0.000 N 
ATOM     20  H   UNL     1      -3.142  13.972  20.264  0.00  0.00    +0.000 HD
BRANCH  19  21
ATOM     21  C   UNL     1      -3.873  12.432  19.235  0.00  0.00    +0.000 A 
ATOM     22  N   UNL     1      -3.465  11.614  18.250  0.00  0.00    +0.000 NA
ATOM     23  C   UNL     1      -4.386  11.004  17.506  0.00  0.00    +0.000 A 
ATOM     24  N   UNL     1      -5.701  11.169  17.615  0.00  0.00    +0.000 NA
ATOM     25  C   UNL     1      -6.107  12.000  18.587  0.00  0.00    +0.000 A 
ATOM     26  N   UNL     1      -7.498  12.129  18.626  0.00  0.00    +0.000 N 
ATOM     27  C   UNL     1      -5.237  12.644  19.480  0.00  0.00    +0.000 A 
ATOM     28  H   UNL     1      -7.875  11.609  17.838  0.00  0.00    +0.000 HD
ATOM     29  H   UNL     1      -7.802  13.095  18.633  0.00  0.00    +0.000 HD
BRANCH  27  30
ATOM     30  C   UNL     1      -5.697  13.524  20.567  0.00  0.00    +0.000 A 
ATOM     31  N   UNL     1      -5.432  14.817  20.651  0.00  0.00    +0.000 NA
ATOM     32  C   UNL     1      -6.043  15.360  21.768  0.00  0.00    +0.000 A 
ATOM     33  C   UNL     1      -6.787  14.484  22.529  0.00  0.00    +0.000 A 
ATOM     34  S   UNL     1      -6.624  12.909  21.894  0.00  0.00    +0.000 S 
ENDBRANCH  27  30
ENDBRANCH  19  21
ENDBRANCH   2  19
TORSDOF 5
ENDMDL
