MODEL 1
REMARK VINA RESULT:      -7.2      0.000      0.000
REMARK  Name = 
REMARK  5 active torsions:
REMARK  status: ('A' for Active; 'I' for Inactive)
REMARK    1  A    between atoms: C_1  and  N_2
REMARK    2  A    between atoms: C_6  and  S_7
REMARK    3  A    between atoms: S_7  and  C_8
REMARK    4  A    between atoms: C_8  and  C_9
REMARK    5  A    between atoms: C_16  and  O_17
REMARK                            x       y       z     vdW  Elec       q    Type
REMARK                         _______ _______ _______ _____ _____    ______ ____
ROOT
ATOM      1  C   UNL     1       5.967   5.040  18.127  0.00  0.00    +0.000 A 
ATOM      2  C   UNL     1       6.683   6.073  18.605  0.00  0.00    +0.000 A 
ATOM      3  C   UNL     1       7.609   6.880  17.797  0.00  0.00    +0.000 A 
ATOM      4  O   UNL     1       8.247   7.796  18.302  0.00  0.00    +0.000 OA
ATOM      5  O   UNL     1       7.698   6.573  16.454  0.00  0.00    +0.000 OA
ATOM      6  C   UNL     1       6.971   5.494  15.913  0.00  0.00    +0.000 A 
ATOM      7  C   UNL     1       7.154   5.272  14.544  0.00  0.00    +0.000 A 
ATOM      8  C   UNL     1       6.492   4.208  13.947  0.00  0.00    +0.000 A 
ATOM      9  C   UNL     1       5.663   3.385  14.701  0.00  0.00    +0.000 A 
ATOM     10  C   UNL     1       5.473   3.638  16.065  0.00  0.00    +0.000 A 
ATOM     11  C   UNL     1       6.126   4.705  16.700  0.00  0.00    +0.000 A 
ENDROOT
BRANCH   8  12
ATOM     12  O   UNL     1       6.624   3.934  12.620  0.00  0.00    +0.000 OA
ATOM     13  H   UNL     1       5.925   4.400  12.130  0.00  0.00    +0.000 HD
ENDBRANCH   8  12
BRANCH   1  14
ATOM     14  C   UNL     1       4.949   4.354  19.016  0.00  0.00    +0.000 C 
BRANCH  14  15
ATOM     15  S   UNL     1       3.677   5.492  19.647  0.00  0.00    +0.000 S 
BRANCH  15  21
ATOM     16  C   UNL     1       1.472   4.038  17.780  0.00  0.00    +0.000 C 
ATOM     17  N   UNL     1       1.602   3.760  19.189  0.00  0.00    +0.000 N 
ATOM     18  C   UNL     1       0.864   2.828  19.873  0.00  0.00    +0.000 A 
ATOM     19  C   UNL     1       1.243   2.968  21.188  0.00  0.00    +0.000 A 
ATOM     20  N   UNL     1       2.213   3.928  21.315  0.00  0.00    +0.000 NA
ATOM     21  C   UNL     1       2.439   4.360  20.095  0.00  0.00    +0.000 A 
ENDBRANCH  15  21
ENDBRANCH  14  15
ENDBRANCH   1  14
TORSDOF 4
ENDMDL
MODEL 2
REMARK VINA RESULT:      -7.2      1.631      2.060
REMARK  Name = 
REMARK  5 active torsions:
REMARK  status: ('A' for Active; 'I' for Inactive)
REMARK    1  A    between atoms: C_1  and  N_2
REMARK    2  A    between atoms: C_6  and  S_7
REMARK    3  A    between atoms: S_7  and  C_8
REMARK    4  A    between atoms: C_8  and  C_9
REMARK    5  A    between atoms: C_16  and  O_17
REMARK                            x       y       z     vdW  Elec       q    Type
REMARK                         _______ _______ _______ _____ _____    ______ ____
ROOT
ATOM      1  C   UNL     1       4.944   4.444  17.205  0.00  0.00    +0.000 A 
ATOM      2  C   UNL     1       5.771   4.706  18.233  0.00  0.00    +0.000 A 
ATOM      3  C   UNL     1       7.213   4.949  18.092  0.00  0.00    +0.000 A 
ATOM      4  O   UNL     1       7.912   5.162  19.076  0.00  0.00    +0.000 OA
ATOM      5  O   UNL     1       7.724   4.954  16.810  0.00  0.00    +0.000 OA
ATOM      6  C   UNL     1       6.896   4.678  15.704  0.00  0.00    +0.000 A 
ATOM      7  C   UNL     1       7.531   4.697  14.458  0.00  0.00    +0.000 A 
ATOM      8  C   UNL     1       6.784   4.405  13.325  0.00  0.00    +0.000 A 
ATOM      9  C   UNL     1       5.432   4.103  13.435  0.00  0.00    +0.000 A 
ATOM     10  C   UNL     1       4.808   4.112  14.689  0.00  0.00    +0.000 A 
ATOM     11  C   UNL     1       5.533   4.403  15.854  0.00  0.00    +0.000 A 
ENDROOT
BRANCH   8  12
ATOM     12  O   UNL     1       7.338   4.406  12.081  0.00  0.00    +0.000 OA
ATOM     13  H   UNL     1       7.653   3.509  11.875  0.00  0.00    +0.000 HD
ENDBRANCH   8  12
BRANCH   1  14
ATOM     14  C   UNL     1       3.453   4.330  17.446  0.00  0.00    +0.000 C 
BRANCH  14  15
ATOM     15  S   UNL     1       2.902   2.612  17.683  0.00  0.00    +0.000 S 
BRANCH  15  21
ATOM     16  C   UNL     1       4.565   2.063  20.402  0.00  0.00    +0.000 C 
ATOM     17  N   UNL     1       3.188   2.490  20.407  0.00  0.00    +0.000 N 
ATOM     18  C   UNL     1       2.458   2.763  21.535  0.00  0.00    +0.000 A 
ATOM     19  C   UNL     1       1.189   3.035  21.083  0.00  0.00    +0.000 A 
ATOM     20  N   UNL     1       1.136   2.971  19.714  0.00  0.00    +0.000 NA
ATOM     21  C   UNL     1       2.359   2.682  19.331  0.00  0.00    +0.000 A 
ENDBRANCH  15  21
ENDBRANCH  14  15
ENDBRANCH   1  14
TORSDOF 4
ENDMDL
MODEL 3
REMARK VINA RESULT:      -7.2      1.660      1.907
REMARK  Name = 
REMARK  5 active torsions:
REMARK  status: ('A' for Active; 'I' for Inactive)
REMARK    1  A    between atoms: C_1  and  N_2
REMARK    2  A    between atoms: C_6  and  S_7
REMARK    3  A    between atoms: S_7  and  C_8
REMARK    4  A    between atoms: C_8  and  C_9
REMARK    5  A    between atoms: C_16  and  O_17
REMARK                            x       y       z     vdW  Elec       q    Type
REMARK                         _______ _______ _______ _____ _____    ______ ____
ROOT
ATOM      1  C   UNL     1       4.954   3.967  17.449  0.00  0.00    +0.000 A 
ATOM      2  C   UNL     1       5.450   4.375  18.631  0.00  0.00    +0.000 A 
ATOM      3  C   UNL     1       6.701   5.130  18.785  0.00  0.00    +0.000 A 
ATOM      4  O   UNL     1       7.105   5.453  19.896  0.00  0.00    +0.000 OA
ATOM      5  O   UNL     1       7.370   5.475  17.628  0.00  0.00    +0.000 OA
ATOM      6  C   UNL     1       6.891   5.062  16.370  0.00  0.00    +0.000 A 
ATOM      7  C   UNL     1       7.662   5.460  15.272  0.00  0.00    +0.000 A 
ATOM      8  C   UNL     1       7.267   5.065  14.002  0.00  0.00    +0.000 A 
ATOM      9  C   UNL     1       6.125   4.292  13.831  0.00  0.00    +0.000 A 
ATOM     10  C   UNL     1       5.352   3.923  14.939  0.00  0.00    +0.000 A 
ATOM     11  C   UNL     1       5.722   4.306  16.237  0.00  0.00    +0.000 A 
ENDROOT
BRANCH   8  12
ATOM     12  O   UNL     1       7.970   5.417  12.890  0.00  0.00    +0.000 OA
ATOM     13  H   UNL     1       7.840   6.365  12.721  0.00  0.00    +0.000 HD
ENDBRANCH   8  12
BRANCH   1  14
ATOM     14  C   UNL     1       3.594   3.302  17.391  0.00  0.00    +0.000 C 
BRANCH  14  15
ATOM     15  S   UNL     1       3.513   1.766  18.364  0.00  0.00    +0.000 S 
BRANCH  15  21
ATOM     16  C   UNL     1       0.412   2.553  18.843  0.00  0.00    +0.000 C 
ATOM     17  N   UNL     1       1.394   2.586  19.898  0.00  0.00    +0.000 N 
ATOM     18  C   UNL     1       1.123   2.890  21.208  0.00  0.00    +0.000 A 
ATOM     19  C   UNL     1       2.348   2.897  21.833  0.00  0.00    +0.000 A 
ATOM     20  N   UNL     1       3.346   2.571  20.952  0.00  0.00    +0.000 NA
ATOM     21  C   UNL     1       2.741   2.350  19.806  0.00  0.00    +0.000 A 
ENDBRANCH  15  21
ENDBRANCH  14  15
ENDBRANCH   1  14
TORSDOF 4
ENDMDL
MODEL 4
REMARK VINA RESULT:      -7.1      4.028      6.182
REMARK  Name = 
REMARK  5 active torsions:
REMARK  status: ('A' for Active; 'I' for Inactive)
REMARK    1  A    between atoms: C_1  and  N_2
REMARK    2  A    between atoms: C_6  and  S_7
REMARK    3  A    between atoms: S_7  and  C_8
REMARK    4  A    between atoms: C_8  and  C_9
REMARK    5  A    between atoms: C_16  and  O_17
REMARK                            x       y       z     vdW  Elec       q    Type
REMARK                         _______ _______ _______ _____ _____    ______ ____
ROOT
ATOM      1  C   UNL     1       2.865   6.708  18.313  0.00  0.00    +0.000 A 
ATOM      2  C   UNL     1       2.454   7.528  19.297  0.00  0.00    +0.000 A 
ATOM      3  C   UNL     1       1.686   7.090  20.471  0.00  0.00    +0.000 A 
ATOM      4  O   UNL     1       1.325   7.895  21.321  0.00  0.00    +0.000 OA
ATOM      5  O   UNL     1       1.421   5.739  20.576  0.00  0.00    +0.000 OA
ATOM      6  C   UNL     1       1.826   4.845  19.566  0.00  0.00    +0.000 A 
ATOM      7  C   UNL     1       1.489   3.504  19.778  0.00  0.00    +0.000 A 
ATOM      8  C   UNL     1       1.830   2.570  18.810  0.00  0.00    +0.000 A 
ATOM      9  C   UNL     1       2.497   2.966  17.656  0.00  0.00    +0.000 A 
ATOM     10  C   UNL     1       2.848   4.310  17.473  0.00  0.00    +0.000 A 
ATOM     11  C   UNL     1       2.519   5.280  18.431  0.00  0.00    +0.000 A 
ENDROOT
BRANCH   8  12
ATOM     12  O   UNL     1       1.532   1.249  18.951  0.00  0.00    +0.000 OA
ATOM     13  H   UNL     1       0.576   1.155  19.095  0.00  0.00    +0.000 HD
ENDBRANCH   8  12
BRANCH   1  14
ATOM     14  C   UNL     1       3.757   7.242  17.211  0.00  0.00    +0.000 C 
BRANCH  14  15
ATOM     15  S   UNL     1       5.529   7.021  17.564  0.00  0.00    +0.000 S 
BRANCH  15  21
ATOM     16  C   UNL     1       7.632   4.567  17.679  0.00  0.00    +0.000 C 
ATOM     17  N   UNL     1       6.823   4.843  16.517  0.00  0.00    +0.000 N 
ATOM     18  C   UNL     1       6.807   4.082  15.377  0.00  0.00    +0.000 A 
ATOM     19  C   UNL     1       5.981   4.757  14.509  0.00  0.00    +0.000 A 
ATOM     20  N   UNL     1       5.468   5.882  15.101  0.00  0.00    +0.000 NA
ATOM     21  C   UNL     1       5.957   5.888  16.320  0.00  0.00    +0.000 A 
ENDBRANCH  15  21
ENDBRANCH  14  15
ENDBRANCH   1  14
TORSDOF 4
ENDMDL
MODEL 5
REMARK VINA RESULT:      -7.1      3.878      6.240
REMARK  Name = 
REMARK  5 active torsions:
REMARK  status: ('A' for Active; 'I' for Inactive)
REMARK    1  A    between atoms: C_1  and  N_2
REMARK    2  A    between atoms: C_6  and  S_7
REMARK    3  A    between atoms: S_7  and  C_8
REMARK    4  A    between atoms: C_8  and  C_9
REMARK    5  A    between atoms: C_16  and  O_17
REMARK                            x       y       z     vdW  Elec       q    Type
REMARK                         _______ _______ _______ _____ _____    ______ ____
ROOT
ATOM      1  C   UNL     1       3.778   5.159  17.588  0.00  0.00    +0.000 A 
ATOM      2  C   UNL     1       3.516   6.471  17.448  0.00  0.00    +0.000 A 
ATOM      3  C   UNL     1       2.746   7.267  18.414  0.00  0.00    +0.000 A 
ATOM      4  O   UNL     1       2.527   8.456  18.213  0.00  0.00    +0.000 OA
ATOM      5  O   UNL     1       2.313   6.620  19.554  0.00  0.00    +0.000 OA
ATOM      6  C   UNL     1       2.558   5.246  19.738  0.00  0.00    +0.000 A 
ATOM      7  C   UNL     1       2.058   4.699  20.925  0.00  0.00    +0.000 A 
ATOM      8  C   UNL     1       2.236   3.343  21.161  0.00  0.00    +0.000 A 
ATOM      9  C   UNL     1       2.901   2.551  20.233  0.00  0.00    +0.000 A 
ATOM     10  C   UNL     1       3.417   3.120  19.062  0.00  0.00    +0.000 A 
ATOM     11  C   UNL     1       3.255   4.487  18.791  0.00  0.00    +0.000 A 
ENDROOT
BRANCH   8  12
ATOM     12  O   UNL     1       1.775   2.746  22.295  0.00  0.00    +0.000 OA
ATOM     13  H   UNL     1       1.976   1.795  22.254  0.00  0.00    +0.000 HD
ENDBRANCH   8  12
BRANCH   1  14
ATOM     14  C   UNL     1       4.687   4.462  16.597  0.00  0.00    +0.000 C 
BRANCH  14  15
ATOM     15  S   UNL     1       6.038   5.527  16.003  0.00  0.00    +0.000 S 
BRANCH  15  21
ATOM     16  C   UNL     1       7.474   8.086  17.362  0.00  0.00    +0.000 C 
ATOM     17  N   UNL     1       7.530   6.766  17.940  0.00  0.00    +0.000 N 
ATOM     18  C   UNL     1       8.133   6.460  19.133  0.00  0.00    +0.000 A 
ATOM     19  C   UNL     1       8.032   5.093  19.243  0.00  0.00    +0.000 A 
ATOM     20  N   UNL     1       7.356   4.567  18.173  0.00  0.00    +0.000 NA
ATOM     21  C   UNL     1       7.030   5.597  17.426  0.00  0.00    +0.000 A 
ENDBRANCH  15  21
ENDBRANCH  14  15
ENDBRANCH   1  14
TORSDOF 4
ENDMDL
MODEL 6
REMARK VINA RESULT:      -7.0      1.663      1.912
REMARK  Name = 
REMARK  5 active torsions:
REMARK  status: ('A' for Active; 'I' for Inactive)
REMARK    1  A    between atoms: C_1  and  N_2
REMARK    2  A    between atoms: C_6  and  S_7
REMARK    3  A    between atoms: S_7  and  C_8
REMARK    4  A    between atoms: C_8  and  C_9
REMARK    5  A    between atoms: C_16  and  O_17
REMARK                            x       y       z     vdW  Elec       q    Type
REMARK                         _______ _______ _______ _____ _____    ______ ____
ROOT
ATOM      1  C   UNL     1       4.728   5.433  18.126  0.00  0.00    +0.000 A 
ATOM      2  C   UNL     1       5.487   5.484  19.235  0.00  0.00    +0.000 A 
ATOM      3  C   UNL     1       6.949   5.330  19.244  0.00  0.00    +0.000 A 
ATOM      4  O   UNL     1       7.576   5.367  20.296  0.00  0.00    +0.000 OA
ATOM      5  O   UNL     1       7.568   5.173  18.021  0.00  0.00    +0.000 OA
ATOM      6  C   UNL     1       6.812   5.107  16.834  0.00  0.00    +0.000 A 
ATOM      7  C   UNL     1       7.551   4.932  15.659  0.00  0.00    +0.000 A 
ATOM      8  C   UNL     1       6.871   4.828  14.454  0.00  0.00    +0.000 A 
ATOM      9  C   UNL     1       5.484   4.901  14.422  0.00  0.00    +0.000 A 
ATOM     10  C   UNL     1       4.762   5.101  15.606  0.00  0.00    +0.000 A 
ATOM     11  C   UNL     1       5.417   5.210  16.841  0.00  0.00    +0.000 A 
ENDROOT
BRANCH   8  12
ATOM     12  O   UNL     1       7.527   4.657  13.273  0.00  0.00    +0.000 OA
ATOM     13  H   UNL     1       7.538   3.710  13.053  0.00  0.00    +0.000 HD
ENDBRANCH   8  12
BRANCH   1  14
ATOM     14  C   UNL     1       3.245   5.728  18.213  0.00  0.00    +0.000 C 
BRANCH  14  15
ATOM     15  S   UNL     1       2.213   4.252  17.951  0.00  0.00    +0.000 S 
BRANCH  15  21
ATOM     16  C   UNL     1       4.108   2.044  19.364  0.00  0.00    +0.000 C 
ATOM     17  N   UNL     1       3.056   2.732  20.070  0.00  0.00    +0.000 N 
ATOM     18  C   UNL     1       2.782   2.578  21.405  0.00  0.00    +0.000 A 
ATOM     19  C   UNL     1       1.657   3.337  21.628  0.00  0.00    +0.000 A 
ATOM     20  N   UNL     1       1.264   3.974  20.479  0.00  0.00    +0.000 NA
ATOM     21  C   UNL     1       2.145   3.626  19.569  0.00  0.00    +0.000 A 
ENDBRANCH  15  21
ENDBRANCH  14  15
ENDBRANCH   1  14
TORSDOF 4
ENDMDL
MODEL 7
REMARK VINA RESULT:      -7.0      3.897      6.356
REMARK  Name = 
REMARK  5 active torsions:
REMARK  status: ('A' for Active; 'I' for Inactive)
REMARK    1  A    between atoms: C_1  and  N_2
REMARK    2  A    between atoms: C_6  and  S_7
REMARK    3  A    between atoms: S_7  and  C_8
REMARK    4  A    between atoms: C_8  and  C_9
REMARK    5  A    between atoms: C_16  and  O_17
REMARK                            x       y       z     vdW  Elec       q    Type
REMARK                         _______ _______ _______ _____ _____    ______ ____
ROOT
ATOM      1  C   UNL     1       3.906   5.440  17.538  0.00  0.00    +0.000 A 
ATOM      2  C   UNL     1       3.531   6.731  17.492  0.00  0.00    +0.000 A 
ATOM      3  C   UNL     1       2.714   7.391  18.520  0.00  0.00    +0.000 A 
ATOM      4  O   UNL     1       2.392   8.568  18.404  0.00  0.00    +0.000 OA
ATOM      5  O   UNL     1       2.359   6.634  19.618  0.00  0.00    +0.000 OA
ATOM      6  C   UNL     1       2.722   5.276  19.704  0.00  0.00    +0.000 A 
ATOM      7  C   UNL     1       2.293   4.610  20.857  0.00  0.00    +0.000 A 
ATOM      8  C   UNL     1       2.590   3.262  20.997  0.00  0.00    +0.000 A 
ATOM      9  C   UNL     1       3.302   2.594  20.009  0.00  0.00    +0.000 A 
ATOM     10  C   UNL     1       3.745   3.283  18.873  0.00  0.00    +0.000 A 
ATOM     11  C   UNL     1       3.463   4.646  18.699  0.00  0.00    +0.000 A 
ENDROOT
BRANCH   8  12
ATOM     12  O   UNL     1       2.202   2.553  22.093  0.00  0.00    +0.000 OA
ATOM     13  H   UNL     1       2.952   2.018  22.404  0.00  0.00    +0.000 HD
ENDBRANCH   8  12
BRANCH   1  14
ATOM     14  C   UNL     1       4.851   4.891  16.490  0.00  0.00    +0.000 C 
BRANCH  14  15
ATOM     15  S   UNL     1       6.494   4.484  17.160  0.00  0.00    +0.000 S 
BRANCH  15  21
ATOM     16  C   UNL     1       7.982   5.555  19.825  0.00  0.00    +0.000 C 
ATOM     17  N   UNL     1       7.767   6.388  18.667  0.00  0.00    +0.000 N 
ATOM     18  C   UNL     1       8.209   7.680  18.541  0.00  0.00    +0.000 A 
ATOM     19  C   UNL     1       7.704   8.114  17.338  0.00  0.00    +0.000 A 
ATOM     20  N   UNL     1       7.002   7.114  16.715  0.00  0.00    +0.000 NA
ATOM     21  C   UNL     1       7.089   6.076  17.516  0.00  0.00    +0.000 A 
ENDBRANCH  15  21
ENDBRANCH  14  15
ENDBRANCH   1  14
TORSDOF 4
ENDMDL
MODEL 8
REMARK VINA RESULT:      -7.0      1.104      1.290
REMARK  Name = 
REMARK  5 active torsions:
REMARK  status: ('A' for Active; 'I' for Inactive)
REMARK    1  A    between atoms: C_1  and  N_2
REMARK    2  A    between atoms: C_6  and  S_7
REMARK    3  A    between atoms: S_7  and  C_8
REMARK    4  A    between atoms: C_8  and  C_9
REMARK    5  A    between atoms: C_16  and  O_17
REMARK                            x       y       z     vdW  Elec       q    Type
REMARK                         _______ _______ _______ _____ _____    ______ ____
ROOT
ATOM      1  C   UNL     1       5.237   4.439  17.021  0.00  0.00    +0.000 A 
ATOM      2  C   UNL     1       5.899   5.190  17.920  0.00  0.00    +0.000 A 
ATOM      3  C   UNL     1       7.116   5.957  17.619  0.00  0.00    +0.000 A 
ATOM      4  O   UNL     1       7.680   6.605  18.493  0.00  0.00    +0.000 OA
ATOM      5  O   UNL     1       7.565   5.932  16.314  0.00  0.00    +0.000 OA
ATOM      6  C   UNL     1       6.907   5.153  15.342  0.00  0.00    +0.000 A 
ATOM      7  C   UNL     1       7.463   5.197  14.059  0.00  0.00    +0.000 A 
ATOM      8  C   UNL     1       6.885   4.432  13.055  0.00  0.00    +0.000 A 
ATOM      9  C   UNL     1       5.774   3.642  13.327  0.00  0.00    +0.000 A 
ATOM     10  C   UNL     1       5.216   3.630  14.612  0.00  0.00    +0.000 A 
ATOM     11  C   UNL     1       5.775   4.391  15.649  0.00  0.00    +0.000 A 
ENDROOT
BRANCH   8  12
ATOM     12  O   UNL     1       7.375   4.427  11.785  0.00  0.00    +0.000 OA
ATOM     13  H   UNL     1       6.679   4.120  11.180  0.00  0.00    +0.000 HD
ENDBRANCH   8  12
BRANCH   1  14
ATOM     14  C   UNL     1       3.924   3.788  17.404  0.00  0.00    +0.000 C 
BRANCH  14  15
ATOM     15  S   UNL     1       2.690   4.981  18.008  0.00  0.00    +0.000 S 
BRANCH  15  21
ATOM     16  C   UNL     1       0.881   2.362  18.583  0.00  0.00    +0.000 C 
ATOM     17  N   UNL     1       1.542   3.096  19.634  0.00  0.00    +0.000 N 
ATOM     18  C   UNL     1       1.531   2.744  20.959  0.00  0.00    +0.000 A 
ATOM     19  C   UNL     1       2.194   3.761  21.605  0.00  0.00    +0.000 A 
ATOM     20  N   UNL     1       2.639   4.698  20.708  0.00  0.00    +0.000 NA
ATOM     21  C   UNL     1       2.269   4.254  19.527  0.00  0.00    +0.000 A 
ENDBRANCH  15  21
ENDBRANCH  14  15
ENDBRANCH   1  14
TORSDOF 4
ENDMDL
MODEL 9
REMARK VINA RESULT:      -7.0      0.701      1.383
REMARK  Name = 
REMARK  5 active torsions:
REMARK  status: ('A' for Active; 'I' for Inactive)
REMARK    1  A    between atoms: C_1  and  N_2
REMARK    2  A    between atoms: C_6  and  S_7
REMARK    3  A    between atoms: S_7  and  C_8
REMARK    4  A    between atoms: C_8  and  C_9
REMARK    5  A    between atoms: C_16  and  O_17
REMARK                            x       y       z     vdW  Elec       q    Type
REMARK                         _______ _______ _______ _____ _____    ______ ____
ROOT
ATOM      1  C   UNL     1       5.981   5.294  18.267  0.00  0.00    +0.000 A 
ATOM      2  C   UNL     1       6.708   6.387  18.559  0.00  0.00    +0.000 A 
ATOM      3  C   UNL     1       7.581   7.079  17.601  0.00  0.00    +0.000 A 
ATOM      4  O   UNL     1       8.232   8.059  17.942  0.00  0.00    +0.000 OA
ATOM      5  O   UNL     1       7.605   6.590  16.311  0.00  0.00    +0.000 OA
ATOM      6  C   UNL     1       6.865   5.443  15.962  0.00  0.00    +0.000 A 
ATOM      7  C   UNL     1       6.981   5.035  14.629  0.00  0.00    +0.000 A 
ATOM      8  C   UNL     1       6.302   3.895  14.219  0.00  0.00    +0.000 A 
ATOM      9  C   UNL     1       5.524   3.180  15.122  0.00  0.00    +0.000 A 
ATOM     10  C   UNL     1       5.400   3.618  16.446  0.00  0.00    +0.000 A 
ATOM     11  C   UNL     1       6.071   4.765  16.893  0.00  0.00    +0.000 A 
ENDROOT
BRANCH   8  12
ATOM     12  O   UNL     1       6.371   3.441  12.937  0.00  0.00    +0.000 OA
ATOM     13  H   UNL     1       5.622   3.804  12.434  0.00  0.00    +0.000 HD
ENDBRANCH   8  12
BRANCH   1  14
ATOM     14  C   UNL     1       5.018   4.731  19.293  0.00  0.00    +0.000 C 
BRANCH  14  15
ATOM     15  S   UNL     1       3.406   5.576  19.291  0.00  0.00    +0.000 S 
BRANCH  15  21
ATOM     16  C   UNL     1       2.287   3.699  21.676  0.00  0.00    +0.000 C 
ATOM     17  N   UNL     1       1.882   3.534  20.302  0.00  0.00    +0.000 N 
ATOM     18  C   UNL     1       0.954   2.624  19.865  0.00  0.00    +0.000 A 
ATOM     19  C   UNL     1       0.952   2.746  18.495  0.00  0.00    +0.000 A 
ATOM     20  N   UNL     1       1.822   3.726  18.093  0.00  0.00    +0.000 NA
ATOM     21  C   UNL     1       2.338   4.211  19.200  0.00  0.00    +0.000 A 
ENDBRANCH  15  21
ENDBRANCH  14  15
ENDBRANCH   1  14
TORSDOF 4
ENDMDL
