MODEL 1
REMARK VINA RESULT:      -6.3      0.000      0.000
REMARK  Name = 
REMARK  5 active torsions:
REMARK  status: ('A' for Active; 'I' for Inactive)
REMARK    1  A    between atoms: C_1  and  S_2
REMARK    2  A    between atoms: S_2  and  C_3
REMARK    3  A    between atoms: C_7  and  N_8
REMARK    4  A    between atoms: N_8  and  C_9
REMARK    5  A    between atoms: N_8  and  C_10
REMARK                            x       y       z     vdW  Elec       q    Type
REMARK                         _______ _______ _______ _____ _____    ______ ____
ROOT
ATOM      1  C   UNL     1      -0.746  10.413  18.306  0.00  0.00    +0.000 A 
ATOM      2  N   UNL     1       0.312   9.778  17.823  0.00  0.00    +0.000 NA
ATOM      3  C   UNL     1       1.109   9.185  18.730  0.00  0.00    +0.000 A 
ATOM      4  C   UNL     1       0.882   9.211  20.102  0.00  0.00    +0.000 A 
ATOM      5  C   UNL     1      -0.210   9.964  20.540  0.00  0.00    +0.000 A 
ATOM      6  N   UNL     1      -1.004  10.541  19.611  0.00  0.00    +0.000 NA
ATOM      7  C   UNL     1       1.826   8.534  21.012  0.00  0.00    +0.000 C 
ATOM      8  N   UNL     1       2.295   7.316  21.001  0.00  0.00    +0.000 NA
ATOM      9  N   UNL     1       2.051   6.506  19.921  0.00  0.00    +0.000 N 
ATOM     10  C   UNL     1       2.102   6.804  18.571  0.00  0.00    +0.000 A 
ATOM     11  N   UNL     1       1.845   5.777  17.800  0.00  0.00    +0.000 NA
ATOM     12  C   UNL     1       1.686   4.732  18.667  0.00  0.00    +0.000 A 
ATOM     13  C   UNL     1       1.410   3.387  18.380  0.00  0.00    +0.000 A 
ATOM     14  C   UNL     1       1.320   2.475  19.435  0.00  0.00    +0.000 A 
ATOM     15  C   UNL     1       1.510   2.894  20.754  0.00  0.00    +0.000 A 
ATOM     16  C   UNL     1       1.781   4.235  21.063  0.00  0.00    +0.000 A 
ATOM     17  C   UNL     1       1.852   5.137  19.991  0.00  0.00    +0.000 A 
ATOM     18  S   UNL     1       2.516   8.378  17.998  0.00  0.00    +0.000 S 
ENDROOT
BRANCH   5  19
ATOM     19  N   UNL     1      -0.629  10.159  21.847  0.00  0.00    +0.000 N 
ATOM     20  C   UNL     1      -0.539   9.214  22.949  0.00  0.00    +0.000 C 
ATOM     21  C   UNL     1      -0.969  11.528  22.263  0.00  0.00    +0.000 C 
ENDBRANCH   5  19
BRANCH   1  23
ATOM     22  C   UNL     1      -3.084   9.767  16.999  0.00  0.00    +0.000 C 
ATOM     23  S   UNL     1      -1.920  11.139  17.192  0.00  0.00    +0.000 S 
ENDBRANCH   1  23
TORSDOF 2
ENDMDL
MODEL 2
REMARK VINA RESULT:      -6.2      8.501      9.737
REMARK  Name = 
REMARK  5 active torsions:
REMARK  status: ('A' for Active; 'I' for Inactive)
REMARK    1  A    between atoms: C_1  and  S_2
REMARK    2  A    between atoms: S_2  and  C_3
REMARK    3  A    between atoms: C_7  and  N_8
REMARK    4  A    between atoms: N_8  and  C_9
REMARK    5  A    between atoms: N_8  and  C_10
REMARK                            x       y       z     vdW  Elec       q    Type
REMARK                         _______ _______ _______ _____ _____    ______ ____
ROOT
ATOM      1  C   UNL     1       4.263  14.205  21.387  0.00  0.00    +0.000 A 
ATOM      2  N   UNL     1       5.117  14.932  20.681  0.00  0.00    +0.000 NA
ATOM      3  C   UNL     1       6.383  14.962  21.135  0.00  0.00    +0.000 A 
ATOM      4  C   UNL     1       6.818  14.290  22.274  0.00  0.00    +0.000 A 
ATOM      5  C   UNL     1       5.845  13.608  23.007  0.00  0.00    +0.000 A 
ATOM      6  N   UNL     1       4.582  13.581  22.525  0.00  0.00    +0.000 NA
ATOM      7  C   UNL     1       8.229  14.398  22.690  0.00  0.00    +0.000 C 
ATOM      8  N   UNL     1       9.333  14.204  22.021  0.00  0.00    +0.000 NA
ATOM      9  N   UNL     1       9.277  14.021  20.662  0.00  0.00    +0.000 N 
ATOM     10  C   UNL     1       8.526  14.696  19.716  0.00  0.00    +0.000 A 
ATOM     11  N   UNL     1       8.743  14.288  18.490  0.00  0.00    +0.000 NA
ATOM     12  C   UNL     1       9.731  13.351  18.614  0.00  0.00    +0.000 A 
ATOM     13  C   UNL     1      10.360  12.600  17.608  0.00  0.00    +0.000 A 
ATOM     14  C   UNL     1      11.379  11.714  17.965  0.00  0.00    +0.000 A 
ATOM     15  C   UNL     1      11.772  11.582  19.299  0.00  0.00    +0.000 A 
ATOM     16  C   UNL     1      11.151  12.317  20.319  0.00  0.00    +0.000 A 
ATOM     17  C   UNL     1      10.121  13.191  19.943  0.00  0.00    +0.000 A 
ATOM     18  S   UNL     1       7.455  15.979  20.145  0.00  0.00    +0.000 S 
ENDROOT
BRANCH   5  19
ATOM     19  N   UNL     1       6.022  12.886  24.177  0.00  0.00    +0.000 N 
ATOM     20  C   UNL     1       6.646  11.580  24.317  0.00  0.00    +0.000 C 
ATOM     21  C   UNL     1       5.803  13.581  25.454  0.00  0.00    +0.000 C 
ENDBRANCH   5  19
BRANCH   1  23
ATOM     22  C   UNL     1       2.856  13.994  19.027  0.00  0.00    +0.000 C 
ATOM     23  S   UNL     1       2.594  14.012  20.818  0.00  0.00    +0.000 S 
ENDBRANCH   1  23
TORSDOF 2
ENDMDL
MODEL 3
REMARK VINA RESULT:      -6.1      6.228     10.490
REMARK  Name = 
REMARK  5 active torsions:
REMARK  status: ('A' for Active; 'I' for Inactive)
REMARK    1  A    between atoms: C_1  and  S_2
REMARK    2  A    between atoms: S_2  and  C_3
REMARK    3  A    between atoms: C_7  and  N_8
REMARK    4  A    between atoms: N_8  and  C_9
REMARK    5  A    between atoms: N_8  and  C_10
REMARK                            x       y       z     vdW  Elec       q    Type
REMARK                         _______ _______ _______ _____ _____    ______ ____
ROOT
ATOM      1  C   UNL     1      -3.401  11.035  17.827  0.00  0.00    +0.000 A 
ATOM      2  N   UNL     1      -4.676  11.237  17.524  0.00  0.00    +0.000 NA
ATOM      3  C   UNL     1      -5.346  12.083  18.327  0.00  0.00    +0.000 A 
ATOM      4  C   UNL     1      -4.782  12.729  19.423  0.00  0.00    +0.000 A 
ATOM      5  C   UNL     1      -3.457  12.407  19.723  0.00  0.00    +0.000 A 
ATOM      6  N   UNL     1      -2.799  11.564  18.896  0.00  0.00    +0.000 NA
ATOM      7  C   UNL     1      -5.611  13.632  20.244  0.00  0.00    +0.000 C 
ATOM      8  N   UNL     1      -6.371  14.637  19.904  0.00  0.00    +0.000 NA
ATOM      9  N   UNL     1      -6.629  14.871  18.577  0.00  0.00    +0.000 N 
ATOM     10  C   UNL     1      -6.938  13.974  17.571  0.00  0.00    +0.000 A 
ATOM     11  N   UNL     1      -7.164  14.544  16.414  0.00  0.00    +0.000 NA
ATOM     12  C   UNL     1      -7.072  15.883  16.672  0.00  0.00    +0.000 A 
ATOM     13  C   UNL     1      -7.242  16.961  15.789  0.00  0.00    +0.000 A 
ATOM     14  C   UNL     1      -7.134  18.263  16.284  0.00  0.00    +0.000 A 
ATOM     15  C   UNL     1      -6.868  18.489  17.637  0.00  0.00    +0.000 A 
ATOM     16  C   UNL     1      -6.688  17.426  18.534  0.00  0.00    +0.000 A 
ATOM     17  C   UNL     1      -6.787  16.127  18.015  0.00  0.00    +0.000 A 
ATOM     18  S   UNL     1      -7.053  12.277  17.864  0.00  0.00    +0.000 S 
ENDROOT
BRANCH   5  19
ATOM     19  N   UNL     1      -2.685  12.897  20.766  0.00  0.00    +0.000 N 
ATOM     20  C   UNL     1      -2.661  12.421  22.140  0.00  0.00    +0.000 C 
ATOM     21  C   UNL     1      -1.587  13.817  20.435  0.00  0.00    +0.000 C 
ENDBRANCH   5  19
BRANCH   1  23
ATOM     22  C   UNL     1      -3.007  10.532  15.147  0.00  0.00    +0.000 C 
ATOM     23  S   UNL     1      -2.397  10.022  16.773  0.00  0.00    +0.000 S 
ENDBRANCH   1  23
TORSDOF 2
ENDMDL
MODEL 4
REMARK VINA RESULT:      -5.9      4.955      7.173
REMARK  Name = 
REMARK  5 active torsions:
REMARK  status: ('A' for Active; 'I' for Inactive)
REMARK    1  A    between atoms: C_1  and  S_2
REMARK    2  A    between atoms: S_2  and  C_3
REMARK    3  A    between atoms: C_7  and  N_8
REMARK    4  A    between atoms: N_8  and  C_9
REMARK    5  A    between atoms: N_8  and  C_10
REMARK                            x       y       z     vdW  Elec       q    Type
REMARK                         _______ _______ _______ _____ _____    ______ ____
ROOT
ATOM      1  C   UNL     1       2.939  14.589  18.828  0.00  0.00    +0.000 A 
ATOM      2  N   UNL     1       2.578  13.401  19.291  0.00  0.00    +0.000 NA
ATOM      3  C   UNL     1       1.317  13.302  19.747  0.00  0.00    +0.000 A 
ATOM      4  C   UNL     1       0.408  14.356  19.758  0.00  0.00    +0.000 A 
ATOM      5  C   UNL     1       0.885  15.596  19.325  0.00  0.00    +0.000 A 
ATOM      6  N   UNL     1       2.151  15.668  18.859  0.00  0.00    +0.000 NA
ATOM      7  C   UNL     1      -0.951  14.143  20.291  0.00  0.00    +0.000 C 
ATOM      8  N   UNL     1      -1.843  13.232  20.012  0.00  0.00    +0.000 NA
ATOM      9  N   UNL     1      -1.496  12.165  19.223  0.00  0.00    +0.000 N 
ATOM     10  C   UNL     1      -0.349  11.392  19.246  0.00  0.00    +0.000 A 
ATOM     11  N   UNL     1      -0.358  10.418  18.370  0.00  0.00    +0.000 NA
ATOM     12  C   UNL     1      -1.590  10.500  17.784  0.00  0.00    +0.000 A 
ATOM     13  C   UNL     1      -2.141   9.686  16.782  0.00  0.00    +0.000 A 
ATOM     14  C   UNL     1      -3.447   9.936  16.351  0.00  0.00    +0.000 A 
ATOM     15  C   UNL     1      -4.195  10.973  16.915  0.00  0.00    +0.000 A 
ATOM     16  C   UNL     1      -3.660  11.801  17.912  0.00  0.00    +0.000 A 
ATOM     17  C   UNL     1      -2.343  11.544  18.319  0.00  0.00    +0.000 A 
ATOM     18  S   UNL     1       0.926  11.683  20.372  0.00  0.00    +0.000 S 
ENDROOT
BRANCH   5  19
ATOM     19  N   UNL     1       0.186  16.792  19.261  0.00  0.00    +0.000 N 
ATOM     20  C   UNL     1      -0.743  17.211  18.223  0.00  0.00    +0.000 C 
ATOM     21  C   UNL     1       0.156  17.636  20.464  0.00  0.00    +0.000 C 
ENDBRANCH   5  19
BRANCH   1  23
ATOM     22  C   UNL     1       5.501  15.286  19.562  0.00  0.00    +0.000 C 
ATOM     23  S   UNL     1       4.544  14.800  18.105  0.00  0.00    +0.000 S 
ENDBRANCH   1  23
TORSDOF 2
ENDMDL
MODEL 5
REMARK VINA RESULT:      -5.8      4.743      9.119
REMARK  Name = 
REMARK  5 active torsions:
REMARK  status: ('A' for Active; 'I' for Inactive)
REMARK    1  A    between atoms: C_1  and  S_2
REMARK    2  A    between atoms: S_2  and  C_3
REMARK    3  A    between atoms: C_7  and  N_8
REMARK    4  A    between atoms: N_8  and  C_9
REMARK    5  A    between atoms: N_8  and  C_10
REMARK                            x       y       z     vdW  Elec       q    Type
REMARK                         _______ _______ _______ _____ _____    ______ ____
ROOT
ATOM      1  C   UNL     1      -0.800  11.095  22.828  0.00  0.00    +0.000 A 
ATOM      2  N   UNL     1      -1.994  11.296  23.366  0.00  0.00    +0.000 NA
ATOM      3  C   UNL     1      -2.540  12.508  23.158  0.00  0.00    +0.000 A 
ATOM      4  C   UNL     1      -1.926  13.524  22.432  0.00  0.00    +0.000 A 
ATOM      5  C   UNL     1      -0.637  13.264  21.961  0.00  0.00    +0.000 A 
ATOM      6  N   UNL     1      -0.114  12.035  22.171  0.00  0.00    +0.000 NA
ATOM      7  C   UNL     1      -2.609  14.822  22.271  0.00  0.00    +0.000 C 
ATOM      8  N   UNL     1      -3.815  15.105  21.859  0.00  0.00    +0.000 NA
ATOM      9  N   UNL     1      -4.721  14.093  21.671  0.00  0.00    +0.000 N 
ATOM     10  C   UNL     1      -4.982  12.989  22.464  0.00  0.00    +0.000 A 
ATOM     11  N   UNL     1      -5.947  12.233  22.004  0.00  0.00    +0.000 NA
ATOM     12  C   UNL     1      -6.399  12.894  20.896  0.00  0.00    +0.000 A 
ATOM     13  C   UNL     1      -7.440  12.538  20.025  0.00  0.00    +0.000 A 
ATOM     14  C   UNL     1      -7.753  13.391  18.963  0.00  0.00    +0.000 A 
ATOM     15  C   UNL     1      -7.049  14.583  18.778  0.00  0.00    +0.000 A 
ATOM     16  C   UNL     1      -6.002  14.954  19.633  0.00  0.00    +0.000 A 
ATOM     17  C   UNL     1      -5.692  14.077  20.683  0.00  0.00    +0.000 A 
ATOM     18  S   UNL     1      -4.128  12.700  23.935  0.00  0.00    +0.000 S 
ENDROOT
BRANCH   5  19
ATOM     19  N   UNL     1       0.183  14.114  21.234  0.00  0.00    +0.000 N 
ATOM     20  C   UNL     1       1.313  14.882  21.733  0.00  0.00    +0.000 C 
ATOM     21  C   UNL     1       0.096  14.066  19.768  0.00  0.00    +0.000 C 
ENDBRANCH   5  19
BRANCH   1  23
ATOM     22  C   UNL     1       0.021   9.025  21.205  0.00  0.00    +0.000 C 
ATOM     23  S   UNL     1      -0.037   9.499  22.951  0.00  0.00    +0.000 S 
ENDBRANCH   1  23
TORSDOF 2
ENDMDL
MODEL 6
REMARK VINA RESULT:      -5.8      4.192      7.682
REMARK  Name = 
REMARK  5 active torsions:
REMARK  status: ('A' for Active; 'I' for Inactive)
REMARK    1  A    between atoms: C_1  and  S_2
REMARK    2  A    between atoms: S_2  and  C_3
REMARK    3  A    between atoms: C_7  and  N_8
REMARK    4  A    between atoms: N_8  and  C_9
REMARK    5  A    between atoms: N_8  and  C_10
REMARK                            x       y       z     vdW  Elec       q    Type
REMARK                         _______ _______ _______ _____ _____    ______ ____
ROOT
ATOM      1  C   UNL     1      -2.021  10.697  18.442  0.00  0.00    +0.000 A 
ATOM      2  N   UNL     1      -2.101  11.878  19.038  0.00  0.00    +0.000 NA
ATOM      3  C   UNL     1      -1.036  12.242  19.774  0.00  0.00    +0.000 A 
ATOM      4  C   UNL     1       0.103  11.459  19.936  0.00  0.00    +0.000 A 
ATOM      5  C   UNL     1       0.082  10.196  19.340  0.00  0.00    +0.000 A 
ATOM      6  N   UNL     1      -0.993   9.857  18.594  0.00  0.00    +0.000 NA
ATOM      7  C   UNL     1       1.213  11.949  20.775  0.00  0.00    +0.000 C 
ATOM      8  N   UNL     1       1.860  13.083  20.756  0.00  0.00    +0.000 NA
ATOM      9  N   UNL     1       1.405  14.108  19.966  0.00  0.00    +0.000 N 
ATOM     10  C   UNL     1       0.111  14.557  19.769  0.00  0.00    +0.000 A 
ATOM     11  N   UNL     1       0.034  15.593  18.971  0.00  0.00    +0.000 NA
ATOM     12  C   UNL     1       1.335  15.893  18.678  0.00  0.00    +0.000 A 
ATOM     13  C   UNL     1       1.837  16.928  17.873  0.00  0.00    +0.000 A 
ATOM     14  C   UNL     1       3.221  17.068  17.739  0.00  0.00    +0.000 A 
ATOM     15  C   UNL     1       4.091  16.199  18.402  0.00  0.00    +0.000 A 
ATOM     16  C   UNL     1       3.609  15.155  19.205  0.00  0.00    +0.000 A 
ATOM     17  C   UNL     1       2.217  15.022  19.315  0.00  0.00    +0.000 A 
ATOM     18  S   UNL     1      -1.239  13.826  20.557  0.00  0.00    +0.000 S 
ENDROOT
BRANCH   5  19
ATOM     19  N   UNL     1       1.078   9.232  19.372  0.00  0.00    +0.000 N 
ATOM     20  C   UNL     1       1.375   8.313  20.459  0.00  0.00    +0.000 C 
ATOM     21  C   UNL     1       1.756   8.901  18.110  0.00  0.00    +0.000 C 
ENDBRANCH   5  19
BRANCH   1  23
ATOM     22  C   UNL     1      -2.757  10.869  15.792  0.00  0.00    +0.000 C 
ATOM     23  S   UNL     1      -3.324  10.167  17.361  0.00  0.00    +0.000 S 
ENDBRANCH   1  23
TORSDOF 2
ENDMDL
MODEL 7
REMARK VINA RESULT:      -5.7      5.691     10.387
REMARK  Name = 
REMARK  5 active torsions:
REMARK  status: ('A' for Active; 'I' for Inactive)
REMARK    1  A    between atoms: C_1  and  S_2
REMARK    2  A    between atoms: S_2  and  C_3
REMARK    3  A    between atoms: C_7  and  N_8
REMARK    4  A    between atoms: N_8  and  C_9
REMARK    5  A    between atoms: N_8  and  C_10
REMARK                            x       y       z     vdW  Elec       q    Type
REMARK                         _______ _______ _______ _____ _____    ______ ____
ROOT
ATOM      1  C   UNL     1      -3.067  11.106  18.186  0.00  0.00    +0.000 A 
ATOM      2  N   UNL     1      -4.339  11.184  17.825  0.00  0.00    +0.000 NA
ATOM      3  C   UNL     1      -5.112  12.005  18.558  0.00  0.00    +0.000 A 
ATOM      4  C   UNL     1      -4.651  12.747  19.641  0.00  0.00    +0.000 A 
ATOM      5  C   UNL     1      -3.318  12.555  20.008  0.00  0.00    +0.000 A 
ATOM      6  N   UNL     1      -2.556  11.735  19.249  0.00  0.00    +0.000 NA
ATOM      7  C   UNL     1      -5.587  13.612  20.384  0.00  0.00    +0.000 C 
ATOM      8  N   UNL     1      -6.414  14.531  19.966  0.00  0.00    +0.000 NA
ATOM      9  N   UNL     1      -6.635  14.681  18.620  0.00  0.00    +0.000 N 
ATOM     10  C   UNL     1      -6.824  13.714  17.649  0.00  0.00    +0.000 A 
ATOM     11  N   UNL     1      -7.048  14.209  16.457  0.00  0.00    +0.000 NA
ATOM     12  C   UNL     1      -7.080  15.561  16.651  0.00  0.00    +0.000 A 
ATOM     13  C   UNL     1      -7.303  16.579  15.710  0.00  0.00    +0.000 A 
ATOM     14  C   UNL     1      -7.325  17.907  16.143  0.00  0.00    +0.000 A 
ATOM     15  C   UNL     1      -7.137  18.217  17.492  0.00  0.00    +0.000 A 
ATOM     16  C   UNL     1      -6.907  17.217  18.447  0.00  0.00    +0.000 A 
ATOM     17  C   UNL     1      -6.873  15.891  17.990  0.00  0.00    +0.000 A 
ATOM     18  S   UNL     1      -6.808  12.029  18.021  0.00  0.00    +0.000 S 
ENDROOT
BRANCH   5  19
ATOM     19  N   UNL     1      -2.635  13.158  21.053  0.00  0.00    +0.000 N 
ATOM     20  C   UNL     1      -2.077  14.500  21.079  0.00  0.00    +0.000 C 
ATOM     21  C   UNL     1      -2.681  12.507  22.371  0.00  0.00    +0.000 C 
ENDBRANCH   5  19
BRANCH   1  23
ATOM     22  C   UNL     1      -0.460  10.216  18.266  0.00  0.00    +0.000 C 
ATOM     23  S   UNL     1      -1.937  10.135  17.223  0.00  0.00    +0.000 S 
ENDBRANCH   1  23
TORSDOF 2
ENDMDL
MODEL 8
REMARK VINA RESULT:      -5.7      8.143      9.325
REMARK  Name = 
REMARK  5 active torsions:
REMARK  status: ('A' for Active; 'I' for Inactive)
REMARK    1  A    between atoms: C_1  and  S_2
REMARK    2  A    between atoms: S_2  and  C_3
REMARK    3  A    between atoms: C_7  and  N_8
REMARK    4  A    between atoms: N_8  and  C_9
REMARK    5  A    between atoms: N_8  and  C_10
REMARK                            x       y       z     vdW  Elec       q    Type
REMARK                         _______ _______ _______ _____ _____    ______ ____
ROOT
ATOM      1  C   UNL     1       3.482  14.164  20.661  0.00  0.00    +0.000 A 
ATOM      2  N   UNL     1       4.274  14.616  19.699  0.00  0.00    +0.000 NA
ATOM      3  C   UNL     1       5.494  15.029  20.084  0.00  0.00    +0.000 A 
ATOM      4  C   UNL     1       5.944  15.009  21.401  0.00  0.00    +0.000 A 
ATOM      5  C   UNL     1       5.027  14.591  22.367  0.00  0.00    +0.000 A 
ATOM      6  N   UNL     1       3.810  14.168  21.957  0.00  0.00    +0.000 NA
ATOM      7  C   UNL     1       7.300  15.495  21.717  0.00  0.00    +0.000 C 
ATOM      8  N   UNL     1       8.459  15.187  21.200  0.00  0.00    +0.000 NA
ATOM      9  N   UNL     1       8.510  14.411  20.070  0.00  0.00    +0.000 N 
ATOM     10  C   UNL     1       7.736  14.474  18.926  0.00  0.00    +0.000 A 
ATOM     11  N   UNL     1       8.080  13.598  18.014  0.00  0.00    +0.000 NA
ATOM     12  C   UNL     1       9.174  12.971  18.541  0.00  0.00    +0.000 A 
ATOM     13  C   UNL     1       9.957  11.952  17.978  0.00  0.00    +0.000 A 
ATOM     14  C   UNL     1      11.062  11.477  18.691  0.00  0.00    +0.000 A 
ATOM     15  C   UNL     1      11.386  12.014  19.939  0.00  0.00    +0.000 A 
ATOM     16  C   UNL     1      10.612  13.028  20.522  0.00  0.00    +0.000 A 
ATOM     17  C   UNL     1       9.500  13.480  19.798  0.00  0.00    +0.000 A 
ATOM     18  S   UNL     1       6.480  15.642  18.736  0.00  0.00    +0.000 S 
ENDROOT
BRANCH   5  19
ATOM     19  N   UNL     1       5.226  14.502  23.737  0.00  0.00    +0.000 N 
ATOM     20  C   UNL     1       5.880  13.423  24.460  0.00  0.00    +0.000 C 
ATOM     21  C   UNL     1       5.000  15.709  24.545  0.00  0.00    +0.000 C 
ENDBRANCH   5  19
BRANCH   1  23
ATOM     22  C   UNL     1       1.251  14.804  19.176  0.00  0.00    +0.000 C 
ATOM     23  S   UNL     1       1.892  13.495  20.249  0.00  0.00    +0.000 S 
ENDBRANCH   1  23
TORSDOF 2
ENDMDL
MODEL 9
REMARK VINA RESULT:      -5.7      4.978      6.935
REMARK  Name = 
REMARK  5 active torsions:
REMARK  status: ('A' for Active; 'I' for Inactive)
REMARK    1  A    between atoms: C_1  and  S_2
REMARK    2  A    between atoms: S_2  and  C_3
REMARK    3  A    between atoms: C_7  and  N_8
REMARK    4  A    between atoms: N_8  and  C_9
REMARK    5  A    between atoms: N_8  and  C_10
REMARK                            x       y       z     vdW  Elec       q    Type
REMARK                         _______ _______ _______ _____ _____    ______ ____
ROOT
ATOM      1  C   UNL     1       2.360  14.410  19.928  0.00  0.00    +0.000 A 
ATOM      2  N   UNL     1       2.032  13.135  20.080  0.00  0.00    +0.000 NA
ATOM      3  C   UNL     1       0.745  12.889  20.384  0.00  0.00    +0.000 A 
ATOM      4  C   UNL     1      -0.220  13.878  20.545  0.00  0.00    +0.000 A 
ATOM      5  C   UNL     1       0.218  15.200  20.444  0.00  0.00    +0.000 A 
ATOM      6  N   UNL     1       1.512  15.424  20.125  0.00  0.00    +0.000 NA
ATOM      7  C   UNL     1      -1.604  13.499  20.888  0.00  0.00    +0.000 C 
ATOM      8  N   UNL     1      -2.416  12.642  20.332  0.00  0.00    +0.000 NA
ATOM      9  N   UNL     1      -1.945  11.795  19.361  0.00  0.00    +0.000 N 
ATOM     10  C   UNL     1      -0.762  11.080  19.319  0.00  0.00    +0.000 A 
ATOM     11  N   UNL     1      -0.643  10.331  18.251  0.00  0.00    +0.000 NA
ATOM     12  C   UNL     1      -1.825  10.497  17.586  0.00  0.00    +0.000 A 
ATOM     13  C   UNL     1      -2.245   9.911  16.381  0.00  0.00    +0.000 A 
ATOM     14  C   UNL     1      -3.523  10.202  15.898  0.00  0.00    +0.000 A 
ATOM     15  C   UNL     1      -4.373  11.056  16.606  0.00  0.00    +0.000 A 
ATOM     16  C   UNL     1      -3.970  11.656  17.807  0.00  0.00    +0.000 A 
ATOM     17  C   UNL     1      -2.679  11.363  18.268  0.00  0.00    +0.000 A 
ATOM     18  S   UNL     1       0.398  11.157  20.594  0.00  0.00    +0.000 S 
ENDROOT
BRANCH   5  19
ATOM     19  N   UNL     1      -0.541  16.353  20.582  0.00  0.00    +0.000 N 
ATOM     20  C   UNL     1      -0.778  17.107  21.803  0.00  0.00    +0.000 C 
ATOM     21  C   UNL     1      -0.950  17.057  19.358  0.00  0.00    +0.000 C 
ENDBRANCH   5  19
BRANCH   1  23
ATOM     22  C   UNL     1       3.703  15.341  17.709  0.00  0.00    +0.000 C 
ATOM     23  S   UNL     1       4.005  14.840  19.422  0.00  0.00    +0.000 S 
ENDBRANCH   1  23
TORSDOF 2
ENDMDL
