MODEL 1
REMARK VINA RESULT:      -7.7      0.000      0.000
REMARK  Name = 
REMARK  5 active torsions:
REMARK  status: ('A' for Active; 'I' for Inactive)
REMARK    1  A    between atoms: C_4  and  C_5
REMARK    2  A    between atoms: C_5  and  C_6
REMARK    3  A    between atoms: C_6  and  N_7
REMARK    4  A    between atoms: N_7  and  C_8
REMARK    5  A    between atoms: C_8  and  C_9
REMARK                            x       y       z     vdW  Elec       q    Type
REMARK                         _______ _______ _______ _____ _____    ______ ____
ROOT
ATOM      1  C   UNL     1       6.829   5.311  17.839  0.00  0.00    +0.000 C 
ENDROOT
BRANCH   1   2
ATOM      2  C   UNL     1       6.826   4.901  16.406  0.00  0.00    +0.000 A 
ATOM      3  C   UNL     1       5.954   4.003  15.817  0.00  0.00    +0.000 A 
ATOM      4  C   UNL     1       6.171   4.003  14.420  0.00  0.00    +0.000 A 
ATOM      5  C   UNL     1       5.548   3.339  13.345  0.00  0.00    +0.000 A 
ATOM      6  C   UNL     1       6.026   3.537  12.048  0.00  0.00    +0.000 A 
ATOM      7  C   UNL     1       7.107   4.384  11.819  0.00  0.00    +0.000 A 
ATOM      8  C   UNL     1       7.723   5.081  12.872  0.00  0.00    +0.000 A 
ATOM      9  C   UNL     1       7.229   4.876  14.173  0.00  0.00    +0.000 A 
ATOM     10  N   UNL     1       7.597   5.431  15.392  0.00  0.00    +0.000 N 
ATOM     11  H   UNL     1       8.296   6.150  15.515  0.00  0.00    +0.000 HD
ENDBRANCH   1   2
BRANCH   1  12
ATOM     12  N   UNL     1       5.985   4.527  18.749  0.00  0.00    +0.000 NA
ATOM     13  H   UNL     1       5.488   3.824  18.203  0.00  0.00    +0.000 HD
BRANCH  12  14
ATOM     14  C   UNL     1       4.986   5.471  19.320  0.00  0.00    +0.000 C 
BRANCH  14  15
ATOM     15  C   UNL     1       3.716   5.662  18.479  0.00  0.00    +0.000 C 
BRANCH  15  19
ATOM     16  C   UNL     1       0.682   2.757  19.551  0.00  0.00    +0.000 A 
ATOM     17  C   UNL     1       0.937   3.843  20.387  0.00  0.00    +0.000 A 
ATOM     18  C   UNL     1       1.915   4.781  20.039  0.00  0.00    +0.000 A 
ATOM     19  C   UNL     1       2.647   4.646  18.848  0.00  0.00    +0.000 A 
ATOM     20  C   UNL     1       2.390   3.540  18.026  0.00  0.00    +0.000 A 
ATOM     21  C   UNL     1       1.410   2.604  18.374  0.00  0.00    +0.000 A 
ENDBRANCH  15  19
ENDBRANCH  14  15
ENDBRANCH  12  14
ENDBRANCH   1  12
TORSDOF 5
ENDMDL
MODEL 2
REMARK VINA RESULT:      -7.7      0.211      1.124
REMARK  Name = 
REMARK  5 active torsions:
REMARK  status: ('A' for Active; 'I' for Inactive)
REMARK    1  A    between atoms: C_4  and  C_5
REMARK    2  A    between atoms: C_5  and  C_6
REMARK    3  A    between atoms: C_6  and  N_7
REMARK    4  A    between atoms: N_7  and  C_8
REMARK    5  A    between atoms: C_8  and  C_9
REMARK                            x       y       z     vdW  Elec       q    Type
REMARK                         _______ _______ _______ _____ _____    ______ ____
ROOT
ATOM      1  C   UNL     1       6.965   5.232  17.700  0.00  0.00    +0.000 C 
ENDROOT
BRANCH   1   2
ATOM      2  C   UNL     1       6.915   4.834  16.266  0.00  0.00    +0.000 A 
ATOM      3  C   UNL     1       6.032   3.929  15.701  0.00  0.00    +0.000 A 
ATOM      4  C   UNL     1       6.197   3.942  14.297  0.00  0.00    +0.000 A 
ATOM      5  C   UNL     1       5.543   3.279  13.241  0.00  0.00    +0.000 A 
ATOM      6  C   UNL     1       5.969   3.493  11.929  0.00  0.00    +0.000 A 
ATOM      7  C   UNL     1       7.031   4.355  11.667  0.00  0.00    +0.000 A 
ATOM      8  C   UNL     1       7.677   5.051  12.702  0.00  0.00    +0.000 A 
ATOM      9  C   UNL     1       7.234   4.831  14.019  0.00  0.00    +0.000 A 
ATOM     10  N   UNL     1       7.640   5.380  15.228  0.00  0.00    +0.000 N 
ATOM     11  H   UNL     1       8.334   6.107  15.331  0.00  0.00    +0.000 HD
ENDBRANCH   1   2
BRANCH   1  12
ATOM     12  N   UNL     1       6.271   4.356  18.652  0.00  0.00    +0.000 NA
ATOM     13  H   UNL     1       5.798   3.620  18.127  0.00  0.00    +0.000 HD
BRANCH  12  14
ATOM     14  C   UNL     1       5.238   5.192  19.323  0.00  0.00    +0.000 C 
BRANCH  14  15
ATOM     15  C   UNL     1       3.985   5.476  18.484  0.00  0.00    +0.000 C 
BRANCH  15  19
ATOM     16  C   UNL     1       0.662   2.947  19.647  0.00  0.00    +0.000 A 
ATOM     17  C   UNL     1       1.329   2.718  18.444  0.00  0.00    +0.000 A 
ATOM     18  C   UNL     1       2.401   3.534  18.071  0.00  0.00    +0.000 A 
ATOM     19  C   UNL     1       2.825   4.586  18.899  0.00  0.00    +0.000 A 
ATOM     20  C   UNL     1       2.135   4.813  20.098  0.00  0.00    +0.000 A 
ATOM     21  C   UNL     1       1.063   3.995  20.471  0.00  0.00    +0.000 A 
ENDBRANCH  15  19
ENDBRANCH  14  15
ENDBRANCH  12  14
ENDBRANCH   1  12
TORSDOF 5
ENDMDL
MODEL 3
REMARK VINA RESULT:      -7.6      2.667      4.208
REMARK  Name = 
REMARK  5 active torsions:
REMARK  status: ('A' for Active; 'I' for Inactive)
REMARK    1  A    between atoms: C_4  and  C_5
REMARK    2  A    between atoms: C_5  and  C_6
REMARK    3  A    between atoms: C_6  and  N_7
REMARK    4  A    between atoms: N_7  and  C_8
REMARK    5  A    between atoms: C_8  and  C_9
REMARK                            x       y       z     vdW  Elec       q    Type
REMARK                         _______ _______ _______ _____ _____    ______ ____
ROOT
ATOM      1  C   UNL     1       3.703   1.583  18.209  0.00  0.00    +0.000 C 
ENDROOT
BRANCH   1   2
ATOM      2  C   UNL     1       4.572   2.777  18.013  0.00  0.00    +0.000 A 
ATOM      3  C   UNL     1       4.627   3.569  16.880  0.00  0.00    +0.000 A 
ATOM      4  C   UNL     1       5.449   4.689  17.141  0.00  0.00    +0.000 A 
ATOM      5  C   UNL     1       5.808   5.823  16.387  0.00  0.00    +0.000 A 
ATOM      6  C   UNL     1       6.683   6.763  16.935  0.00  0.00    +0.000 A 
ATOM      7  C   UNL     1       7.194   6.581  18.217  0.00  0.00    +0.000 A 
ATOM      8  C   UNL     1       6.825   5.475  19.000  0.00  0.00    +0.000 A 
ATOM      9  C   UNL     1       5.939   4.538  18.438  0.00  0.00    +0.000 A 
ATOM     10  N   UNL     1       5.374   3.382  18.959  0.00  0.00    +0.000 N 
ATOM     11  H   UNL     1       5.496   3.052  19.906  0.00  0.00    +0.000 HD
ENDBRANCH   1   2
BRANCH   1  12
ATOM     12  N   UNL     1       2.266   1.768  17.971  0.00  0.00    +0.000 NA
ATOM     13  H   UNL     1       2.130   2.659  17.492  0.00  0.00    +0.000 HD
BRANCH  12  14
ATOM     14  C   UNL     1       1.622   1.852  19.310  0.00  0.00    +0.000 C 
BRANCH  14  15
ATOM     15  C   UNL     1       0.751   3.096  19.537  0.00  0.00    +0.000 C 
BRANCH  15  19
ATOM     16  C   UNL     1       2.951   6.757  18.796  0.00  0.00    +0.000 A 
ATOM     17  C   UNL     1       2.973   6.171  20.060  0.00  0.00    +0.000 A 
ATOM     18  C   UNL     1       2.264   4.989  20.297  0.00  0.00    +0.000 A 
ATOM     19  C   UNL     1       1.528   4.375  19.271  0.00  0.00    +0.000 A 
ATOM     20  C   UNL     1       1.504   4.984  18.009  0.00  0.00    +0.000 A 
ATOM     21  C   UNL     1       2.215   6.166  17.772  0.00  0.00    +0.000 A 
ENDBRANCH  15  19
ENDBRANCH  14  15
ENDBRANCH  12  14
ENDBRANCH   1  12
TORSDOF 5
ENDMDL
MODEL 4
REMARK VINA RESULT:      -7.5      2.603      4.410
REMARK  Name = 
REMARK  5 active torsions:
REMARK  status: ('A' for Active; 'I' for Inactive)
REMARK    1  A    between atoms: C_4  and  C_5
REMARK    2  A    between atoms: C_5  and  C_6
REMARK    3  A    between atoms: C_6  and  N_7
REMARK    4  A    between atoms: N_7  and  C_8
REMARK    5  A    between atoms: C_8  and  C_9
REMARK                            x       y       z     vdW  Elec       q    Type
REMARK                         _______ _______ _______ _____ _____    ______ ____
ROOT
ATOM      1  C   UNL     1       3.307   1.864  17.742  0.00  0.00    +0.000 C 
ENDROOT
BRANCH   1   2
ATOM      2  C   UNL     1       4.355   2.923  17.755  0.00  0.00    +0.000 A 
ATOM      3  C   UNL     1       4.778   3.665  16.667  0.00  0.00    +0.000 A 
ATOM      4  C   UNL     1       5.665   4.671  17.113  0.00  0.00    +0.000 A 
ATOM      5  C   UNL     1       6.341   5.722  16.464  0.00  0.00    +0.000 A 
ATOM      6  C   UNL     1       7.188   6.551  17.201  0.00  0.00    +0.000 A 
ATOM      7  C   UNL     1       7.361   6.342  18.567  0.00  0.00    +0.000 A 
ATOM      8  C   UNL     1       6.672   5.321  19.242  0.00  0.00    +0.000 A 
ATOM      9  C   UNL     1       5.818   4.496  18.488  0.00  0.00    +0.000 A 
ATOM     10  N   UNL     1       4.994   3.443  18.862  0.00  0.00    +0.000 N 
ATOM     11  H   UNL     1       4.847   3.129  19.811  0.00  0.00    +0.000 HD
ENDBRANCH   1   2
BRANCH   1  12
ATOM     12  N   UNL     1       2.589   1.632  19.002  0.00  0.00    +0.000 NA
ATOM     13  H   UNL     1       2.474   0.626  19.127  0.00  0.00    +0.000 HD
BRANCH  12  14
ATOM     14  C   UNL     1       1.241   2.241  18.840  0.00  0.00    +0.000 C 
BRANCH  14  15
ATOM     15  C   UNL     1       0.893   3.334  19.861  0.00  0.00    +0.000 C 
BRANCH  15  19
ATOM     16  C   UNL     1       2.701   7.121  18.779  0.00  0.00    +0.000 A 
ATOM     17  C   UNL     1       2.303   6.228  17.786  0.00  0.00    +0.000 A 
ATOM     18  C   UNL     1       1.718   5.007  18.137  0.00  0.00    +0.000 A 
ATOM     19  C   UNL     1       1.520   4.666  19.485  0.00  0.00    +0.000 A 
ATOM     20  C   UNL     1       1.940   5.569  20.471  0.00  0.00    +0.000 A 
ATOM     21  C   UNL     1       2.523   6.791  20.119  0.00  0.00    +0.000 A 
ENDBRANCH  15  19
ENDBRANCH  14  15
ENDBRANCH  12  14
ENDBRANCH   1  12
TORSDOF 5
ENDMDL
MODEL 5
REMARK VINA RESULT:      -7.5      2.171      3.837
REMARK  Name = 
REMARK  5 active torsions:
REMARK  status: ('A' for Active; 'I' for Inactive)
REMARK    1  A    between atoms: C_4  and  C_5
REMARK    2  A    between atoms: C_5  and  C_6
REMARK    3  A    between atoms: C_6  and  N_7
REMARK    4  A    between atoms: N_7  and  C_8
REMARK    5  A    between atoms: C_8  and  C_9
REMARK                            x       y       z     vdW  Elec       q    Type
REMARK                         _______ _______ _______ _____ _____    ______ ____
ROOT
ATOM      1  C   UNL     1       2.511   6.710  19.671  0.00  0.00    +0.000 C 
ENDROOT
BRANCH   1   2
ATOM      2  C   UNL     1       3.630   6.316  18.771  0.00  0.00    +0.000 A 
ATOM      3  C   UNL     1       4.754   5.595  19.135  0.00  0.00    +0.000 A 
ATOM      4  C   UNL     1       5.499   5.288  17.974  0.00  0.00    +0.000 A 
ATOM      5  C   UNL     1       6.674   4.546  17.747  0.00  0.00    +0.000 A 
ATOM      6  C   UNL     1       7.183   4.447  16.450  0.00  0.00    +0.000 A 
ATOM      7  C   UNL     1       6.533   5.075  15.392  0.00  0.00    +0.000 A 
ATOM      8  C   UNL     1       5.342   5.793  15.589  0.00  0.00    +0.000 A 
ATOM      9  C   UNL     1       4.838   5.881  16.899  0.00  0.00    +0.000 A 
ATOM     10  N   UNL     1       3.691   6.480  17.403  0.00  0.00    +0.000 N 
ATOM     11  H   UNL     1       2.980   6.933  16.845  0.00  0.00    +0.000 HD
ENDBRANCH   1   2
BRANCH   1  12
ATOM     12  N   UNL     1       2.281   5.862  20.847  0.00  0.00    +0.000 NA
ATOM     13  H   UNL     1       3.011   5.151  20.880  0.00  0.00    +0.000 HD
BRANCH  12  14
ATOM     14  C   UNL     1       0.974   5.182  20.631  0.00  0.00    +0.000 C 
BRANCH  14  15
ATOM     15  C   UNL     1       1.028   3.648  20.646  0.00  0.00    +0.000 C 
BRANCH  15  19
ATOM     16  C   UNL     1       3.739   2.110  17.634  0.00  0.00    +0.000 A 
ATOM     17  C   UNL     1       2.598   2.813  17.254  0.00  0.00    +0.000 A 
ATOM     18  C   UNL     1       1.725   3.310  18.227  0.00  0.00    +0.000 A 
ATOM     19  C   UNL     1       1.985   3.115  19.593  0.00  0.00    +0.000 A 
ATOM     20  C   UNL     1       3.130   2.392  19.959  0.00  0.00    +0.000 A 
ATOM     21  C   UNL     1       4.003   1.897  18.985  0.00  0.00    +0.000 A 
ENDBRANCH  15  19
ENDBRANCH  14  15
ENDBRANCH  12  14
ENDBRANCH   1  12
TORSDOF 5
ENDMDL
MODEL 6
REMARK VINA RESULT:      -7.4      2.241      3.905
REMARK  Name = 
REMARK  5 active torsions:
REMARK  status: ('A' for Active; 'I' for Inactive)
REMARK    1  A    between atoms: C_4  and  C_5
REMARK    2  A    between atoms: C_5  and  C_6
REMARK    3  A    between atoms: C_6  and  N_7
REMARK    4  A    between atoms: N_7  and  C_8
REMARK    5  A    between atoms: C_8  and  C_9
REMARK                            x       y       z     vdW  Elec       q    Type
REMARK                         _______ _______ _______ _____ _____    ______ ____
ROOT
ATOM      1  C   UNL     1       2.408   6.828  19.565  0.00  0.00    +0.000 C 
ENDROOT
BRANCH   1   2
ATOM      2  C   UNL     1       3.506   6.193  18.783  0.00  0.00    +0.000 A 
ATOM      3  C   UNL     1       3.546   6.042  17.408  0.00  0.00    +0.000 A 
ATOM      4  C   UNL     1       4.815   5.541  17.038  0.00  0.00    +0.000 A 
ATOM      5  C   UNL     1       5.417   5.254  15.798  0.00  0.00    +0.000 A 
ATOM      6  C   UNL     1       6.711   4.731  15.769  0.00  0.00    +0.000 A 
ATOM      7  C   UNL     1       7.401   4.497  16.955  0.00  0.00    +0.000 A 
ATOM      8  C   UNL     1       6.832   4.805  18.203  0.00  0.00    +0.000 A 
ATOM      9  C   UNL     1       5.530   5.336  18.217  0.00  0.00    +0.000 A 
ATOM     10  N   UNL     1       4.725   5.762  19.265  0.00  0.00    +0.000 N 
ATOM     11  H   UNL     1       5.004   5.795  20.236  0.00  0.00    +0.000 HD
ENDBRANCH   1   2
BRANCH   1  12
ATOM     12  N   UNL     1       2.137   6.267  20.895  0.00  0.00    +0.000 NA
ATOM     13  H   UNL     1       3.006   5.883  21.266  0.00  0.00    +0.000 HD
BRANCH  12  14
ATOM     14  C   UNL     1       1.177   5.148  20.695  0.00  0.00    +0.000 C 
BRANCH  14  15
ATOM     15  C   UNL     1       1.687   3.767  21.130  0.00  0.00    +0.000 C 
BRANCH  15  19
ATOM     16  C   UNL     1       3.734   1.750  17.885  0.00  0.00    +0.000 A 
ATOM     17  C   UNL     1       4.315   1.806  19.150  0.00  0.00    +0.000 A 
ATOM     18  C   UNL     1       3.653   2.456  20.197  0.00  0.00    +0.000 A 
ATOM     19  C   UNL     1       2.398   3.053  19.992  0.00  0.00    +0.000 A 
ATOM     20  C   UNL     1       1.834   3.001  18.709  0.00  0.00    +0.000 A 
ATOM     21  C   UNL     1       2.496   2.349  17.664  0.00  0.00    +0.000 A 
ENDBRANCH  15  19
ENDBRANCH  14  15
ENDBRANCH  12  14
ENDBRANCH   1  12
TORSDOF 5
ENDMDL
MODEL 7
REMARK VINA RESULT:      -7.3      2.274      3.993
REMARK  Name = 
REMARK  5 active torsions:
REMARK  status: ('A' for Active; 'I' for Inactive)
REMARK    1  A    between atoms: C_4  and  C_5
REMARK    2  A    between atoms: C_5  and  C_6
REMARK    3  A    between atoms: C_6  and  N_7
REMARK    4  A    between atoms: N_7  and  C_8
REMARK    5  A    between atoms: C_8  and  C_9
REMARK                            x       y       z     vdW  Elec       q    Type
REMARK                         _______ _______ _______ _____ _____    ______ ____
ROOT
ATOM      1  C   UNL     1       4.437   2.285  20.286  0.00  0.00    +0.000 C 
ENDROOT
BRANCH   1   2
ATOM      2  C   UNL     1       4.706   3.232  19.169  0.00  0.00    +0.000 A 
ATOM      3  C   UNL     1       5.206   4.517  19.292  0.00  0.00    +0.000 A 
ATOM      4  C   UNL     1       5.469   5.033  18.002  0.00  0.00    +0.000 A 
ATOM      5  C   UNL     1       6.023   6.242  17.539  0.00  0.00    +0.000 A 
ATOM      6  C   UNL     1       6.129   6.465  16.164  0.00  0.00    +0.000 A 
ATOM      7  C   UNL     1       5.693   5.500  15.261  0.00  0.00    +0.000 A 
ATOM      8  C   UNL     1       5.166   4.274  15.701  0.00  0.00    +0.000 A 
ATOM      9  C   UNL     1       5.070   4.060  17.087  0.00  0.00    +0.000 A 
ATOM     10  N   UNL     1       4.632   2.963  17.818  0.00  0.00    +0.000 N 
ATOM     11  H   UNL     1       4.342   2.080  17.423  0.00  0.00    +0.000 HD
ENDBRANCH   1   2
BRANCH   1  12
ATOM     12  N   UNL     1       3.050   1.830  20.445  0.00  0.00    +0.000 NA
ATOM     13  H   UNL     1       2.572   1.935  19.550  0.00  0.00    +0.000 HD
BRANCH  12  14
ATOM     14  C   UNL     1       2.412   2.749  21.427  0.00  0.00    +0.000 C 
BRANCH  14  15
ATOM     15  C   UNL     1       1.175   3.497  20.912  0.00  0.00    +0.000 C 
BRANCH  15  19
ATOM     16  C   UNL     1       2.299   6.767  18.297  0.00  0.00    +0.000 A 
ATOM     17  C   UNL     1       1.881   5.552  17.758  0.00  0.00    +0.000 A 
ATOM     18  C   UNL     1       1.517   4.498  18.602  0.00  0.00    +0.000 A 
ATOM     19  C   UNL     1       1.562   4.648  19.998  0.00  0.00    +0.000 A 
ATOM     20  C   UNL     1       1.999   5.872  20.525  0.00  0.00    +0.000 A 
ATOM     21  C   UNL     1       2.361   6.925  19.679  0.00  0.00    +0.000 A 
ENDBRANCH  15  19
ENDBRANCH  14  15
ENDBRANCH  12  14
ENDBRANCH   1  12
TORSDOF 5
ENDMDL
MODEL 8
REMARK VINA RESULT:      -7.3      1.040      6.770
REMARK  Name = 
REMARK  5 active torsions:
REMARK  status: ('A' for Active; 'I' for Inactive)
REMARK    1  A    between atoms: C_4  and  C_5
REMARK    2  A    between atoms: C_5  and  C_6
REMARK    3  A    between atoms: C_6  and  N_7
REMARK    4  A    between atoms: N_7  and  C_8
REMARK    5  A    between atoms: C_8  and  C_9
REMARK                            x       y       z     vdW  Elec       q    Type
REMARK                         _______ _______ _______ _____ _____    ______ ____
ROOT
ATOM      1  C   UNL     1       6.802   5.444  18.927  0.00  0.00    +0.000 C 
ENDROOT
BRANCH   1   2
ATOM      2  C   UNL     1       5.487   4.808  19.215  0.00  0.00    +0.000 A 
ATOM      3  C   UNL     1       4.304   5.471  19.493  0.00  0.00    +0.000 A 
ATOM      4  C   UNL     1       3.252   4.529  19.551  0.00  0.00    +0.000 A 
ATOM      5  C   UNL     1       1.862   4.642  19.743  0.00  0.00    +0.000 A 
ATOM      6  C   UNL     1       1.077   3.488  19.774  0.00  0.00    +0.000 A 
ATOM      7  C   UNL     1       1.665   2.236  19.616  0.00  0.00    +0.000 A 
ATOM      8  C   UNL     1       3.045   2.100  19.393  0.00  0.00    +0.000 A 
ATOM      9  C   UNL     1       3.823   3.272  19.358  0.00  0.00    +0.000 A 
ATOM     10  N   UNL     1       5.179   3.466  19.131  0.00  0.00    +0.000 N 
ATOM     11  H   UNL     1       5.838   2.738  18.894  0.00  0.00    +0.000 HD
ENDBRANCH   1   2
BRANCH   1  12
ATOM     12  N   UNL     1       7.425   5.114  17.639  0.00  0.00    +0.000 NA
ATOM     13  H   UNL     1       8.351   5.541  17.609  0.00  0.00    +0.000 HD
BRANCH  12  14
ATOM     14  C   UNL     1       6.584   5.748  16.586  0.00  0.00    +0.000 C 
BRANCH  14  15
ATOM     15  C   UNL     1       5.672   4.785  15.815  0.00  0.00    +0.000 C 
BRANCH  15  19
ATOM     16  C   UNL     1       7.137   4.073  11.798  0.00  0.00    +0.000 A 
ATOM     17  C   UNL     1       6.001   3.408  12.256  0.00  0.00    +0.000 A 
ATOM     18  C   UNL     1       5.529   3.640  13.552  0.00  0.00    +0.000 A 
ATOM     19  C   UNL     1       6.183   4.544  14.404  0.00  0.00    +0.000 A 
ATOM     20  C   UNL     1       7.333   5.194  13.933  0.00  0.00    +0.000 A 
ATOM     21  C   UNL     1       7.804   4.963  12.636  0.00  0.00    +0.000 A 
ENDBRANCH  15  19
ENDBRANCH  14  15
ENDBRANCH  12  14
ENDBRANCH   1  12
TORSDOF 5
ENDMDL
MODEL 9
REMARK VINA RESULT:      -7.3      2.765      4.456
REMARK  Name = 
REMARK  5 active torsions:
REMARK  status: ('A' for Active; 'I' for Inactive)
REMARK    1  A    between atoms: C_4  and  C_5
REMARK    2  A    between atoms: C_5  and  C_6
REMARK    3  A    between atoms: C_6  and  N_7
REMARK    4  A    between atoms: N_7  and  C_8
REMARK    5  A    between atoms: C_8  and  C_9
REMARK                            x       y       z     vdW  Elec       q    Type
REMARK                         _______ _______ _______ _____ _____    ______ ____
ROOT
ATOM      1  C   UNL     1       3.174   2.173  18.733  0.00  0.00    +0.000 C 
ENDROOT
BRANCH   1   2
ATOM      2  C   UNL     1       4.247   3.153  18.405  0.00  0.00    +0.000 A 
ATOM      3  C   UNL     1       4.394   3.830  17.207  0.00  0.00    +0.000 A 
ATOM      4  C   UNL     1       5.431   4.781  17.341  0.00  0.00    +0.000 A 
ATOM      5  C   UNL     1       5.963   5.760  16.479  0.00  0.00    +0.000 A 
ATOM      6  C   UNL     1       7.032   6.546  16.912  0.00  0.00    +0.000 A 
ATOM      7  C   UNL     1       7.567   6.365  18.185  0.00  0.00    +0.000 A 
ATOM      8  C   UNL     1       7.032   5.417  19.073  0.00  0.00    +0.000 A 
ATOM      9  C   UNL     1       5.952   4.635  18.626  0.00  0.00    +0.000 A 
ATOM     10  N   UNL     1       5.201   3.656  19.264  0.00  0.00    +0.000 N 
ATOM     11  H   UNL     1       5.307   3.382  20.231  0.00  0.00    +0.000 HD
ENDBRANCH   1   2
BRANCH   1  12
ATOM     12  N   UNL     1       2.422   2.411  19.972  0.00  0.00    +0.000 NA
ATOM     13  H   UNL     1       1.736   1.664  20.082  0.00  0.00    +0.000 HD
BRANCH  12  14
ATOM     14  C   UNL     1       1.690   3.694  19.784  0.00  0.00    +0.000 C 
BRANCH  14  15
ATOM     15  C   UNL     1       2.086   4.817  20.752  0.00  0.00    +0.000 C 
BRANCH  15  19
ATOM     16  C   UNL     1       1.911   8.696  18.826  0.00  0.00    +0.000 A 
ATOM     17  C   UNL     1       1.422   8.536  20.121  0.00  0.00    +0.000 A 
ATOM     18  C   UNL     1       1.480   7.284  20.742  0.00  0.00    +0.000 A 
ATOM     19  C   UNL     1       2.034   6.178  20.077  0.00  0.00    +0.000 A 
ATOM     20  C   UNL     1       2.508   6.352  18.769  0.00  0.00    +0.000 A 
ATOM     21  C   UNL     1       2.451   7.605  18.150  0.00  0.00    +0.000 A 
ENDBRANCH  15  19
ENDBRANCH  14  15
ENDBRANCH  12  14
ENDBRANCH   1  12
TORSDOF 5
ENDMDL
