MODEL 1
REMARK VINA RESULT:      -8.1      0.000      0.000
REMARK  Name = 
REMARK  7 active torsions:
REMARK  status: ('A' for Active; 'I' for Inactive)
REMARK    1  A    between atoms: C_1  and  C_2
REMARK    2  A    between atoms: C_5  and  S_6
REMARK    3  A    between atoms: S_6  and  N_9
REMARK    4  A    between atoms: N_9  and  C_10
REMARK    5  A    between atoms: C_10  and  C_11
REMARK    6  A    between atoms: C_15  and  C_16
REMARK    7  A    between atoms: C_18  and  C_19
REMARK                            x       y       z     vdW  Elec       q    Type
REMARK                         _______ _______ _______ _____ _____    ______ ____
ROOT
ATOM      1  N   UNL     1       2.526   1.693  18.680  0.00  0.00    +0.000 NA
ATOM      2  H   UNL     1       2.482   1.811  17.666  0.00  0.00    +0.000 HD
ENDROOT
BRANCH   1   3
ATOM      3  S   UNL     1       1.333   2.523  19.519  0.00  0.00    +0.000 S 
ATOM      4  O   UNL     1       1.570   2.333  20.932  0.00  0.00    +0.000 OA
ATOM      5  O   UNL     1       0.065   2.199  18.904  0.00  0.00    +0.000 OA
BRANCH   3  10
ATOM      6  C   UNL     1       2.689   8.299  18.220  0.00  0.00    +0.000 C 
ATOM      7  C   UNL     1       2.316   6.880  18.543  0.00  0.00    +0.000 A 
ATOM      8  C   UNL     1       2.287   6.436  19.872  0.00  0.00    +0.000 A 
ATOM      9  C   UNL     1       1.973   5.107  20.165  0.00  0.00    +0.000 A 
ATOM     10  C   UNL     1       1.675   4.223  19.124  0.00  0.00    +0.000 A 
ATOM     11  C   UNL     1       1.698   4.652  17.795  0.00  0.00    +0.000 A 
ATOM     12  C   UNL     1       2.019   5.980  17.510  0.00  0.00    +0.000 A 
ENDBRANCH   3  10
ENDBRANCH   1   3
BRANCH   1  13
ATOM     13  C   UNL     1       3.885   1.776  19.234  0.00  0.00    +0.000 C 
BRANCH  13  14
ATOM     14  C   UNL     1       4.602   2.958  18.655  0.00  0.00    +0.000 A 
ATOM     15  N   UNL     1       5.257   3.872  19.440  0.00  0.00    +0.000 NA
ATOM     16  C   UNL     1       5.801   4.697  18.568  0.00  0.00    +0.000 A 
ATOM     17  N   UNL     1       6.595   5.788  18.788  0.00  0.00    +0.000 NA
ATOM     18  C   UNL     1       7.021   6.419  17.733  0.00  0.00    +0.000 A 
ATOM     19  C   UNL     1       7.904   7.627  17.915  0.00  0.00    +0.000 C 
ATOM     20  C   UNL     1       6.712   6.039  16.314  0.00  0.00    +0.000 A 
ATOM     21  C   UNL     1       5.925   4.964  16.141  0.00  0.00    +0.000 A 
ATOM     22  C   UNL     1       5.524   4.451  14.794  0.00  0.00    +0.000 C 
ATOM     23  N   UNL     1       5.462   4.282  17.272  0.00  0.00    +0.000 N 
ATOM     24  N   UNL     1       4.691   3.171  17.338  0.00  0.00    +0.000 NA
ENDBRANCH  13  14
ENDBRANCH   1  13
TORSDOF 4
ENDMDL
MODEL 2
REMARK VINA RESULT:      -8.0      0.179      1.026
REMARK  Name = 
REMARK  7 active torsions:
REMARK  status: ('A' for Active; 'I' for Inactive)
REMARK    1  A    between atoms: C_1  and  C_2
REMARK    2  A    between atoms: C_5  and  S_6
REMARK    3  A    between atoms: S_6  and  N_9
REMARK    4  A    between atoms: N_9  and  C_10
REMARK    5  A    between atoms: C_10  and  C_11
REMARK    6  A    between atoms: C_15  and  C_16
REMARK    7  A    between atoms: C_18  and  C_19
REMARK                            x       y       z     vdW  Elec       q    Type
REMARK                         _______ _______ _______ _____ _____    ______ ____
ROOT
ATOM      1  N   UNL     1       2.399   1.774  18.635  0.00  0.00    +0.000 NA
ATOM      2  H   UNL     1       2.275   1.949  17.636  0.00  0.00    +0.000 HD
ENDROOT
BRANCH   1   3
ATOM      3  S   UNL     1       1.380   2.671  19.620  0.00  0.00    +0.000 S 
ATOM      4  O   UNL     1       1.769   2.438  20.993  0.00  0.00    +0.000 OA
ATOM      5  O   UNL     1       0.026   2.451  19.159  0.00  0.00    +0.000 OA
BRANCH   3  10
ATOM      6  C   UNL     1       2.615   8.432  18.148  0.00  0.00    +0.000 C 
ATOM      7  C   UNL     1       2.347   7.000  18.511  0.00  0.00    +0.000 A 
ATOM      8  C   UNL     1       2.083   6.050  17.515  0.00  0.00    +0.000 A 
ATOM      9  C   UNL     1       1.801   4.726  17.858  0.00  0.00    +0.000 A 
ATOM     10  C   UNL     1       1.796   4.349  19.205  0.00  0.00    +0.000 A 
ATOM     11  C   UNL     1       2.060   5.284  20.208  0.00  0.00    +0.000 A 
ATOM     12  C   UNL     1       2.334   6.607  19.857  0.00  0.00    +0.000 A 
ENDBRANCH   3  10
ENDBRANCH   1   3
BRANCH   1  13
ATOM     13  C   UNL     1       3.805   1.694  19.059  0.00  0.00    +0.000 C 
BRANCH  13  14
ATOM     14  C   UNL     1       4.556   2.893  18.563  0.00  0.00    +0.000 A 
ATOM     15  N   UNL     1       5.244   3.725  19.409  0.00  0.00    +0.000 NA
ATOM     16  C   UNL     1       5.810   4.595  18.597  0.00  0.00    +0.000 A 
ATOM     17  N   UNL     1       6.640   5.641  18.891  0.00  0.00    +0.000 NA
ATOM     18  C   UNL     1       7.081   6.335  17.883  0.00  0.00    +0.000 A 
ATOM     19  C   UNL     1       8.004   7.497  18.149  0.00  0.00    +0.000 C 
ATOM     20  C   UNL     1       6.754   6.071  16.443  0.00  0.00    +0.000 A 
ATOM     21  C   UNL     1       5.931   5.037  16.196  0.00  0.00    +0.000 A 
ATOM     22  C   UNL     1       5.509   4.638  14.817  0.00  0.00    +0.000 C 
ATOM     23  N   UNL     1       5.452   4.288  17.277  0.00  0.00    +0.000 N 
ATOM     24  N   UNL     1       4.646   3.200  17.266  0.00  0.00    +0.000 NA
ENDBRANCH  13  14
ENDBRANCH   1  13
TORSDOF 4
ENDMDL
MODEL 3
REMARK VINA RESULT:      -7.8      0.891      2.025
REMARK  Name = 
REMARK  7 active torsions:
REMARK  status: ('A' for Active; 'I' for Inactive)
REMARK    1  A    between atoms: C_1  and  C_2
REMARK    2  A    between atoms: C_5  and  S_6
REMARK    3  A    between atoms: S_6  and  N_9
REMARK    4  A    between atoms: N_9  and  C_10
REMARK    5  A    between atoms: C_10  and  C_11
REMARK    6  A    between atoms: C_15  and  C_16
REMARK    7  A    between atoms: C_18  and  C_19
REMARK                            x       y       z     vdW  Elec       q    Type
REMARK                         _______ _______ _______ _____ _____    ______ ____
ROOT
ATOM      1  N   UNL     1       2.671   2.031  19.641  0.00  0.00    +0.000 NA
ATOM      2  H   UNL     1       2.757   1.703  18.678  0.00  0.00    +0.000 HD
ENDROOT
BRANCH   1   3
ATOM      3  S   UNL     1       1.255   2.876  19.953  0.00  0.00    +0.000 S 
ATOM      4  O   UNL     1       1.074   2.925  21.387  0.00  0.00    +0.000 OA
ATOM      5  O   UNL     1       0.235   2.355  19.069  0.00  0.00    +0.000 OA
BRANCH   3  10
ATOM      6  C   UNL     1       2.736   8.460  18.082  0.00  0.00    +0.000 C 
ATOM      7  C   UNL     1       2.333   7.089  18.543  0.00  0.00    +0.000 A 
ATOM      8  C   UNL     1       2.226   6.799  19.910  0.00  0.00    +0.000 A 
ATOM      9  C   UNL     1       1.884   5.514  20.335  0.00  0.00    +0.000 A 
ATOM     10  C   UNL     1       1.634   4.518  19.387  0.00  0.00    +0.000 A 
ATOM     11  C   UNL     1       1.734   4.792  18.021  0.00  0.00    +0.000 A 
ATOM     12  C   UNL     1       2.083   6.078  17.604  0.00  0.00    +0.000 A 
ENDBRANCH   3  10
ENDBRANCH   1   3
BRANCH   1  13
ATOM     13  C   UNL     1       3.906   2.611  20.189  0.00  0.00    +0.000 C 
BRANCH  13  14
ATOM     14  C   UNL     1       4.718   3.219  19.085  0.00  0.00    +0.000 A 
ATOM     15  N   UNL     1       4.527   2.885  17.769  0.00  0.00    +0.000 NA
ATOM     16  C   UNL     1       5.368   3.668  17.124  0.00  0.00    +0.000 A 
ATOM     17  N   UNL     1       5.585   3.785  15.779  0.00  0.00    +0.000 NA
ATOM     18  C   UNL     1       6.468   4.664  15.407  0.00  0.00    +0.000 A 
ATOM     19  C   UNL     1       6.745   4.839  13.935  0.00  0.00    +0.000 C 
ATOM     20  C   UNL     1       7.249   5.551  16.332  0.00  0.00    +0.000 A 
ATOM     21  C   UNL     1       7.010   5.402  17.646  0.00  0.00    +0.000 A 
ATOM     22  C   UNL     1       7.701   6.209  18.700  0.00  0.00    +0.000 C 
ATOM     23  N   UNL     1       6.063   4.455  18.053  0.00  0.00    +0.000 N 
ATOM     24  N   UNL     1       5.643   4.157  19.305  0.00  0.00    +0.000 NA
ENDBRANCH  13  14
ENDBRANCH   1  13
TORSDOF 4
ENDMDL
MODEL 4
REMARK VINA RESULT:      -7.2      5.114      6.500
REMARK  Name = 
REMARK  7 active torsions:
REMARK  status: ('A' for Active; 'I' for Inactive)
REMARK    1  A    between atoms: C_1  and  C_2
REMARK    2  A    between atoms: C_5  and  S_6
REMARK    3  A    between atoms: S_6  and  N_9
REMARK    4  A    between atoms: N_9  and  C_10
REMARK    5  A    between atoms: C_10  and  C_11
REMARK    6  A    between atoms: C_15  and  C_16
REMARK    7  A    between atoms: C_18  and  C_19
REMARK                            x       y       z     vdW  Elec       q    Type
REMARK                         _______ _______ _______ _____ _____    ______ ____
ROOT
ATOM      1  N   UNL     1       1.127   9.144  17.871  0.00  0.00    +0.000 NA
ATOM      2  H   UNL     1       0.782   9.228  16.913  0.00  0.00    +0.000 HD
ENDROOT
BRANCH   1   3
ATOM      3  S   UNL     1       0.641  10.388  18.887  0.00  0.00    +0.000 S 
ATOM      4  O   UNL     1       1.385  11.574  18.525  0.00  0.00    +0.000 OA
ATOM      5  O   UNL     1       0.635   9.869  20.237  0.00  0.00    +0.000 OA
BRANCH   3  10
ATOM      6  C   UNL     1      -5.114  11.427  17.247  0.00  0.00    +0.000 C 
ATOM      7  C   UNL     1      -3.703  11.142  17.676  0.00  0.00    +0.000 A 
ATOM      8  C   UNL     1      -3.132  11.832  18.754  0.00  0.00    +0.000 A 
ATOM      9  C   UNL     1      -1.809  11.588  19.128  0.00  0.00    +0.000 A 
ATOM     10  C   UNL     1      -1.058  10.641  18.427  0.00  0.00    +0.000 A 
ATOM     11  C   UNL     1      -1.613   9.944  17.352  0.00  0.00    +0.000 A 
ATOM     12  C   UNL     1      -2.935  10.198  16.980  0.00  0.00    +0.000 A 
ENDBRANCH   3  10
ENDBRANCH   1   3
BRANCH   1  13
ATOM     13  C   UNL     1       2.538   8.743  17.966  0.00  0.00    +0.000 C 
BRANCH  13  14
ATOM     14  C   UNL     1       2.638   7.356  18.527  0.00  0.00    +0.000 A 
ATOM     15  N   UNL     1       2.170   7.038  19.776  0.00  0.00    +0.000 NA
ATOM     16  C   UNL     1       2.378   5.739  19.863  0.00  0.00    +0.000 A 
ATOM     17  N   UNL     1       2.077   4.881  20.885  0.00  0.00    +0.000 NA
ATOM     18  C   UNL     1       2.373   3.628  20.698  0.00  0.00    +0.000 A 
ATOM     19  C   UNL     1       2.059   2.637  21.789  0.00  0.00    +0.000 C 
ATOM     20  C   UNL     1       3.006   3.065  19.460  0.00  0.00    +0.000 A 
ATOM     21  C   UNL     1       3.290   3.941  18.481  0.00  0.00    +0.000 A 
ATOM     22  C   UNL     1       3.919   3.543  17.184  0.00  0.00    +0.000 C 
ATOM     23  N   UNL     1       2.976   5.291  18.677  0.00  0.00    +0.000 N 
ATOM     24  N   UNL     1       3.143   6.334  17.830  0.00  0.00    +0.000 NA
ENDBRANCH  13  14
ENDBRANCH   1  13
TORSDOF 4
ENDMDL
MODEL 5
REMARK VINA RESULT:      -7.0      3.587      6.570
REMARK  Name = 
REMARK  7 active torsions:
REMARK  status: ('A' for Active; 'I' for Inactive)
REMARK    1  A    between atoms: C_1  and  C_2
REMARK    2  A    between atoms: C_5  and  S_6
REMARK    3  A    between atoms: S_6  and  N_9
REMARK    4  A    between atoms: N_9  and  C_10
REMARK    5  A    between atoms: C_10  and  C_11
REMARK    6  A    between atoms: C_15  and  C_16
REMARK    7  A    between atoms: C_18  and  C_19
REMARK                            x       y       z     vdW  Elec       q    Type
REMARK                         _______ _______ _______ _____ _____    ______ ____
ROOT
ATOM      1  N   UNL     1       4.455   5.945  18.639  0.00  0.00    +0.000 NA
ATOM      2  H   UNL     1       5.250   6.584  18.693  0.00  0.00    +0.000 HD
ENDROOT
BRANCH   1   3
ATOM      3  S   UNL     1       4.875   4.352  18.320  0.00  0.00    +0.000 S 
ATOM      4  O   UNL     1       3.655   3.593  18.165  0.00  0.00    +0.000 OA
ATOM      5  O   UNL     1       5.898   3.975  19.270  0.00  0.00    +0.000 OA
BRANCH   3  10
ATOM      6  C   UNL     1       7.460   4.865  12.848  0.00  0.00    +0.000 C 
ATOM      7  C   UNL     1       6.834   4.703  14.204  0.00  0.00    +0.000 A 
ATOM      8  C   UNL     1       5.522   4.228  14.331  0.00  0.00    +0.000 A 
ATOM      9  C   UNL     1       4.933   4.111  15.592  0.00  0.00    +0.000 A 
ATOM     10  C   UNL     1       5.666   4.458  16.731  0.00  0.00    +0.000 A 
ATOM     11  C   UNL     1       6.975   4.930  16.620  0.00  0.00    +0.000 A 
ATOM     12  C   UNL     1       7.555   5.051  15.355  0.00  0.00    +0.000 A 
ENDBRANCH   3  10
ENDBRANCH   1   3
BRANCH   1  13
ATOM     13  C   UNL     1       3.309   6.476  17.886  0.00  0.00    +0.000 C 
BRANCH  13  14
ATOM     14  C   UNL     1       2.485   7.364  18.770  0.00  0.00    +0.000 A 
ATOM     15  N   UNL     1       2.157   7.015  20.055  0.00  0.00    +0.000 NA
ATOM     16  C   UNL     1       1.502   8.066  20.505  0.00  0.00    +0.000 A 
ATOM     17  N   UNL     1       0.963   8.285  21.743  0.00  0.00    +0.000 NA
ATOM     18  C   UNL     1       0.385   9.435  21.929  0.00  0.00    +0.000 A 
ATOM     19  C   UNL     1      -0.223   9.733  23.276  0.00  0.00    +0.000 C 
ATOM     20  C   UNL     1       0.272  10.523  20.902  0.00  0.00    +0.000 A 
ATOM     21  C   UNL     1       0.810  10.267  19.698  0.00  0.00    +0.000 A 
ATOM     22  C   UNL     1       0.786  11.245  18.566  0.00  0.00    +0.000 C 
ATOM     23  N   UNL     1       1.432   9.031  19.490  0.00  0.00    +0.000 N 
ATOM     24  N   UNL     1       2.060   8.571  18.382  0.00  0.00    +0.000 NA
ENDBRANCH  13  14
ENDBRANCH   1  13
TORSDOF 4
ENDMDL
MODEL 6
REMARK VINA RESULT:      -7.0      3.440      5.961
REMARK  Name = 
REMARK  7 active torsions:
REMARK  status: ('A' for Active; 'I' for Inactive)
REMARK    1  A    between atoms: C_1  and  C_2
REMARK    2  A    between atoms: C_5  and  S_6
REMARK    3  A    between atoms: S_6  and  N_9
REMARK    4  A    between atoms: N_9  and  C_10
REMARK    5  A    between atoms: C_10  and  C_11
REMARK    6  A    between atoms: C_15  and  C_16
REMARK    7  A    between atoms: C_18  and  C_19
REMARK                            x       y       z     vdW  Elec       q    Type
REMARK                         _______ _______ _______ _____ _____    ______ ____
ROOT
ATOM      1  N   UNL     1       3.411   4.726  18.264  0.00  0.00    +0.000 NA
ATOM      2  H   UNL     1       2.699   4.389  17.615  0.00  0.00    +0.000 HD
ENDROOT
BRANCH   1   3
ATOM      3  S   UNL     1       4.926   4.041  18.035  0.00  0.00    +0.000 S 
ATOM      4  O   UNL     1       4.938   3.414  16.733  0.00  0.00    +0.000 OA
ATOM      5  O   UNL     1       5.260   3.313  19.240  0.00  0.00    +0.000 OA
BRANCH   3  10
ATOM      6  C   UNL     1       8.463   8.977  17.943  0.00  0.00    +0.000 C 
ATOM      7  C   UNL     1       7.609   7.742  17.937  0.00  0.00    +0.000 A 
ATOM      8  C   UNL     1       6.430   7.694  17.180  0.00  0.00    +0.000 A 
ATOM      9  C   UNL     1       5.621   6.557  17.203  0.00  0.00    +0.000 A 
ATOM     10  C   UNL     1       6.001   5.457  17.978  0.00  0.00    +0.000 A 
ATOM     11  C   UNL     1       7.173   5.489  18.736  0.00  0.00    +0.000 A 
ATOM     12  C   UNL     1       7.973   6.632  18.712  0.00  0.00    +0.000 A 
ENDBRANCH   3  10
ENDBRANCH   1   3
BRANCH   1  13
ATOM     13  C   UNL     1       2.951   4.829  19.657  0.00  0.00    +0.000 C 
BRANCH  13  14
ATOM     14  C   UNL     1       2.289   6.156  19.879  0.00  0.00    +0.000 A 
ATOM     15  N   UNL     1       1.626   6.457  21.041  0.00  0.00    +0.000 NA
ATOM     16  C   UNL     1       1.256   7.710  20.873  0.00  0.00    +0.000 A 
ATOM     17  N   UNL     1       0.582   8.537  21.729  0.00  0.00    +0.000 NA
ATOM     18  C   UNL     1       0.365   9.751  21.314  0.00  0.00    +0.000 A 
ATOM     19  C   UNL     1      -0.369  10.707  22.219  0.00  0.00    +0.000 C 
ATOM     20  C   UNL     1       0.798  10.302  19.988  0.00  0.00    +0.000 A 
ATOM     21  C   UNL     1       1.452   9.456  19.173  0.00  0.00    +0.000 A 
ATOM     22  C   UNL     1       1.953   9.848  17.819  0.00  0.00    +0.000 C 
ATOM     23  N   UNL     1       1.687   8.149  19.613  0.00  0.00    +0.000 N 
ATOM     24  N   UNL     1       2.343   7.146  18.983  0.00  0.00    +0.000 NA
ENDBRANCH  13  14
ENDBRANCH   1  13
TORSDOF 4
ENDMDL
MODEL 7
REMARK VINA RESULT:      -7.0      3.783      6.690
REMARK  Name = 
REMARK  7 active torsions:
REMARK  status: ('A' for Active; 'I' for Inactive)
REMARK    1  A    between atoms: C_1  and  C_2
REMARK    2  A    between atoms: C_5  and  S_6
REMARK    3  A    between atoms: S_6  and  N_9
REMARK    4  A    between atoms: N_9  and  C_10
REMARK    5  A    between atoms: C_10  and  C_11
REMARK    6  A    between atoms: C_15  and  C_16
REMARK    7  A    between atoms: C_18  and  C_19
REMARK                            x       y       z     vdW  Elec       q    Type
REMARK                         _______ _______ _______ _____ _____    ______ ____
ROOT
ATOM      1  N   UNL     1       4.514   6.185  19.097  0.00  0.00    +0.000 NA
ATOM      2  H   UNL     1       4.916   6.947  18.548  0.00  0.00    +0.000 HD
ENDROOT
BRANCH   1   3
ATOM      3  S   UNL     1       5.434   4.782  19.099  0.00  0.00    +0.000 S 
ATOM      4  O   UNL     1       4.580   3.691  19.512  0.00  0.00    +0.000 OA
ATOM      5  O   UNL     1       6.678   5.079  19.774  0.00  0.00    +0.000 OA
BRANCH   3  10
ATOM      6  C   UNL     1       6.643   4.156  13.180  0.00  0.00    +0.000 C 
ATOM      7  C   UNL     1       6.360   4.276  14.650  0.00  0.00    +0.000 A 
ATOM      8  C   UNL     1       5.136   3.844  15.178  0.00  0.00    +0.000 A 
ATOM      9  C   UNL     1       4.863   3.989  16.540  0.00  0.00    +0.000 A 
ATOM     10  C   UNL     1       5.826   4.557  17.379  0.00  0.00    +0.000 A 
ATOM     11  C   UNL     1       7.051   4.991  16.868  0.00  0.00    +0.000 A 
ATOM     12  C   UNL     1       7.313   4.848  15.504  0.00  0.00    +0.000 A 
ENDBRANCH   3  10
ENDBRANCH   1   3
BRANCH   1  13
ATOM     13  C   UNL     1       3.066   6.010  18.909  0.00  0.00    +0.000 C 
BRANCH  13  14
ATOM     14  C   UNL     1       2.357   7.304  19.177  0.00  0.00    +0.000 A 
ATOM     15  N   UNL     1       2.087   8.209  18.182  0.00  0.00    +0.000 NA
ATOM     16  C   UNL     1       1.409   9.155  18.799  0.00  0.00    +0.000 A 
ATOM     17  N   UNL     1       0.858  10.298  18.288  0.00  0.00    +0.000 NA
ATOM     18  C   UNL     1       0.212  11.056  19.125  0.00  0.00    +0.000 A 
ATOM     19  C   UNL     1      -0.421  12.326  18.617  0.00  0.00    +0.000 C 
ATOM     20  C   UNL     1       0.027  10.769  20.587  0.00  0.00    +0.000 A 
ATOM     21  C   UNL     1       0.588   9.639  21.050  0.00  0.00    +0.000 A 
ATOM     22  C   UNL     1       0.495   9.206  22.479  0.00  0.00    +0.000 C 
ATOM     23  N   UNL     1       1.286   8.821  20.155  0.00  0.00    +0.000 N 
ATOM     24  N   UNL     1       1.900   7.636  20.388  0.00  0.00    +0.000 NA
ENDBRANCH  13  14
ENDBRANCH   1  13
TORSDOF 4
ENDMDL
MODEL 8
REMARK VINA RESULT:      -7.0      3.561      6.189
REMARK  Name = 
REMARK  7 active torsions:
REMARK  status: ('A' for Active; 'I' for Inactive)
REMARK    1  A    between atoms: C_1  and  C_2
REMARK    2  A    between atoms: C_5  and  S_6
REMARK    3  A    between atoms: S_6  and  N_9
REMARK    4  A    between atoms: N_9  and  C_10
REMARK    5  A    between atoms: C_10  and  C_11
REMARK    6  A    between atoms: C_15  and  C_16
REMARK    7  A    between atoms: C_18  and  C_19
REMARK                            x       y       z     vdW  Elec       q    Type
REMARK                         _______ _______ _______ _____ _____    ______ ____
ROOT
ATOM      1  N   UNL     1       2.473   4.951  18.733  0.00  0.00    +0.000 NA
ATOM      2  H   UNL     1       1.580   4.599  18.384  0.00  0.00    +0.000 HD
ENDROOT
BRANCH   1   3
ATOM      3  S   UNL     1       3.791   3.995  18.329  0.00  0.00    +0.000 S 
ATOM      4  O   UNL     1       3.515   3.373  17.053  0.00  0.00    +0.000 OA
ATOM      5  O   UNL     1       4.139   3.220  19.499  0.00  0.00    +0.000 OA
BRANCH   3  10
ATOM      6  C   UNL     1       8.128   8.188  17.630  0.00  0.00    +0.000 C 
ATOM      7  C   UNL     1       7.071   7.130  17.775  0.00  0.00    +0.000 A 
ATOM      8  C   UNL     1       5.862   7.232  17.074  0.00  0.00    +0.000 A 
ATOM      9  C   UNL     1       4.868   6.264  17.237  0.00  0.00    +0.000 A 
ATOM     10  C   UNL     1       5.092   5.184  18.095  0.00  0.00    +0.000 A 
ATOM     11  C   UNL     1       6.294   5.068  18.798  0.00  0.00    +0.000 A 
ATOM     12  C   UNL     1       7.279   6.043  18.635  0.00  0.00    +0.000 A 
ENDBRANCH   3  10
ENDBRANCH   1   3
BRANCH   1  13
ATOM     13  C   UNL     1       2.426   5.437  20.120  0.00  0.00    +0.000 C 
BRANCH  13  14
ATOM     14  C   UNL     1       1.982   6.869  20.145  0.00  0.00    +0.000 A 
ATOM     15  N   UNL     1       2.111   7.692  19.055  0.00  0.00    +0.000 NA
ATOM     16  C   UNL     1       1.555   8.820  19.451  0.00  0.00    +0.000 A 
ATOM     17  N   UNL     1       1.376   9.986  18.759  0.00  0.00    +0.000 NA
ATOM     18  C   UNL     1       0.768  10.948  19.389  0.00  0.00    +0.000 A 
ATOM     19  C   UNL     1       0.539  12.254  18.674  0.00  0.00    +0.000 C 
ATOM     20  C   UNL     1       0.254  10.870  20.797  0.00  0.00    +0.000 A 
ATOM     21  C   UNL     1       0.454   9.709  21.444  0.00  0.00    +0.000 A 
ATOM     22  C   UNL     1       0.001   9.467  22.849  0.00  0.00    +0.000 C 
ATOM     23  N   UNL     1       1.109   8.671  20.772  0.00  0.00    +0.000 N 
ATOM     24  N   UNL     1       1.391   7.421  21.208  0.00  0.00    +0.000 NA
ENDBRANCH  13  14
ENDBRANCH   1  13
TORSDOF 4
ENDMDL
MODEL 9
REMARK VINA RESULT:      -6.9      3.709      6.613
REMARK  Name = 
REMARK  7 active torsions:
REMARK  status: ('A' for Active; 'I' for Inactive)
REMARK    1  A    between atoms: C_1  and  C_2
REMARK    2  A    between atoms: C_5  and  S_6
REMARK    3  A    between atoms: S_6  and  N_9
REMARK    4  A    between atoms: N_9  and  C_10
REMARK    5  A    between atoms: C_10  and  C_11
REMARK    6  A    between atoms: C_15  and  C_16
REMARK    7  A    between atoms: C_18  and  C_19
REMARK                            x       y       z     vdW  Elec       q    Type
REMARK                         _______ _______ _______ _____ _____    ______ ____
ROOT
ATOM      1  N   UNL     1       3.980   5.801  18.822  0.00  0.00    +0.000 NA
ATOM      2  H   UNL     1       3.810   6.309  17.953  0.00  0.00    +0.000 HD
ENDROOT
BRANCH   1   3
ATOM      3  S   UNL     1       4.828   4.367  18.623  0.00  0.00    +0.000 S 
ATOM      4  O   UNL     1       3.869   3.287  18.563  0.00  0.00    +0.000 OA
ATOM      5  O   UNL     1       5.918   4.372  19.575  0.00  0.00    +0.000 OA
BRANCH   3  10
ATOM      6  C   UNL     1       7.416   4.835  13.149  0.00  0.00    +0.000 C 
ATOM      7  C   UNL     1       6.766   4.756  14.501  0.00  0.00    +0.000 A 
ATOM      8  C   UNL     1       7.507   5.004  15.664  0.00  0.00    +0.000 A 
ATOM      9  C   UNL     1       6.907   4.897  16.920  0.00  0.00    +0.000 A 
ATOM     10  C   UNL     1       5.555   4.552  17.011  0.00  0.00    +0.000 A 
ATOM     11  C   UNL     1       4.803   4.303  15.861  0.00  0.00    +0.000 A 
ATOM     12  C   UNL     1       5.412   4.406  14.609  0.00  0.00    +0.000 A 
ENDBRANCH   3  10
ENDBRANCH   1   3
BRANCH   1  13
ATOM     13  C   UNL     1       2.817   5.746  19.721  0.00  0.00    +0.000 C 
BRANCH  13  14
ATOM     14  C   UNL     1       2.186   7.103  19.823  0.00  0.00    +0.000 A 
ATOM     15  N   UNL     1       2.217   8.002  18.788  0.00  0.00    +0.000 NA
ATOM     16  C   UNL     1       1.511   9.019  19.238  0.00  0.00    +0.000 A 
ATOM     17  N   UNL     1       1.186  10.192  18.614  0.00  0.00    +0.000 NA
ATOM     18  C   UNL     1       0.448  11.024  19.289  0.00  0.00    +0.000 A 
ATOM     19  C   UNL     1       0.055  12.330  18.648  0.00  0.00    +0.000 C 
ATOM     20  C   UNL     1      -0.069  10.791  20.678  0.00  0.00    +0.000 A 
ATOM     21  C   UNL     1       0.277   9.629  21.258  0.00  0.00    +0.000 A 
ATOM     22  C   UNL     1      -0.157   9.242  22.637  0.00  0.00    +0.000 C 
ATOM     23  N   UNL     1       1.073   8.731  20.539  0.00  0.00    +0.000 N 
ATOM     24  N   UNL     1       1.514   7.504  20.905  0.00  0.00    +0.000 NA
ENDBRANCH  13  14
ENDBRANCH   1  13
TORSDOF 4
ENDMDL
