MODEL 1
REMARK VINA RESULT:      -7.2      0.000      0.000
REMARK  Name = 
REMARK  4 active torsions:
REMARK  status: ('A' for Active; 'I' for Inactive)
REMARK    1  A    between atoms: C_1  and  C_2
REMARK    2  A    between atoms: C_3  and  S_4
REMARK    3  A    between atoms: S_4  and  N_7
REMARK    4  A    between atoms: C_10  and  N_11
REMARK                            x       y       z     vdW  Elec       q    Type
REMARK                         _______ _______ _______ _____ _____    ______ ____
ROOT
ATOM      1  N   UNL     1      -2.686  14.785  22.401  0.00  0.00    +0.000 NA
ATOM      2  C   UNL     1      -2.937  14.765  20.939  0.00  0.00    +0.000 C 
ATOM      3  C   UNL     1      -4.432  14.873  20.605  0.00  0.00    +0.000 C 
ATOM      4  C   UNL     1      -5.332  13.780  21.226  0.00  0.00    +0.000 C 
ATOM      5  C   UNL     1      -4.979  13.702  22.735  0.00  0.00    +0.000 C 
ATOM      6  C   UNL     1      -3.499  13.775  23.146  0.00  0.00    +0.000 C 
ENDROOT
BRANCH   4   7
ATOM      7  N   UNL     1      -5.404  12.460  20.493  0.00  0.00    +0.000 N 
ATOM      8  C   UNL     1      -6.502  11.629  20.673  0.00  0.00    +0.000 C 
ATOM      9  O   UNL     1      -6.940  11.339  21.782  0.00  0.00    +0.000 OA
ATOM     10  O   UNL     1      -7.134  11.164  19.571  0.00  0.00    +0.000 OA
ATOM     11  C   UNL     1      -6.427  11.007  18.351  0.00  0.00    +0.000 C 
ATOM     12  C   UNL     1      -5.267  11.923  18.142  0.00  0.00    +0.000 A 
ATOM     13  C   UNL     1      -4.579  11.770  16.933  0.00  0.00    +0.000 A 
ATOM     14  C   UNL     1      -3.266  11.344  16.995  0.00  0.00    +0.000 A 
ATOM     15  C   UNL     1      -2.651  11.255  18.244  0.00  0.00    +0.000 A 
ATOM     16  C   UNL     1      -3.287  11.786  19.398  0.00  0.00    +0.000 A 
ATOM     17  C   UNL     1      -4.608  12.248  19.328  0.00  0.00    +0.000 A 
ENDBRANCH   4   7
BRANCH   1  18
ATOM     18  S   UNL     1      -0.977  14.583  22.771  0.00  0.00    +0.000 S 
ATOM     19  O   UNL     1      -0.896  13.957  24.074  0.00  0.00    +0.000 OA
ATOM     20  O   UNL     1      -0.315  15.847  22.521  0.00  0.00    +0.000 OA
BRANCH  18  23
ATOM     21  C   UNL     1      -1.052  11.046  22.285  0.00  0.00    +0.000 C 
ATOM     22  C   UNL     1      -0.293  12.029  21.444  0.00  0.00    +0.000 A 
ATOM     23  C   UNL     1      -0.232  13.410  21.624  0.00  0.00    +0.000 A 
ATOM     24  S   UNL     1       0.816  14.153  20.496  0.00  0.00    +0.000 S 
ATOM     25  C   UNL     1       1.150  12.679  19.691  0.00  0.00    +0.000 A 
ATOM     26  C   UNL     1       1.962  12.516  18.548  0.00  0.00    +0.000 A 
ATOM     27  C   UNL     1       2.104  11.244  17.995  0.00  0.00    +0.000 A 
ATOM     28  C   UNL     1       1.469  10.156  18.573  0.00  0.00    +0.000 A 
ATOM     29 CL   UNL     1       1.646   8.595  17.867  0.00  0.00    +0.000 Cl
ATOM     30  C   UNL     1       0.672  10.317  19.712  0.00  0.00    +0.000 A 
ATOM     31  C   UNL     1       0.493  11.605  20.292  0.00  0.00    +0.000 A 
ENDBRANCH  18  23
ENDBRANCH   1  18
TORSDOF 3
ENDMDL
MODEL 2
REMARK VINA RESULT:      -6.9      4.032      6.033
REMARK  Name = 
REMARK  4 active torsions:
REMARK  status: ('A' for Active; 'I' for Inactive)
REMARK    1  A    between atoms: C_1  and  C_2
REMARK    2  A    between atoms: C_3  and  S_4
REMARK    3  A    between atoms: S_4  and  N_7
REMARK    4  A    between atoms: C_10  and  N_11
REMARK                            x       y       z     vdW  Elec       q    Type
REMARK                         _______ _______ _______ _____ _____    ______ ____
ROOT
ATOM      1  N   UNL     1       0.372  10.309  20.093  0.00  0.00    +0.000 NA
ATOM      2  C   UNL     1      -1.059  10.278  19.703  0.00  0.00    +0.000 C 
ATOM      3  C   UNL     1      -1.470  11.522  18.903  0.00  0.00    +0.000 C 
ATOM      4  C   UNL     1      -1.232  12.876  19.612  0.00  0.00    +0.000 C 
ATOM      5  C   UNL     1       0.226  12.863  20.141  0.00  0.00    +0.000 C 
ATOM      6  C   UNL     1       0.758  11.574  20.791  0.00  0.00    +0.000 C 
ENDROOT
BRANCH   4   7
ATOM      7  N   UNL     1      -2.290  13.325  20.594  0.00  0.00    +0.000 N 
ATOM      8  C   UNL     1      -3.530  12.700  20.607  0.00  0.00    +0.000 C 
ATOM      9  O   UNL     1      -4.184  12.501  19.589  0.00  0.00    +0.000 OA
ATOM     10  O   UNL     1      -4.004  12.257  21.795  0.00  0.00    +0.000 OA
ATOM     11  C   UNL     1      -3.607  12.882  23.005  0.00  0.00    +0.000 C 
ATOM     12  C   UNL     1      -2.261  13.524  23.001  0.00  0.00    +0.000 A 
ATOM     13  C   UNL     1      -1.870  14.132  24.200  0.00  0.00    +0.000 A 
ATOM     14  C   UNL     1      -1.693  15.502  24.193  0.00  0.00    +0.000 A 
ATOM     15  C   UNL     1      -1.743  16.176  22.974  0.00  0.00    +0.000 A 
ATOM     16  C   UNL     1      -1.767  15.451  21.752  0.00  0.00    +0.000 A 
ATOM     17  C   UNL     1      -1.914  14.057  21.759  0.00  0.00    +0.000 A 
ENDBRANCH   4   7
BRANCH   1  18
ATOM     18  S   UNL     1       0.811   8.915  21.075  0.00  0.00    +0.000 S 
ATOM     19  O   UNL     1      -0.422   8.263  21.462  0.00  0.00    +0.000 OA
ATOM     20  O   UNL     1       1.754   9.359  22.081  0.00  0.00    +0.000 OA
BRANCH  18  23
ATOM     21  C   UNL     1       2.324   8.865  17.841  0.00  0.00    +0.000 C 
ATOM     22  C   UNL     1       2.300   7.724  18.814  0.00  0.00    +0.000 A 
ATOM     23  C   UNL     1       1.701   7.712  20.073  0.00  0.00    +0.000 A 
ATOM     24  S   UNL     1       1.832   6.182  20.825  0.00  0.00    +0.000 S 
ATOM     25  C   UNL     1       2.754   5.523  19.542  0.00  0.00    +0.000 A 
ATOM     26  C   UNL     1       3.297   4.221  19.485  0.00  0.00    +0.000 A 
ATOM     27  C   UNL     1       4.055   3.853  18.374  0.00  0.00    +0.000 A 
ATOM     28  C   UNL     1       4.256   4.749  17.336  0.00  0.00    +0.000 A 
ATOM     29 CL   UNL     1       5.208   4.279  15.980  0.00  0.00    +0.000 Cl
ATOM     30  C   UNL     1       3.710   6.036  17.390  0.00  0.00    +0.000 A 
ATOM     31  C   UNL     1       2.944   6.450  18.516  0.00  0.00    +0.000 A 
ENDBRANCH  18  23
ENDBRANCH   1  18
TORSDOF 3
ENDMDL
MODEL 3
REMARK VINA RESULT:      -6.9      3.204      5.372
REMARK  Name = 
REMARK  4 active torsions:
REMARK  status: ('A' for Active; 'I' for Inactive)
REMARK    1  A    between atoms: C_1  and  C_2
REMARK    2  A    between atoms: C_3  and  S_4
REMARK    3  A    between atoms: S_4  and  N_7
REMARK    4  A    between atoms: C_10  and  N_11
REMARK                            x       y       z     vdW  Elec       q    Type
REMARK                         _______ _______ _______ _____ _____    ______ ____
ROOT
ATOM      1  N   UNL     1      -1.382  11.825  21.074  0.00  0.00    +0.000 NA
ATOM      2  C   UNL     1      -1.330  12.133  22.524  0.00  0.00    +0.000 C 
ATOM      3  C   UNL     1      -2.722  12.126  23.171  0.00  0.00    +0.000 C 
ATOM      4  C   UNL     1      -3.749  13.100  22.546  0.00  0.00    +0.000 C 
ATOM      5  C   UNL     1      -3.713  12.876  21.011  0.00  0.00    +0.000 C 
ATOM      6  C   UNL     1      -2.348  12.691  20.330  0.00  0.00    +0.000 C 
ENDROOT
BRANCH   4   7
ATOM      7  N   UNL     1      -3.692  14.538  23.008  0.00  0.00    +0.000 N 
ATOM      8  C   UNL     1      -4.862  15.281  23.099  0.00  0.00    +0.000 C 
ATOM      9  O   UNL     1      -5.690  15.327  22.195  0.00  0.00    +0.000 OA
ATOM     10  O   UNL     1      -5.107  15.940  24.255  0.00  0.00    +0.000 OA
ATOM     11  C   UNL     1      -4.035  16.362  25.083  0.00  0.00    +0.000 C 
ATOM     12  C   UNL     1      -2.789  15.543  25.011  0.00  0.00    +0.000 A 
ATOM     13  C   UNL     1      -1.737  15.958  25.835  0.00  0.00    +0.000 A 
ATOM     14  C   UNL     1      -0.582  16.403  25.222  0.00  0.00    +0.000 A 
ATOM     15  C   UNL     1      -0.460  16.256  23.841  0.00  0.00    +0.000 A 
ATOM     16  C   UNL     1      -1.406  15.484  23.114  0.00  0.00    +0.000 A 
ATOM     17  C   UNL     1      -2.562  15.005  23.744  0.00  0.00    +0.000 A 
ENDBRANCH   4   7
BRANCH   1  18
ATOM     18  S   UNL     1       0.211  11.912  20.331  0.00  0.00    +0.000 S 
ATOM     19  O   UNL     1       1.089  12.558  21.283  0.00  0.00    +0.000 OA
ATOM     20  O   UNL     1       0.050  12.451  18.996  0.00  0.00    +0.000 OA
BRANCH  18  23
ATOM     21  C   UNL     1       0.699   9.028  22.379  0.00  0.00    +0.000 C 
ATOM     22  C   UNL     1       1.041   9.135  20.923  0.00  0.00    +0.000 A 
ATOM     23  C   UNL     1       0.878  10.254  20.107  0.00  0.00    +0.000 A 
ATOM     24  S   UNL     1       1.474   9.981  18.528  0.00  0.00    +0.000 S 
ATOM     25  C   UNL     1       1.886   8.353  18.861  0.00  0.00    +0.000 A 
ATOM     26  C   UNL     1       2.425   7.423  17.946  0.00  0.00    +0.000 A 
ATOM     27  C   UNL     1       2.675   6.120  18.375  0.00  0.00    +0.000 A 
ATOM     28  C   UNL     1       2.411   5.752  19.685  0.00  0.00    +0.000 A 
ATOM     29 CL   UNL     1       2.712   4.133  20.190  0.00  0.00    +0.000 Cl
ATOM     30  C   UNL     1       1.884   6.677  20.593  0.00  0.00    +0.000 A 
ATOM     31  C   UNL     1       1.603   8.011  20.185  0.00  0.00    +0.000 A 
ENDBRANCH  18  23
ENDBRANCH   1  18
TORSDOF 3
ENDMDL
MODEL 4
REMARK VINA RESULT:      -6.9      4.078      6.208
REMARK  Name = 
REMARK  4 active torsions:
REMARK  status: ('A' for Active; 'I' for Inactive)
REMARK    1  A    between atoms: C_1  and  C_2
REMARK    2  A    between atoms: C_3  and  S_4
REMARK    3  A    between atoms: S_4  and  N_7
REMARK    4  A    between atoms: C_10  and  N_11
REMARK                            x       y       z     vdW  Elec       q    Type
REMARK                         _______ _______ _______ _____ _____    ______ ____
ROOT
ATOM      1  N   UNL     1       0.441  10.208  19.827  0.00  0.00    +0.000 NA
ATOM      2  C   UNL     1      -1.015  10.492  19.810  0.00  0.00    +0.000 C 
ATOM      3  C   UNL     1      -1.361  11.699  18.926  0.00  0.00    +0.000 C 
ATOM      4  C   UNL     1      -0.655  13.021  19.303  0.00  0.00    +0.000 C 
ATOM      5  C   UNL     1       0.857  12.704  19.454  0.00  0.00    +0.000 C 
ATOM      6  C   UNL     1       1.264  11.407  20.173  0.00  0.00    +0.000 C 
ENDROOT
BRANCH   4   7
ATOM      7  N   UNL     1      -1.276  13.832  20.417  0.00  0.00    +0.000 N 
ATOM      8  C   UNL     1      -1.327  15.217  20.319  0.00  0.00    +0.000 C 
ATOM      9  O   UNL     1      -0.353  15.896  20.010  0.00  0.00    +0.000 OA
ATOM     10  O   UNL     1      -2.518  15.824  20.530  0.00  0.00    +0.000 OA
ATOM     11  C   UNL     1      -3.493  15.223  21.366  0.00  0.00    +0.000 C 
ATOM     12  C   UNL     1      -3.460  13.733  21.446  0.00  0.00    +0.000 A 
ATOM     13  C   UNL     1      -4.430  13.144  22.265  0.00  0.00    +0.000 A 
ATOM     14  C   UNL     1      -3.992  12.462  23.384  0.00  0.00    +0.000 A 
ATOM     15  C   UNL     1      -2.623  12.252  23.545  0.00  0.00    +0.000 A 
ATOM     16  C   UNL     1      -1.721  12.546  22.487  0.00  0.00    +0.000 A 
ATOM     17  C   UNL     1      -2.172  13.209  21.337  0.00  0.00    +0.000 A 
ENDBRANCH   4   7
BRANCH   1  18
ATOM     18  S   UNL     1       0.832   8.871  20.903  0.00  0.00    +0.000 S 
ATOM     19  O   UNL     1      -0.421   8.262  21.297  0.00  0.00    +0.000 OA
ATOM     20  O   UNL     1       1.756   9.362  21.904  0.00  0.00    +0.000 OA
BRANCH  18  23
ATOM     21  C   UNL     1       2.513   8.630  17.763  0.00  0.00    +0.000 C 
ATOM     22  C   UNL     1       2.393   7.532  18.777  0.00  0.00    +0.000 A 
ATOM     23  C   UNL     1       1.728   7.595  20.001  0.00  0.00    +0.000 A 
ATOM     24  S   UNL     1       1.758   6.094  20.819  0.00  0.00    +0.000 S 
ATOM     25  C   UNL     1       2.722   5.348  19.616  0.00  0.00    +0.000 A 
ATOM     26  C   UNL     1       3.216   4.027  19.641  0.00  0.00    +0.000 A 
ATOM     27  C   UNL     1       4.018   3.584  18.589  0.00  0.00    +0.000 A 
ATOM     28  C   UNL     1       4.309   4.429  17.529  0.00  0.00    +0.000 A 
ATOM     29 CL   UNL     1       5.313   3.868  16.247  0.00  0.00    +0.000 Cl
ATOM     30  C   UNL     1       3.811   5.736  17.501  0.00  0.00    +0.000 A 
ATOM     31  C   UNL     1       3.002   6.225  18.566  0.00  0.00    +0.000 A 
ENDBRANCH  18  23
ENDBRANCH   1  18
TORSDOF 3
ENDMDL
MODEL 5
REMARK VINA RESULT:      -6.9      3.543      4.820
REMARK  Name = 
REMARK  4 active torsions:
REMARK  status: ('A' for Active; 'I' for Inactive)
REMARK    1  A    between atoms: C_1  and  C_2
REMARK    2  A    between atoms: C_3  and  S_4
REMARK    3  A    between atoms: S_4  and  N_7
REMARK    4  A    between atoms: C_10  and  N_11
REMARK                            x       y       z     vdW  Elec       q    Type
REMARK                         _______ _______ _______ _____ _____    ______ ____
ROOT
ATOM      1  N   UNL     1      -0.120  10.654  20.657  0.00  0.00    +0.000 NA
ATOM      2  C   UNL     1      -1.160  10.400  19.630  0.00  0.00    +0.000 C 
ATOM      3  C   UNL     1      -1.701  11.699  19.018  0.00  0.00    +0.000 C 
ATOM      4  C   UNL     1      -2.307  12.706  20.023  0.00  0.00    +0.000 C 
ATOM      5  C   UNL     1      -1.278  12.876  21.173  0.00  0.00    +0.000 C 
ATOM      6  C   UNL     1      -0.562  11.624  21.706  0.00  0.00    +0.000 C 
ENDROOT
BRANCH   4   7
ATOM      7  N   UNL     1      -3.738  12.469  20.445  0.00  0.00    +0.000 N 
ATOM      8  C   UNL     1      -4.108  12.654  21.772  0.00  0.00    +0.000 C 
ATOM      9  O   UNL     1      -3.474  12.178  22.709  0.00  0.00    +0.000 OA
ATOM     10  O   UNL     1      -5.185  13.431  22.028  0.00  0.00    +0.000 OA
ATOM     11  C   UNL     1      -6.223  13.559  21.069  0.00  0.00    +0.000 C 
ATOM     12  C   UNL     1      -5.821  13.394  19.642  0.00  0.00    +0.000 A 
ATOM     13  C   UNL     1      -6.845  13.530  18.698  0.00  0.00    +0.000 A 
ATOM     14  C   UNL     1      -7.177  12.417  17.950  0.00  0.00    +0.000 A 
ATOM     15  C   UNL     1      -6.372  11.282  18.048  0.00  0.00    +0.000 A 
ATOM     16  C   UNL     1      -5.131  11.339  18.737  0.00  0.00    +0.000 A 
ATOM     17  C   UNL     1      -4.780  12.481  19.470  0.00  0.00    +0.000 A 
ENDBRANCH   4   7
BRANCH   1  18
ATOM     18  S   UNL     1       0.436   9.161  21.405  0.00  0.00    +0.000 S 
ATOM     19  O   UNL     1      -0.733   8.341  21.639  0.00  0.00    +0.000 OA
ATOM     20  O   UNL     1       1.317   9.513  22.500  0.00  0.00    +0.000 OA
BRANCH  18  23
ATOM     21  C   UNL     1       1.856   9.741  18.181  0.00  0.00    +0.000 C 
ATOM     22  C   UNL     1       2.012   8.490  18.993  0.00  0.00    +0.000 A 
ATOM     23  C   UNL     1       1.454   8.232  20.245  0.00  0.00    +0.000 A 
ATOM     24  S   UNL     1       1.810   6.650  20.786  0.00  0.00    +0.000 S 
ATOM     25  C   UNL     1       2.778   6.297  19.418  0.00  0.00    +0.000 A 
ATOM     26  C   UNL     1       3.490   5.100  19.184  0.00  0.00    +0.000 A 
ATOM     27  C   UNL     1       4.261   4.987  18.028  0.00  0.00    +0.000 A 
ATOM     28  C   UNL     1       4.312   6.031  17.117  0.00  0.00    +0.000 A 
ATOM     29 CL   UNL     1       5.282   5.877  15.702  0.00  0.00    +0.000 Cl
ATOM     30  C   UNL     1       3.599   7.213  17.346  0.00  0.00    +0.000 A 
ATOM     31  C   UNL     1       2.814   7.367  18.523  0.00  0.00    +0.000 A 
ENDBRANCH  18  23
ENDBRANCH   1  18
TORSDOF 3
ENDMDL
MODEL 6
REMARK VINA RESULT:      -6.9      2.448      4.340
REMARK  Name = 
REMARK  4 active torsions:
REMARK  status: ('A' for Active; 'I' for Inactive)
REMARK    1  A    between atoms: C_1  and  C_2
REMARK    2  A    between atoms: C_3  and  S_4
REMARK    3  A    between atoms: S_4  and  N_7
REMARK    4  A    between atoms: C_10  and  N_11
REMARK                            x       y       z     vdW  Elec       q    Type
REMARK                         _______ _______ _______ _____ _____    ______ ____
ROOT
ATOM      1  N   UNL     1      -0.753  12.426  22.887  0.00  0.00    +0.000 NA
ATOM      2  C   UNL     1      -1.075  13.870  22.784  0.00  0.00    +0.000 C 
ATOM      3  C   UNL     1      -2.036  14.332  23.888  0.00  0.00    +0.000 C 
ATOM      4  C   UNL     1      -3.385  13.580  23.952  0.00  0.00    +0.000 C 
ATOM      5  C   UNL     1      -3.062  12.062  23.926  0.00  0.00    +0.000 C 
ATOM      6  C   UNL     1      -1.971  11.562  22.965  0.00  0.00    +0.000 C 
ENDROOT
BRANCH   4   7
ATOM      7  N   UNL     1      -4.468  14.043  23.006  0.00  0.00    +0.000 N 
ATOM      8  C   UNL     1      -4.292  15.209  22.272  0.00  0.00    +0.000 C 
ATOM      9  O   UNL     1      -3.917  16.262  22.779  0.00  0.00    +0.000 OA
ATOM     10  O   UNL     1      -4.502  15.156  20.936  0.00  0.00    +0.000 OA
ATOM     11  C   UNL     1      -5.400  14.204  20.388  0.00  0.00    +0.000 C 
ATOM     12  C   UNL     1      -5.563  12.937  21.158  0.00  0.00    +0.000 A 
ATOM     13  C   UNL     1      -6.443  11.997  20.609  0.00  0.00    +0.000 A 
ATOM     14  C   UNL     1      -7.586  11.697  21.324  0.00  0.00    +0.000 A 
ATOM     15  C   UNL     1      -7.719  12.207  22.615  0.00  0.00    +0.000 A 
ATOM     16  C   UNL     1      -6.620  12.843  23.254  0.00  0.00    +0.000 A 
ATOM     17  C   UNL     1      -5.448  13.118  22.537  0.00  0.00    +0.000 A 
ENDBRANCH   4   7
BRANCH   1  18
ATOM     18  S   UNL     1       0.287  11.894  21.570  0.00  0.00    +0.000 S 
ATOM     19  O   UNL     1       0.831  10.608  21.952  0.00  0.00    +0.000 OA
ATOM     20  O   UNL     1       1.168  12.992  21.228  0.00  0.00    +0.000 OA
BRANCH  18  23
ATOM     21  C   UNL     1       0.704  10.077  18.525  0.00  0.00    +0.000 C 
ATOM     22  C   UNL     1      -0.517  10.853  18.921  0.00  0.00    +0.000 A 
ATOM     23  C   UNL     1      -0.698  11.584  20.094  0.00  0.00    +0.000 A 
ATOM     24  S   UNL     1      -2.205  12.390  20.116  0.00  0.00    +0.000 S 
ATOM     25  C   UNL     1      -2.690  11.725  18.613  0.00  0.00    +0.000 A 
ATOM     26  C   UNL     1      -3.932  11.924  17.973  0.00  0.00    +0.000 A 
ATOM     27  C   UNL     1      -4.179  11.280  16.761  0.00  0.00    +0.000 A 
ATOM     28  C   UNL     1      -3.210  10.469  16.190  0.00  0.00    +0.000 A 
ATOM     29 CL   UNL     1      -3.541   9.670  14.701  0.00  0.00    +0.000 Cl
ATOM     30  C   UNL     1      -1.976  10.279  16.823  0.00  0.00    +0.000 A 
ATOM     31  C   UNL     1      -1.697  10.910  18.068  0.00  0.00    +0.000 A 
ENDBRANCH  18  23
ENDBRANCH   1  18
TORSDOF 3
ENDMDL
MODEL 7
REMARK VINA RESULT:      -6.9      2.880      4.891
REMARK  Name = 
REMARK  4 active torsions:
REMARK  status: ('A' for Active; 'I' for Inactive)
REMARK    1  A    between atoms: C_1  and  C_2
REMARK    2  A    between atoms: C_3  and  S_4
REMARK    3  A    between atoms: S_4  and  N_7
REMARK    4  A    between atoms: C_10  and  N_11
REMARK                            x       y       z     vdW  Elec       q    Type
REMARK                         _______ _______ _______ _____ _____    ______ ____
ROOT
ATOM      1  N   UNL     1      -1.948  12.121  21.503  0.00  0.00    +0.000 NA
ATOM      2  C   UNL     1      -2.040  12.649  22.886  0.00  0.00    +0.000 C 
ATOM      3  C   UNL     1      -3.450  12.497  23.474  0.00  0.00    +0.000 C 
ATOM      4  C   UNL     1      -4.582  13.172  22.665  0.00  0.00    +0.000 C 
ATOM      5  C   UNL     1      -4.413  12.729  21.188  0.00  0.00    +0.000 C 
ATOM      6  C   UNL     1      -2.995  12.683  20.595  0.00  0.00    +0.000 C 
ENDROOT
BRANCH   4   7
ATOM      7  N   UNL     1      -4.795  14.650  22.894  0.00  0.00    +0.000 N 
ATOM      8  C   UNL     1      -6.073  15.135  23.140  0.00  0.00    +0.000 C 
ATOM      9  O   UNL     1      -7.041  14.833  22.449  0.00  0.00    +0.000 OA
ATOM     10  O   UNL     1      -6.252  15.935  24.216  0.00  0.00    +0.000 OA
ATOM     11  C   UNL     1      -5.181  16.723  24.712  0.00  0.00    +0.000 C 
ATOM     12  C   UNL     1      -3.809  16.186  24.478  0.00  0.00    +0.000 A 
ATOM     13  C   UNL     1      -2.756  16.961  24.976  0.00  0.00    +0.000 A 
ATOM     14  C   UNL     1      -1.881  17.514  24.061  0.00  0.00    +0.000 A 
ATOM     15  C   UNL     1      -1.987  17.136  22.723  0.00  0.00    +0.000 A 
ATOM     16  C   UNL     1      -2.833  16.058  22.345  0.00  0.00    +0.000 A 
ATOM     17  C   UNL     1      -3.697  15.476  23.281  0.00  0.00    +0.000 A 
ENDBRANCH   4   7
BRANCH   1  18
ATOM     18  S   UNL     1      -0.348  12.371  20.814  0.00  0.00    +0.000 S 
ATOM     19  O   UNL     1       0.463  12.996  21.838  0.00  0.00    +0.000 OA
ATOM     20  O   UNL     1      -0.514  13.004  19.522  0.00  0.00    +0.000 OA
BRANCH  18  23
ATOM     21  C   UNL     1       0.345   9.396  22.663  0.00  0.00    +0.000 C 
ATOM     22  C   UNL     1       0.677   9.626  21.219  0.00  0.00    +0.000 A 
ATOM     23  C   UNL     1       0.434  10.784  20.480  0.00  0.00    +0.000 A 
ATOM     24  S   UNL     1       1.047  10.662  18.888  0.00  0.00    +0.000 S 
ATOM     25  C   UNL     1       1.573   9.048  19.111  0.00  0.00    +0.000 A 
ATOM     26  C   UNL     1       2.176   8.223  18.137  0.00  0.00    +0.000 A 
ATOM     27  C   UNL     1       2.518   6.915  18.477  0.00  0.00    +0.000 A 
ATOM     28  C   UNL     1       2.281   6.440  19.758  0.00  0.00    +0.000 A 
ATOM     29 CL   UNL     1       2.697   4.817  20.152  0.00  0.00    +0.000 Cl
ATOM     30  C   UNL     1       1.691   7.262  20.725  0.00  0.00    +0.000 A 
ATOM     31  C   UNL     1       1.316   8.598  20.407  0.00  0.00    +0.000 A 
ENDBRANCH  18  23
ENDBRANCH   1  18
TORSDOF 3
ENDMDL
MODEL 8
REMARK VINA RESULT:      -6.7      3.132      5.083
REMARK  Name = 
REMARK  4 active torsions:
REMARK  status: ('A' for Active; 'I' for Inactive)
REMARK    1  A    between atoms: C_1  and  C_2
REMARK    2  A    between atoms: C_3  and  S_4
REMARK    3  A    between atoms: S_4  and  N_7
REMARK    4  A    between atoms: C_10  and  N_11
REMARK                            x       y       z     vdW  Elec       q    Type
REMARK                         _______ _______ _______ _____ _____    ______ ____
ROOT
ATOM      1  N   UNL     1      -0.039  11.835  20.948  0.00  0.00    +0.000 NA
ATOM      2  C   UNL     1      -0.019  13.318  20.925  0.00  0.00    +0.000 C 
ATOM      3  C   UNL     1      -0.081  13.921  22.336  0.00  0.00    +0.000 C 
ATOM      4  C   UNL     1      -1.306  13.506  23.183  0.00  0.00    +0.000 C 
ATOM      5  C   UNL     1      -1.413  11.960  23.102  0.00  0.00    +0.000 C 
ATOM      6  C   UNL     1      -1.177  11.280  21.743  0.00  0.00    +0.000 C 
ENDROOT
BRANCH   4   7
ATOM      7  N   UNL     1      -2.587  14.272  22.947  0.00  0.00    +0.000 N 
ATOM      8  C   UNL     1      -2.540  15.544  22.390  0.00  0.00    +0.000 C 
ATOM      9  O   UNL     1      -1.781  16.418  22.796  0.00  0.00    +0.000 OA
ATOM     10  O   UNL     1      -3.336  15.800  21.326  0.00  0.00    +0.000 OA
ATOM     11  C   UNL     1      -4.549  15.086  21.148  0.00  0.00    +0.000 C 
ATOM     12  C   UNL     1      -4.589  13.708  21.717  0.00  0.00    +0.000 A 
ATOM     13  C   UNL     1      -5.785  13.005  21.532  0.00  0.00    +0.000 A 
ATOM     14  C   UNL     1      -6.515  12.679  22.658  0.00  0.00    +0.000 A 
ATOM     15  C   UNL     1      -5.950  12.911  23.912  0.00  0.00    +0.000 A 
ATOM     16  C   UNL     1      -4.582  13.277  24.027  0.00  0.00    +0.000 A 
ATOM     17  C   UNL     1      -3.831  13.576  22.882  0.00  0.00    +0.000 A 
ENDBRANCH   4   7
BRANCH   1  18
ATOM     18  S   UNL     1      -0.045  11.158  19.323  0.00  0.00    +0.000 S 
ATOM     19  O   UNL     1       0.618  12.114  18.462  0.00  0.00    +0.000 OA
ATOM     20  O   UNL     1      -1.394  10.719  19.030  0.00  0.00    +0.000 OA
BRANCH  18  23
ATOM     21  C   UNL     1       0.519   8.342  21.443  0.00  0.00    +0.000 C 
ATOM     22  C   UNL     1       1.160   8.574  20.108  0.00  0.00    +0.000 A 
ATOM     23  C   UNL     1       0.971   9.672  19.270  0.00  0.00    +0.000 A 
ATOM     24  S   UNL     1       1.958   9.587  17.876  0.00  0.00    +0.000 S 
ATOM     25  C   UNL     1       2.597   8.057  18.306  0.00  0.00    +0.000 A 
ATOM     26  C   UNL     1       3.507   7.289  17.548  0.00  0.00    +0.000 A 
ATOM     27  C   UNL     1       3.905   6.042  18.030  0.00  0.00    +0.000 A 
ATOM     28  C   UNL     1       3.423   5.576  19.243  0.00  0.00    +0.000 A 
ATOM     29 CL   UNL     1       3.915   4.027  19.814  0.00  0.00    +0.000 Cl
ATOM     30  C   UNL     1       2.528   6.342  19.998  0.00  0.00    +0.000 A 
ATOM     31  C   UNL     1       2.090   7.612  19.528  0.00  0.00    +0.000 A 
ENDBRANCH  18  23
ENDBRANCH   1  18
TORSDOF 3
ENDMDL
MODEL 9
REMARK VINA RESULT:      -6.7      3.082      4.308
REMARK  Name = 
REMARK  4 active torsions:
REMARK  status: ('A' for Active; 'I' for Inactive)
REMARK    1  A    between atoms: C_1  and  C_2
REMARK    2  A    between atoms: C_3  and  S_4
REMARK    3  A    between atoms: S_4  and  N_7
REMARK    4  A    between atoms: C_10  and  N_11
REMARK                            x       y       z     vdW  Elec       q    Type
REMARK                         _______ _______ _______ _____ _____    ______ ____
ROOT
ATOM      1  N   UNL     1      -1.208  12.835  22.370  0.00  0.00    +0.000 NA
ATOM      2  C   UNL     1      -1.442  14.237  22.793  0.00  0.00    +0.000 C 
ATOM      3  C   UNL     1      -2.037  14.326  24.205  0.00  0.00    +0.000 C 
ATOM      4  C   UNL     1      -3.371  13.572  24.413  0.00  0.00    +0.000 C 
ATOM      5  C   UNL     1      -3.176  12.139  23.849  0.00  0.00    +0.000 C 
ATOM      6  C   UNL     1      -2.420  11.972  22.520  0.00  0.00    +0.000 C 
ENDROOT
BRANCH   4   7
ATOM      7  N   UNL     1      -4.631  14.286  23.985  0.00  0.00    +0.000 N 
ATOM      8  C   UNL     1      -4.644  15.673  23.899  0.00  0.00    +0.000 C 
ATOM      9  O   UNL     1      -4.222  16.397  24.796  0.00  0.00    +0.000 OA
ATOM     10  O   UNL     1      -5.102  16.234  22.756  0.00  0.00    +0.000 OA
ATOM     11  C   UNL     1      -6.048  15.551  21.950  0.00  0.00    +0.000 C 
ATOM     12  C   UNL     1      -6.012  14.061  22.015  0.00  0.00    +0.000 A 
ATOM     13  C   UNL     1      -6.942  13.391  21.211  0.00  0.00    +0.000 A 
ATOM     14  C   UNL     1      -7.915  12.645  21.847  0.00  0.00    +0.000 A 
ATOM     15  C   UNL     1      -7.821  12.459  23.225  0.00  0.00    +0.000 A 
ATOM     16  C   UNL     1      -6.647  12.849  23.925  0.00  0.00    +0.000 A 
ATOM     17  C   UNL     1      -5.644  13.578  23.272  0.00  0.00    +0.000 A 
ENDBRANCH   4   7
BRANCH   1  18
ATOM     18  S   UNL     1      -0.599  12.745  20.720  0.00  0.00    +0.000 S 
ATOM     19  O   UNL     1       0.450  13.735  20.601  0.00  0.00    +0.000 OA
ATOM     20  O   UNL     1      -1.737  12.769  19.824  0.00  0.00    +0.000 OA
BRANCH  18  23
ATOM     21  C   UNL     1       0.108   9.840  22.673  0.00  0.00    +0.000 C 
ATOM     22  C   UNL     1       0.450  10.026  21.224  0.00  0.00    +0.000 A 
ATOM     23  C   UNL     1       0.202  11.155  20.446  0.00  0.00    +0.000 A 
ATOM     24  S   UNL     1       0.829  10.988  18.864  0.00  0.00    +0.000 S 
ATOM     25  C   UNL     1       1.370   9.387  19.145  0.00  0.00    +0.000 A 
ATOM     26  C   UNL     1       1.990   8.537  18.204  0.00  0.00    +0.000 A 
ATOM     27  C   UNL     1       2.342   7.244  18.590  0.00  0.00    +0.000 A 
ATOM     28  C   UNL     1       2.099   6.810  19.883  0.00  0.00    +0.000 A 
ATOM     29 CL   UNL     1       2.528   5.205  20.335  0.00  0.00    +0.000 Cl
ATOM     30  C   UNL     1       1.493   7.657  20.818  0.00  0.00    +0.000 A 
ATOM     31  C   UNL     1       1.107   8.978  20.453  0.00  0.00    +0.000 A 
ENDBRANCH  18  23
ENDBRANCH   1  18
TORSDOF 3
ENDMDL
