MODEL 1
REMARK VINA RESULT:      -7.2      0.000      0.000
REMARK  Name = 
REMARK  7 active torsions:
REMARK  status: ('A' for Active; 'I' for Inactive)
REMARK    1  A    between atoms: C_2  and  O_3
REMARK    2  A    between atoms: C_2  and  C_4
REMARK    3  A    between atoms: C_4  and  S_5
REMARK    4  A    between atoms: S_5  and  C_8
REMARK    5  A    between atoms: C_11  and  N_12
REMARK    6  A    between atoms: N_12  and  C_13
REMARK    7  A    between atoms: C_13  and  C_14
REMARK                            x       y       z     vdW  Elec       q    Type
REMARK                         _______ _______ _______ _____ _____    ______ ____
ROOT
ATOM      1  C   UNL     1       5.742   5.394  18.546  0.00  0.00    +0.000 A 
ATOM      2  C   UNL     1       6.989   5.352  19.164  0.00  0.00    +0.000 A 
ATOM      3  C   UNL     1       7.922   6.356  18.890  0.00  0.00    +0.000 A 
ATOM      4  C   UNL     1       7.647   7.388  17.978  0.00  0.00    +0.000 A 
ATOM      5  C   UNL     1       6.384   7.403  17.372  0.00  0.00    +0.000 A 
ATOM      6  C   UNL     1       5.437   6.408  17.637  0.00  0.00    +0.000 A 
ENDROOT
BRANCH   1   7
ATOM      7  S   UNL     1       4.507   4.191  18.957  0.00  0.00    +0.000 S 
ATOM      8  O   UNL     1       3.429   4.864  19.666  0.00  0.00    +0.000 OA
ATOM      9  O   UNL     1       5.190   3.062  19.554  0.00  0.00    +0.000 OA
BRANCH   7  10
ATOM     10  C   UNL     1       3.811   3.669  17.434  0.00  0.00    +0.000 C 
BRANCH  10  12
ATOM     11  O   UNL     1       1.455   3.342  17.490  0.00  0.00    +0.000 OA
ATOM     12  C   UNL     1       2.573   2.882  17.677  0.00  0.00    +0.000 C 
BRANCH  12  13
ATOM     13  O   UNL     1       2.756   1.596  18.053  0.00  0.00    +0.000 OA
ATOM     14  H   UNL     1       3.489   1.112  17.604  0.00  0.00    +0.000 HD
ENDBRANCH  12  13
ENDBRANCH  10  12
ENDBRANCH   7  10
ENDBRANCH   1   7
BRANCH   4  15
ATOM     15  N   UNL     1       8.578   8.417  17.833  0.00  0.00    +0.000 N 
ATOM     16  H   UNL     1       9.187   8.292  17.028  0.00  0.00    +0.000 HD
BRANCH  15  17
ATOM     17  C   UNL     1       8.154   9.806  17.971  0.00  0.00    +0.000 C 
BRANCH  17  18
ATOM     18  C   UNL     1       9.267  10.604  18.612  0.00  0.00    +0.000 A 
ATOM     19  C   UNL     1       9.329  10.774  20.002  0.00  0.00    +0.000 A 
ATOM     20  C   UNL     1      10.364  11.514  20.578  0.00  0.00    +0.000 A 
ATOM     21  C   UNL     1      11.345  12.090  19.774  0.00  0.00    +0.000 A 
ATOM     22  C   UNL     1      11.298  11.924  18.391  0.00  0.00    +0.000 A 
ATOM     23  C   UNL     1      10.266  11.184  17.813  0.00  0.00    +0.000 A 
ENDBRANCH  17  18
ENDBRANCH  15  17
ENDBRANCH   4  15
TORSDOF 7
ENDMDL
MODEL 2
REMARK VINA RESULT:      -7.2      1.075      1.605
REMARK  Name = 
REMARK  7 active torsions:
REMARK  status: ('A' for Active; 'I' for Inactive)
REMARK    1  A    between atoms: C_2  and  O_3
REMARK    2  A    between atoms: C_2  and  C_4
REMARK    3  A    between atoms: C_4  and  S_5
REMARK    4  A    between atoms: S_5  and  C_8
REMARK    5  A    between atoms: C_11  and  N_12
REMARK    6  A    between atoms: N_12  and  C_13
REMARK    7  A    between atoms: C_13  and  C_14
REMARK                            x       y       z     vdW  Elec       q    Type
REMARK                         _______ _______ _______ _____ _____    ______ ____
ROOT
ATOM      1  C   UNL     1       6.014   5.373  17.843  0.00  0.00    +0.000 A 
ATOM      2  C   UNL     1       6.976   5.205  18.837  0.00  0.00    +0.000 A 
ATOM      3  C   UNL     1       7.901   6.227  19.071  0.00  0.00    +0.000 A 
ATOM      4  C   UNL     1       7.909   7.403  18.305  0.00  0.00    +0.000 A 
ATOM      5  C   UNL     1       6.929   7.542  17.313  0.00  0.00    +0.000 A 
ATOM      6  C   UNL     1       5.993   6.531  17.067  0.00  0.00    +0.000 A 
ENDROOT
BRANCH   1   7
ATOM      7  S   UNL     1       4.767   4.137  17.599  0.00  0.00    +0.000 S 
ATOM      8  O   UNL     1       4.780   3.238  18.743  0.00  0.00    +0.000 OA
ATOM      9  O   UNL     1       4.932   3.622  16.255  0.00  0.00    +0.000 OA
BRANCH   7  10
ATOM     10  C   UNL     1       3.229   4.976  17.680  0.00  0.00    +0.000 C 
BRANCH  10  12
ATOM     11  O   UNL     1       1.175   4.211  18.606  0.00  0.00    +0.000 OA
ATOM     12  C   UNL     1       2.120   4.002  17.856  0.00  0.00    +0.000 C 
BRANCH  12  13
ATOM     13  O   UNL     1       2.180   2.893  17.085  0.00  0.00    +0.000 OA
ATOM     14  H   UNL     1       1.457   2.234  17.215  0.00  0.00    +0.000 HD
ENDBRANCH  12  13
ENDBRANCH  10  12
ENDBRANCH   7  10
ENDBRANCH   1   7
BRANCH   4  15
ATOM     15  N   UNL     1       8.786   8.427  18.661  0.00  0.00    +0.000 N 
ATOM     16  H   UNL     1       9.764   8.175  18.535  0.00  0.00    +0.000 HD
BRANCH  15  17
ATOM     17  C   UNL     1       8.526   9.795  18.225  0.00  0.00    +0.000 C 
BRANCH  17  18
ATOM     18  C   UNL     1       9.585  10.710  18.797  0.00  0.00    +0.000 A 
ATOM     19  C   UNL     1      10.568  11.282  17.978  0.00  0.00    +0.000 A 
ATOM     20  C   UNL     1      11.539  12.125  18.524  0.00  0.00    +0.000 A 
ATOM     21  C   UNL     1      11.537  12.405  19.889  0.00  0.00    +0.000 A 
ATOM     22  C   UNL     1      10.561  11.847  20.713  0.00  0.00    +0.000 A 
ATOM     23  C   UNL     1       9.590  11.005  20.171  0.00  0.00    +0.000 A 
ENDBRANCH  17  18
ENDBRANCH  15  17
ENDBRANCH   4  15
TORSDOF 7
ENDMDL
MODEL 3
REMARK VINA RESULT:      -7.2      0.386      1.122
REMARK  Name = 
REMARK  7 active torsions:
REMARK  status: ('A' for Active; 'I' for Inactive)
REMARK    1  A    between atoms: C_2  and  O_3
REMARK    2  A    between atoms: C_2  and  C_4
REMARK    3  A    between atoms: C_4  and  S_5
REMARK    4  A    between atoms: S_5  and  C_8
REMARK    5  A    between atoms: C_11  and  N_12
REMARK    6  A    between atoms: N_12  and  C_13
REMARK    7  A    between atoms: C_13  and  C_14
REMARK                            x       y       z     vdW  Elec       q    Type
REMARK                         _______ _______ _______ _____ _____    ______ ____
ROOT
ATOM      1  C   UNL     1       5.665   5.407  18.589  0.00  0.00    +0.000 A 
ATOM      2  C   UNL     1       6.892   5.420  19.248  0.00  0.00    +0.000 A 
ATOM      3  C   UNL     1       7.829   6.407  18.928  0.00  0.00    +0.000 A 
ATOM      4  C   UNL     1       7.580   7.364  17.931  0.00  0.00    +0.000 A 
ATOM      5  C   UNL     1       6.337   7.324  17.285  0.00  0.00    +0.000 A 
ATOM      6  C   UNL     1       5.386   6.346  17.596  0.00  0.00    +0.000 A 
ENDROOT
BRANCH   1   7
ATOM      7  S   UNL     1       4.422   4.231  19.051  0.00  0.00    +0.000 S 
ATOM      8  O   UNL     1       3.449   4.901  19.900  0.00  0.00    +0.000 OA
ATOM      9  O   UNL     1       5.108   3.042  19.513  0.00  0.00    +0.000 OA
BRANCH   7  10
ATOM     10  C   UNL     1       3.560   3.831  17.577  0.00  0.00    +0.000 C 
BRANCH  10  12
ATOM     11  O   UNL     1       1.196   3.969  17.346  0.00  0.00    +0.000 OA
ATOM     12  C   UNL     1       2.159   3.444  17.890  0.00  0.00    +0.000 C 
BRANCH  12  13
ATOM     13  O   UNL     1       2.009   2.424  18.765  0.00  0.00    +0.000 OA
ATOM     14  H   UNL     1       1.150   2.391  19.250  0.00  0.00    +0.000 HD
ENDBRANCH  12  13
ENDBRANCH  10  12
ENDBRANCH   7  10
ENDBRANCH   1   7
BRANCH   4  15
ATOM     15  N   UNL     1       8.510   8.385  17.737  0.00  0.00    +0.000 N 
ATOM     16  H   UNL     1       9.092   8.242  16.915  0.00  0.00    +0.000 HD
BRANCH  15  17
ATOM     17  C   UNL     1       8.099   9.779  17.866  0.00  0.00    +0.000 C 
BRANCH  17  18
ATOM     18  C   UNL     1       9.211  10.567  18.520  0.00  0.00    +0.000 A 
ATOM     19  C   UNL     1      10.209  11.185  17.753  0.00  0.00    +0.000 A 
ATOM     20  C   UNL     1      11.229  11.910  18.374  0.00  0.00    +0.000 A 
ATOM     21  C   UNL     1      11.262  12.025  19.762  0.00  0.00    +0.000 A 
ATOM     22  C   UNL     1      10.274  11.419  20.535  0.00  0.00    +0.000 A 
ATOM     23  C   UNL     1       9.253  10.696  19.918  0.00  0.00    +0.000 A 
ENDBRANCH  17  18
ENDBRANCH  15  17
ENDBRANCH   4  15
TORSDOF 7
ENDMDL
MODEL 4
REMARK VINA RESULT:      -7.1      1.183      1.791
REMARK  Name = 
REMARK  7 active torsions:
REMARK  status: ('A' for Active; 'I' for Inactive)
REMARK    1  A    between atoms: C_2  and  O_3
REMARK    2  A    between atoms: C_2  and  C_4
REMARK    3  A    between atoms: C_4  and  S_5
REMARK    4  A    between atoms: S_5  and  C_8
REMARK    5  A    between atoms: C_11  and  N_12
REMARK    6  A    between atoms: N_12  and  C_13
REMARK    7  A    between atoms: C_13  and  C_14
REMARK                            x       y       z     vdW  Elec       q    Type
REMARK                         _______ _______ _______ _____ _____    ______ ____
ROOT
ATOM      1  C   UNL     1       5.787   5.373  17.866  0.00  0.00    +0.000 A 
ATOM      2  C   UNL     1       6.793   5.162  18.806  0.00  0.00    +0.000 A 
ATOM      3  C   UNL     1       7.761   6.151  19.005  0.00  0.00    +0.000 A 
ATOM      4  C   UNL     1       7.768   7.337  18.253  0.00  0.00    +0.000 A 
ATOM      5  C   UNL     1       6.744   7.520  17.315  0.00  0.00    +0.000 A 
ATOM      6  C   UNL     1       5.765   6.542  17.106  0.00  0.00    +0.000 A 
ENDROOT
BRANCH   1   7
ATOM      7  S   UNL     1       4.490   4.181  17.671  0.00  0.00    +0.000 S 
ATOM      8  O   UNL     1       4.864   3.266  16.603  0.00  0.00    +0.000 OA
ATOM      9  O   UNL     1       3.241   4.913  17.611  0.00  0.00    +0.000 OA
BRANCH   7  10
ATOM     10  C   UNL     1       4.492   3.217  19.136  0.00  0.00    +0.000 C 
BRANCH  10  12
ATOM     11  O   UNL     1       2.403   2.489  20.013  0.00  0.00    +0.000 OA
ATOM     12  C   UNL     1       3.289   2.345  19.180  0.00  0.00    +0.000 C 
BRANCH  12  13
ATOM     13  O   UNL     1       3.194   1.420  18.199  0.00  0.00    +0.000 OA
ATOM     14  H   UNL     1       2.368   0.879  18.191  0.00  0.00    +0.000 HD
ENDBRANCH  12  13
ENDBRANCH  10  12
ENDBRANCH   7  10
ENDBRANCH   1   7
BRANCH   4  15
ATOM     15  N   UNL     1       8.695   8.327  18.576  0.00  0.00    +0.000 N 
ATOM     16  H   UNL     1       9.658   8.039  18.416  0.00  0.00    +0.000 HD
BRANCH  15  17
ATOM     17  C   UNL     1       8.471   9.703  18.147  0.00  0.00    +0.000 C 
BRANCH  17  18
ATOM     18  C   UNL     1       9.505  10.600  18.788  0.00  0.00    +0.000 A 
ATOM     19  C   UNL     1      10.534  11.177  18.030  0.00  0.00    +0.000 A 
ATOM     20  C   UNL     1      11.482  12.002  18.638  0.00  0.00    +0.000 A 
ATOM     21  C   UNL     1      11.412  12.261  20.005  0.00  0.00    +0.000 A 
ATOM     22  C   UNL     1      10.391  11.698  20.769  0.00  0.00    +0.000 A 
ATOM     23  C   UNL     1       9.442  10.873  20.164  0.00  0.00    +0.000 A 
ENDBRANCH  17  18
ENDBRANCH  15  17
ENDBRANCH   4  15
TORSDOF 7
ENDMDL
MODEL 5
REMARK VINA RESULT:      -7.1      5.308      7.752
REMARK  Name = 
REMARK  7 active torsions:
REMARK  status: ('A' for Active; 'I' for Inactive)
REMARK    1  A    between atoms: C_2  and  O_3
REMARK    2  A    between atoms: C_2  and  C_4
REMARK    3  A    between atoms: C_4  and  S_5
REMARK    4  A    between atoms: S_5  and  C_8
REMARK    5  A    between atoms: C_11  and  N_12
REMARK    6  A    between atoms: N_12  and  C_13
REMARK    7  A    between atoms: C_13  and  C_14
REMARK                            x       y       z     vdW  Elec       q    Type
REMARK                         _______ _______ _______ _____ _____    ______ ____
ROOT
ATOM      1  C   UNL     1       5.770   5.282  17.442  0.00  0.00    +0.000 A 
ATOM      2  C   UNL     1       4.816   6.211  17.031  0.00  0.00    +0.000 A 
ATOM      3  C   UNL     1       3.834   6.628  17.935  0.00  0.00    +0.000 A 
ATOM      4  C   UNL     1       3.763   6.106  19.236  0.00  0.00    +0.000 A 
ATOM      5  C   UNL     1       4.735   5.173  19.620  0.00  0.00    +0.000 A 
ATOM      6  C   UNL     1       5.727   4.747  18.729  0.00  0.00    +0.000 A 
ENDROOT
BRANCH   1   7
ATOM      7  S   UNL     1       7.085   4.818  16.348  0.00  0.00    +0.000 S 
ATOM      8  O   UNL     1       8.126   4.169  17.130  0.00  0.00    +0.000 OA
ATOM      9  O   UNL     1       7.390   5.975  15.530  0.00  0.00    +0.000 OA
BRANCH   7  10
ATOM     10  C   UNL     1       6.433   3.567  15.307  0.00  0.00    +0.000 C 
BRANCH  10  12
ATOM     11  O   UNL     1       4.968   4.247  13.560  0.00  0.00    +0.000 OA
ATOM     12  C   UNL     1       6.116   4.125  13.966  0.00  0.00    +0.000 C 
BRANCH  12  13
ATOM     13  O   UNL     1       7.173   4.556  13.242  0.00  0.00    +0.000 OA
ATOM     14  H   UNL     1       7.997   4.749  13.749  0.00  0.00    +0.000 HD
ENDBRANCH  12  13
ENDBRANCH  10  12
ENDBRANCH   7  10
ENDBRANCH   1   7
BRANCH   4  15
ATOM     15  N   UNL     1       2.828   6.644  20.121  0.00  0.00    +0.000 N 
ATOM     16  H   UNL     1       2.849   7.660  20.153  0.00  0.00    +0.000 HD
BRANCH  15  17
ATOM     17  C   UNL     1       1.460   6.137  20.132  0.00  0.00    +0.000 C 
BRANCH  17  18
ATOM     18  C   UNL     1       1.484   4.636  19.954  0.00  0.00    +0.000 A 
ATOM     19  C   UNL     1       1.352   4.054  18.685  0.00  0.00    +0.000 A 
ATOM     20  C   UNL     1       1.376   2.666  18.538  0.00  0.00    +0.000 A 
ATOM     21  C   UNL     1       1.533   1.846  19.653  0.00  0.00    +0.000 A 
ATOM     22  C   UNL     1       1.671   2.411  20.920  0.00  0.00    +0.000 A 
ATOM     23  C   UNL     1       1.648   3.798  21.069  0.00  0.00    +0.000 A 
ENDBRANCH  17  18
ENDBRANCH  15  17
ENDBRANCH   4  15
TORSDOF 7
ENDMDL
MODEL 6
REMARK VINA RESULT:      -7.1      5.264      7.917
REMARK  Name = 
REMARK  7 active torsions:
REMARK  status: ('A' for Active; 'I' for Inactive)
REMARK    1  A    between atoms: C_2  and  O_3
REMARK    2  A    between atoms: C_2  and  C_4
REMARK    3  A    between atoms: C_4  and  S_5
REMARK    4  A    between atoms: S_5  and  C_8
REMARK    5  A    between atoms: C_11  and  N_12
REMARK    6  A    between atoms: N_12  and  C_13
REMARK    7  A    between atoms: C_13  and  C_14
REMARK                            x       y       z     vdW  Elec       q    Type
REMARK                         _______ _______ _______ _____ _____    ______ ____
ROOT
ATOM      1  C   UNL     1       5.471   5.735  17.518  0.00  0.00    +0.000 A 
ATOM      2  C   UNL     1       4.449   6.638  17.236  0.00  0.00    +0.000 A 
ATOM      3  C   UNL     1       3.468   6.884  18.202  0.00  0.00    +0.000 A 
ATOM      4  C   UNL     1       3.467   6.215  19.437  0.00  0.00    +0.000 A 
ATOM      5  C   UNL     1       4.508   5.313  19.691  0.00  0.00    +0.000 A 
ATOM      6  C   UNL     1       5.499   5.057  18.737  0.00  0.00    +0.000 A 
ENDROOT
BRANCH   1   7
ATOM      7  S   UNL     1       6.781   5.485  16.351  0.00  0.00    +0.000 S 
ATOM      8  O   UNL     1       7.448   4.231  16.669  0.00  0.00    +0.000 OA
ATOM      9  O   UNL     1       7.532   6.722  16.279  0.00  0.00    +0.000 OA
BRANCH   7  10
ATOM     10  C   UNL     1       6.007   5.222  14.800  0.00  0.00    +0.000 C 
BRANCH  10  12
ATOM     11  O   UNL     1       6.786   3.998  12.914  0.00  0.00    +0.000 OA
ATOM     12  C   UNL     1       7.016   4.832  13.780  0.00  0.00    +0.000 C 
BRANCH  12  13
ATOM     13  O   UNL     1       8.188   5.504  13.822  0.00  0.00    +0.000 OA
ATOM     14  H   UNL     1       8.263   6.285  13.223  0.00  0.00    +0.000 HD
ENDBRANCH  12  13
ENDBRANCH  10  12
ENDBRANCH   7  10
ENDBRANCH   1   7
BRANCH   4  15
ATOM     15  N   UNL     1       2.526   6.587  20.397  0.00  0.00    +0.000 N 
ATOM     16  H   UNL     1       2.454   7.595  20.515  0.00  0.00    +0.000 HD
BRANCH  15  17
ATOM     17  C   UNL     1       1.212   5.953  20.411  0.00  0.00    +0.000 C 
BRANCH  17  18
ATOM     18  C   UNL     1       1.369   4.475  20.136  0.00  0.00    +0.000 A 
ATOM     19  C   UNL     1       1.695   3.577  21.162  0.00  0.00    +0.000 A 
ATOM     20  C   UNL     1       1.837   2.215  20.890  0.00  0.00    +0.000 A 
ATOM     21  C   UNL     1       1.655   1.736  19.594  0.00  0.00    +0.000 A 
ATOM     22  C   UNL     1       1.327   2.617  18.566  0.00  0.00    +0.000 A 
ATOM     23  C   UNL     1       1.183   3.979  18.835  0.00  0.00    +0.000 A 
ENDBRANCH  17  18
ENDBRANCH  15  17
ENDBRANCH   4  15
TORSDOF 7
ENDMDL
MODEL 7
REMARK VINA RESULT:      -7.1      5.364      7.809
REMARK  Name = 
REMARK  7 active torsions:
REMARK  status: ('A' for Active; 'I' for Inactive)
REMARK    1  A    between atoms: C_2  and  O_3
REMARK    2  A    between atoms: C_2  and  C_4
REMARK    3  A    between atoms: C_4  and  S_5
REMARK    4  A    between atoms: S_5  and  C_8
REMARK    5  A    between atoms: C_11  and  N_12
REMARK    6  A    between atoms: N_12  and  C_13
REMARK    7  A    between atoms: C_13  and  C_14
REMARK                            x       y       z     vdW  Elec       q    Type
REMARK                         _______ _______ _______ _____ _____    ______ ____
ROOT
ATOM      1  C   UNL     1       4.917   6.314  17.609  0.00  0.00    +0.000 A 
ATOM      2  C   UNL     1       5.222   5.527  18.718  0.00  0.00    +0.000 A 
ATOM      3  C   UNL     1       4.273   5.382  19.734  0.00  0.00    +0.000 A 
ATOM      4  C   UNL     1       3.033   6.038  19.683  0.00  0.00    +0.000 A 
ATOM      5  C   UNL     1       2.756   6.822  18.555  0.00  0.00    +0.000 A 
ATOM      6  C   UNL     1       3.693   6.976  17.528  0.00  0.00    +0.000 A 
ENDROOT
BRANCH   1   7
ATOM      7  S   UNL     1       6.062   6.429  16.261  0.00  0.00    +0.000 S 
ATOM      8  O   UNL     1       7.256   7.117  16.730  0.00  0.00    +0.000 OA
ATOM      9  O   UNL     1       5.327   6.925  15.116  0.00  0.00    +0.000 OA
BRANCH   7  10
ATOM     10  C   UNL     1       6.574   4.788  15.916  0.00  0.00    +0.000 C 
BRANCH  10  12
ATOM     11  O   UNL     1       6.465   3.828  13.742  0.00  0.00    +0.000 OA
ATOM     12  C   UNL     1       6.965   4.660  14.488  0.00  0.00    +0.000 C 
BRANCH  12  13
ATOM     13  O   UNL     1       7.863   5.565  14.038  0.00  0.00    +0.000 OA
ATOM     14  H   UNL     1       8.814   5.331  14.160  0.00  0.00    +0.000 HD
ENDBRANCH  12  13
ENDBRANCH  10  12
ENDBRANCH   7  10
ENDBRANCH   1   7
BRANCH   4  15
ATOM     15  N   UNL     1       2.090   5.763  20.674  0.00  0.00    +0.000 N 
ATOM     16  H   UNL     1       1.576   6.588  20.973  0.00  0.00    +0.000 HD
BRANCH  15  17
ATOM     17  C   UNL     1       1.214   4.604  20.544  0.00  0.00    +0.000 C 
BRANCH  17  18
ATOM     18  C   UNL     1       1.906   3.549  19.712  0.00  0.00    +0.000 A 
ATOM     19  C   UNL     1       1.641   3.419  18.341  0.00  0.00    +0.000 A 
ATOM     20  C   UNL     1       2.289   2.438  17.586  0.00  0.00    +0.000 A 
ATOM     21  C   UNL     1       3.205   1.580  18.191  0.00  0.00    +0.000 A 
ATOM     22  C   UNL     1       3.481   1.702  19.552  0.00  0.00    +0.000 A 
ATOM     23  C   UNL     1       2.836   2.681  20.308  0.00  0.00    +0.000 A 
ENDBRANCH  17  18
ENDBRANCH  15  17
ENDBRANCH   4  15
TORSDOF 7
ENDMDL
MODEL 8
REMARK VINA RESULT:      -7.1      1.109      1.292
REMARK  Name = 
REMARK  7 active torsions:
REMARK  status: ('A' for Active; 'I' for Inactive)
REMARK    1  A    between atoms: C_2  and  O_3
REMARK    2  A    between atoms: C_2  and  C_4
REMARK    3  A    between atoms: C_4  and  S_5
REMARK    4  A    between atoms: S_5  and  C_8
REMARK    5  A    between atoms: C_11  and  N_12
REMARK    6  A    between atoms: N_12  and  C_13
REMARK    7  A    between atoms: C_13  and  C_14
REMARK                            x       y       z     vdW  Elec       q    Type
REMARK                         _______ _______ _______ _____ _____    ______ ____
ROOT
ATOM      1  C   UNL     1       5.860   5.409  17.838  0.00  0.00    +0.000 A 
ATOM      2  C   UNL     1       6.827   5.215  18.822  0.00  0.00    +0.000 A 
ATOM      3  C   UNL     1       7.790   6.205  19.038  0.00  0.00    +0.000 A 
ATOM      4  C   UNL     1       7.829   7.375  18.263  0.00  0.00    +0.000 A 
ATOM      5  C   UNL     1       6.844   7.541  17.281  0.00  0.00    +0.000 A 
ATOM      6  C   UNL     1       5.871   6.562  17.054  0.00  0.00    +0.000 A 
ENDROOT
BRANCH   1   7
ATOM      7  S   UNL     1       4.568   4.216  17.617  0.00  0.00    +0.000 S 
ATOM      8  O   UNL     1       4.613   3.278  18.728  0.00  0.00    +0.000 OA
ATOM      9  O   UNL     1       4.650   3.744  16.249  0.00  0.00    +0.000 OA
BRANCH   7  10
ATOM     10  C   UNL     1       3.060   5.092  17.805  0.00  0.00    +0.000 C 
BRANCH  10  12
ATOM     11  O   UNL     1       1.224   3.617  17.463  0.00  0.00    +0.000 OA
ATOM     12  C   UNL     1       1.982   4.170  18.250  0.00  0.00    +0.000 C 
BRANCH  12  13
ATOM     13  O   UNL     1       1.926   3.924  19.578  0.00  0.00    +0.000 OA
ATOM     14  H   UNL     1       1.713   4.696  20.155  0.00  0.00    +0.000 HD
ENDBRANCH  12  13
ENDBRANCH  10  12
ENDBRANCH   7  10
ENDBRANCH   1   7
BRANCH   4  15
ATOM     15  N   UNL     1       8.747   8.370  18.603  0.00  0.00    +0.000 N 
ATOM     16  H   UNL     1       9.712   8.096  18.435  0.00  0.00    +0.000 HD
BRANCH  15  17
ATOM     17  C   UNL     1       8.506   9.751  18.199  0.00  0.00    +0.000 C 
BRANCH  17  18
ATOM     18  C   UNL     1       9.554  10.643  18.824  0.00  0.00    +0.000 A 
ATOM     19  C   UNL     1       9.526  10.944  20.193  0.00  0.00    +0.000 A 
ATOM     20  C   UNL     1      10.503  11.770  20.754  0.00  0.00    +0.000 A 
ATOM     21  C   UNL     1      11.515  12.300  19.957  0.00  0.00    +0.000 A 
ATOM     22  C   UNL     1      11.557  12.005  18.596  0.00  0.00    +0.000 A 
ATOM     23  C   UNL     1      10.583  11.179  18.032  0.00  0.00    +0.000 A 
ENDBRANCH  17  18
ENDBRANCH  15  17
ENDBRANCH   4  15
TORSDOF 7
ENDMDL
MODEL 9
REMARK VINA RESULT:      -7.1      5.497      7.426
REMARK  Name = 
REMARK  7 active torsions:
REMARK  status: ('A' for Active; 'I' for Inactive)
REMARK    1  A    between atoms: C_2  and  O_3
REMARK    2  A    between atoms: C_2  and  C_4
REMARK    3  A    between atoms: C_4  and  S_5
REMARK    4  A    between atoms: S_5  and  C_8
REMARK    5  A    between atoms: C_11  and  N_12
REMARK    6  A    between atoms: N_12  and  C_13
REMARK    7  A    between atoms: C_13  and  C_14
REMARK                            x       y       z     vdW  Elec       q    Type
REMARK                         _______ _______ _______ _____ _____    ______ ____
ROOT
ATOM      1  C   UNL     1       4.301   6.243  17.510  0.00  0.00    +0.000 A 
ATOM      2  C   UNL     1       3.782   7.502  17.220  0.00  0.00    +0.000 A 
ATOM      3  C   UNL     1       2.848   8.073  18.089  0.00  0.00    +0.000 A 
ATOM      4  C   UNL     1       2.392   7.394  19.230  0.00  0.00    +0.000 A 
ATOM      5  C   UNL     1       2.933   6.129  19.495  0.00  0.00    +0.000 A 
ATOM      6  C   UNL     1       3.871   5.544  18.638  0.00  0.00    +0.000 A 
ENDROOT
BRANCH   1   7
ATOM      7  S   UNL     1       5.563   5.544  16.480  0.00  0.00    +0.000 S 
ATOM      8  O   UNL     1       5.472   6.156  15.163  0.00  0.00    +0.000 OA
ATOM      9  O   UNL     1       5.490   4.105  16.630  0.00  0.00    +0.000 OA
BRANCH   7  10
ATOM     10  C   UNL     1       7.091   6.089  17.145  0.00  0.00    +0.000 C 
BRANCH  10  12
ATOM     11  O   UNL     1       7.349   5.240  19.353  0.00  0.00    +0.000 OA
ATOM     12  C   UNL     1       7.587   5.121  18.158  0.00  0.00    +0.000 C 
BRANCH  12  13
ATOM     13  O   UNL     1       8.264   4.055  17.674  0.00  0.00    +0.000 OA
ATOM     14  H   UNL     1       7.813   3.181  17.754  0.00  0.00    +0.000 HD
ENDBRANCH  12  13
ENDBRANCH  10  12
ENDBRANCH   7  10
ENDBRANCH   1   7
BRANCH   4  15
ATOM     15  N   UNL     1       1.544   8.064  20.112  0.00  0.00    +0.000 N 
ATOM     16  H   UNL     1       1.906   8.099  21.062  0.00  0.00    +0.000 HD
BRANCH  15  17
ATOM     17  C   UNL     1       0.943   9.334  19.721  0.00  0.00    +0.000 C 
BRANCH  17  18
ATOM     18  C   UNL     1       0.226   9.932  20.910  0.00  0.00    +0.000 A 
ATOM     19  C   UNL     1      -0.191  11.271  20.906  0.00  0.00    +0.000 A 
ATOM     20  C   UNL     1      -0.852  11.807  22.013  0.00  0.00    +0.000 A 
ATOM     21  C   UNL     1      -1.104  11.015  23.131  0.00  0.00    +0.000 A 
ATOM     22  C   UNL     1      -0.699   9.682  23.145  0.00  0.00    +0.000 A 
ATOM     23  C   UNL     1      -0.039   9.142  22.041  0.00  0.00    +0.000 A 
ENDBRANCH  17  18
ENDBRANCH  15  17
ENDBRANCH   4  15
TORSDOF 7
ENDMDL
