MODEL 1
REMARK VINA RESULT:      -7.3      0.000      0.000
REMARK  Name = 
REMARK  11 active torsions:
REMARK  status: ('A' for Active; 'I' for Inactive)
REMARK    1  A    between atoms: C_1  and  C_2
REMARK    2  A    between atoms: C_2  and  C_3
REMARK    3  A    between atoms: C_3  and  C_4
REMARK    4  A    between atoms: C_3  and  C_18
REMARK    5  A    between atoms: C_4  and  C_5
REMARK    6  A    between atoms: C_5  and  C_6
REMARK    7  A    between atoms: C_6  and  C_7
REMARK    8  A    between atoms: C_7  and  C_8
REMARK    9  A    between atoms: C_8  and  C_9
REMARK   10  A    between atoms: N_11  and  C_12
REMARK   11  A    between atoms: N_20  and  O_21
REMARK                            x       y       z     vdW  Elec       q    Type
REMARK                         _______ _______ _______ _____ _____    ______ ____
ROOT
ATOM      1  C   UNL     1       8.198   8.686  17.908  0.00  0.00    +0.000 C 
ENDROOT
BRANCH   1   2
ATOM      2  C   UNL     1       9.028   9.464  18.929  0.00  0.00    +0.000 C 
BRANCH   2   3
ATOM      3  C   UNL     1       9.075  10.965  18.656  0.00  0.00    +0.000 C 
BRANCH   3   4
ATOM      4  C   UNL     1      10.432  11.414  18.067  0.00  0.00    +0.000 C 
BRANCH   4   5
ATOM      5  C   UNL     1      10.348  12.803  17.417  0.00  0.00    +0.000 C 
ATOM      6  O   UNL     1       9.437  13.604  17.623  0.00  0.00    +0.000 OA
ATOM      7  N   UNL     1      11.384  13.126  16.573  0.00  0.00    +0.000 N 
ATOM      8  H   UNL     1      12.023  12.454  16.166  0.00  0.00    +0.000 HD
BRANCH   7   9
ATOM      9  O   UNL     1      11.236  14.354  15.883  0.00  0.00    +0.000 OA
ATOM     10  H   UNL     1      10.677  14.095  15.116  0.00  0.00    +0.000 HD
ENDBRANCH   7   9
ENDBRANCH   4   5
BRANCH   4  12
ATOM     11  C   UNL     1      11.279  12.126  20.396  0.00  0.00    +0.000 C 
ATOM     12  C   UNL     1      11.588  11.411  19.090  0.00  0.00    +0.000 C 
ENDBRANCH   4  12
ENDBRANCH   3   4
ENDBRANCH   2   3
ENDBRANCH   1   2
BRANCH   1  13
ATOM     13  C   UNL     1       7.993   7.232  18.347  0.00  0.00    +0.000 C 
BRANCH  13  14
ATOM     14  C   UNL     1       7.081   6.452  17.402  0.00  0.00    +0.000 C 
BRANCH  14  15
ATOM     15  C   UNL     1       6.084   5.627  18.175  0.00  0.00    +0.000 C 
ATOM     16  O   UNL     1       6.474   4.805  18.997  0.00  0.00    +0.000 OA
ATOM     17  N   UNL     1       4.776   5.873  17.810  0.00  0.00    +0.000 N 
ATOM     18  H   UNL     1       4.623   6.456  16.998  0.00  0.00    +0.000 HD
BRANCH  17  19
ATOM     19  C   UNL     1       3.632   5.307  18.406  0.00  0.00    +0.000 A 
ATOM     20  C   UNL     1       3.166   5.680  19.670  0.00  0.00    +0.000 A 
ATOM     21  C   UNL     1       2.035   5.073  20.219  0.00  0.00    +0.000 A 
ATOM     22  C   UNL     1       1.364   4.085  19.505  0.00  0.00    +0.000 A 
ATOM     23  C   UNL     1       1.807   3.720  18.234  0.00  0.00    +0.000 A 
ATOM     24  C   UNL     1       2.933   4.336  17.683  0.00  0.00    +0.000 A 
ENDBRANCH  17  19
ENDBRANCH  14  15
ENDBRANCH  13  14
ENDBRANCH   1  13
TORSDOF 10
ENDMDL
MODEL 2
REMARK VINA RESULT:      -7.2      5.947      8.645
REMARK  Name = 
REMARK  11 active torsions:
REMARK  status: ('A' for Active; 'I' for Inactive)
REMARK    1  A    between atoms: C_1  and  C_2
REMARK    2  A    between atoms: C_2  and  C_3
REMARK    3  A    between atoms: C_3  and  C_4
REMARK    4  A    between atoms: C_3  and  C_18
REMARK    5  A    between atoms: C_4  and  C_5
REMARK    6  A    between atoms: C_5  and  C_6
REMARK    7  A    between atoms: C_6  and  C_7
REMARK    8  A    between atoms: C_7  and  C_8
REMARK    9  A    between atoms: C_8  and  C_9
REMARK   10  A    between atoms: N_11  and  C_12
REMARK   11  A    between atoms: N_20  and  O_21
REMARK                            x       y       z     vdW  Elec       q    Type
REMARK                         _______ _______ _______ _____ _____    ______ ____
ROOT
ATOM      1  C   UNL     1       7.119   4.976  14.580  0.00  0.00    +0.000 C 
ENDROOT
BRANCH   1   2
ATOM      2  C   UNL     1       5.730   4.889  13.948  0.00  0.00    +0.000 C 
BRANCH   2   3
ATOM      3  C   UNL     1       5.342   3.474  13.527  0.00  0.00    +0.000 C 
BRANCH   3   4
ATOM      4  C   UNL     1       5.384   3.284  11.994  0.00  0.00    +0.000 C 
BRANCH   4   5
ATOM      5  C   UNL     1       6.349   2.163  11.578  0.00  0.00    +0.000 C 
ATOM      6  O   UNL     1       7.524   2.348  11.265  0.00  0.00    +0.000 OA
ATOM      7  N   UNL     1       5.820   0.893  11.586  0.00  0.00    +0.000 N 
ATOM      8  H   UNL     1       4.829   0.685  11.589  0.00  0.00    +0.000 HD
BRANCH   7   9
ATOM      9  O   UNL     1       6.676  -0.116  11.083  0.00  0.00    +0.000 OA
ATOM     10  H   UNL     1       6.439  -0.889  11.644  0.00  0.00    +0.000 HD
ENDBRANCH   7   9
ENDBRANCH   4   5
BRANCH   4  12
ATOM     11  C   UNL     1       3.554   4.059  10.351  0.00  0.00    +0.000 C 
ATOM     12  C   UNL     1       4.003   3.014  11.360  0.00  0.00    +0.000 C 
ENDBRANCH   4  12
ENDBRANCH   3   4
ENDBRANCH   2   3
ENDBRANCH   1   2
BRANCH   1  13
ATOM     13  C   UNL     1       7.051   5.538  16.004  0.00  0.00    +0.000 C 
BRANCH  13  14
ATOM     14  C   UNL     1       7.308   4.476  17.071  0.00  0.00    +0.000 C 
BRANCH  14  15
ATOM     15  C   UNL     1       6.071   4.232  17.898  0.00  0.00    +0.000 C 
ATOM     16  O   UNL     1       6.050   4.553  19.081  0.00  0.00    +0.000 OA
ATOM     17  N   UNL     1       5.066   3.595  17.197  0.00  0.00    +0.000 N 
ATOM     18  H   UNL     1       5.293   3.243  16.277  0.00  0.00    +0.000 HD
BRANCH  17  19
ATOM     19  C   UNL     1       3.777   3.304  17.684  0.00  0.00    +0.000 A 
ATOM     20  C   UNL     1       3.452   2.102  18.319  0.00  0.00    +0.000 A 
ATOM     21  C   UNL     1       2.152   1.862  18.767  0.00  0.00    +0.000 A 
ATOM     22  C   UNL     1       1.166   2.826  18.578  0.00  0.00    +0.000 A 
ATOM     23  C   UNL     1       1.482   4.038  17.965  0.00  0.00    +0.000 A 
ATOM     24  C   UNL     1       2.786   4.280  17.527  0.00  0.00    +0.000 A 
ENDBRANCH  17  19
ENDBRANCH  14  15
ENDBRANCH  13  14
ENDBRANCH   1  13
TORSDOF 10
ENDMDL
MODEL 3
REMARK VINA RESULT:      -7.2      1.211      1.443
REMARK  Name = 
REMARK  11 active torsions:
REMARK  status: ('A' for Active; 'I' for Inactive)
REMARK    1  A    between atoms: C_1  and  C_2
REMARK    2  A    between atoms: C_2  and  C_3
REMARK    3  A    between atoms: C_3  and  C_4
REMARK    4  A    between atoms: C_3  and  C_18
REMARK    5  A    between atoms: C_4  and  C_5
REMARK    6  A    between atoms: C_5  and  C_6
REMARK    7  A    between atoms: C_6  and  C_7
REMARK    8  A    between atoms: C_7  and  C_8
REMARK    9  A    between atoms: C_8  and  C_9
REMARK   10  A    between atoms: N_11  and  C_12
REMARK   11  A    between atoms: N_20  and  O_21
REMARK                            x       y       z     vdW  Elec       q    Type
REMARK                         _______ _______ _______ _____ _____    ______ ____
ROOT
ATOM      1  C   UNL     1       7.736   9.076  17.900  0.00  0.00    +0.000 C 
ENDROOT
BRANCH   1   2
ATOM      2  C   UNL     1       9.082   9.479  18.501  0.00  0.00    +0.000 C 
BRANCH   2   3
ATOM      3  C   UNL     1       9.248  10.987  18.665  0.00  0.00    +0.000 C 
BRANCH   3   4
ATOM      4  C   UNL     1      10.639  11.369  19.221  0.00  0.00    +0.000 C 
BRANCH   4   5
ATOM      5  C   UNL     1      11.318  12.457  18.377  0.00  0.00    +0.000 C 
ATOM      6  O   UNL     1      11.435  13.630  18.731  0.00  0.00    +0.000 OA
ATOM      7  N   UNL     1      11.822  12.041  17.167  0.00  0.00    +0.000 N 
ATOM      8  H   UNL     1      11.559  11.181  16.702  0.00  0.00    +0.000 HD
BRANCH   7   9
ATOM      9  O   UNL     1      12.333  13.072  16.342  0.00  0.00    +0.000 OA
ATOM     10  H   UNL     1      12.767  13.666  16.996  0.00  0.00    +0.000 HD
ENDBRANCH   7   9
ENDBRANCH   4   5
BRANCH   4  12
ATOM     11  C   UNL     1       9.248  12.230  21.214  0.00  0.00    +0.000 C 
ATOM     12  C   UNL     1      10.618  11.823  20.696  0.00  0.00    +0.000 C 
ENDBRANCH   4  12
ENDBRANCH   3   4
ENDBRANCH   2   3
ENDBRANCH   1   2
BRANCH   1  13
ATOM     13  C   UNL     1       7.736   7.608  17.462  0.00  0.00    +0.000 C 
BRANCH  13  14
ATOM     14  C   UNL     1       7.924   6.642  18.631  0.00  0.00    +0.000 C 
BRANCH  14  15
ATOM     15  C   UNL     1       6.732   5.729  18.772  0.00  0.00    +0.000 C 
ATOM     16  O   UNL     1       6.754   4.814  19.587  0.00  0.00    +0.000 OA
ATOM     17  N   UNL     1       5.718   6.018  17.882  0.00  0.00    +0.000 N 
ATOM     18  H   UNL     1       5.915   6.696  17.157  0.00  0.00    +0.000 HD
BRANCH  17  19
ATOM     19  C   UNL     1       4.461   5.385  17.829  0.00  0.00    +0.000 A 
ATOM     20  C   UNL     1       3.294   5.957  18.344  0.00  0.00    +0.000 A 
ATOM     21  C   UNL     1       2.078   5.275  18.278  0.00  0.00    +0.000 A 
ATOM     22  C   UNL     1       2.023   4.012  17.697  0.00  0.00    +0.000 A 
ATOM     23  C   UNL     1       3.176   3.440  17.159  0.00  0.00    +0.000 A 
ATOM     24  C   UNL     1       4.390   4.129  17.218  0.00  0.00    +0.000 A 
ENDBRANCH  17  19
ENDBRANCH  14  15
ENDBRANCH  13  14
ENDBRANCH   1  13
TORSDOF 10
ENDMDL
MODEL 4
REMARK VINA RESULT:      -7.2      6.421      8.789
REMARK  Name = 
REMARK  11 active torsions:
REMARK  status: ('A' for Active; 'I' for Inactive)
REMARK    1  A    between atoms: C_1  and  C_2
REMARK    2  A    between atoms: C_2  and  C_3
REMARK    3  A    between atoms: C_3  and  C_4
REMARK    4  A    between atoms: C_3  and  C_18
REMARK    5  A    between atoms: C_4  and  C_5
REMARK    6  A    between atoms: C_5  and  C_6
REMARK    7  A    between atoms: C_6  and  C_7
REMARK    8  A    between atoms: C_7  and  C_8
REMARK    9  A    between atoms: C_8  and  C_9
REMARK   10  A    between atoms: N_11  and  C_12
REMARK   11  A    between atoms: N_20  and  O_21
REMARK                            x       y       z     vdW  Elec       q    Type
REMARK                         _______ _______ _______ _____ _____    ______ ____
ROOT
ATOM      1  C   UNL     1       7.033   4.733  14.924  0.00  0.00    +0.000 C 
ENDROOT
BRANCH   1   2
ATOM      2  C   UNL     1       6.148   4.195  13.799  0.00  0.00    +0.000 C 
BRANCH   2   3
ATOM      3  C   UNL     1       6.856   4.129  12.449  0.00  0.00    +0.000 C 
BRANCH   3   4
ATOM      4  C   UNL     1       6.068   3.296  11.412  0.00  0.00    +0.000 C 
BRANCH   4   5
ATOM      5  C   UNL     1       6.673   1.898  11.214  0.00  0.00    +0.000 C 
ATOM      6  O   UNL     1       7.822   1.695  10.824  0.00  0.00    +0.000 OA
ATOM      7  N   UNL     1       5.843   0.845  11.520  0.00  0.00    +0.000 N 
ATOM      8  H   UNL     1       4.837   0.914  11.606  0.00  0.00    +0.000 HD
BRANCH   7   9
ATOM      9  O   UNL     1       6.364  -0.436  11.217  0.00  0.00    +0.000 OA
ATOM     10  H   UNL     1       7.328  -0.256  11.137  0.00  0.00    +0.000 HD
ENDBRANCH   7   9
ENDBRANCH   4   5
BRANCH   4  12
ATOM     11  C   UNL     1       3.630   3.496  10.597  0.00  0.00    +0.000 C 
ATOM     12  C   UNL     1       4.567   3.148  11.742  0.00  0.00    +0.000 C 
ENDBRANCH   4  12
ENDBRANCH   3   4
ENDBRANCH   2   3
ENDBRANCH   1   2
BRANCH   1  13
ATOM     13  C   UNL     1       6.411   4.468  16.299  0.00  0.00    +0.000 C 
BRANCH  13  14
ATOM     14  C   UNL     1       4.903   4.715  16.323  0.00  0.00    +0.000 C 
BRANCH  14  15
ATOM     15  C   UNL     1       4.374   4.673  17.734  0.00  0.00    +0.000 C 
ATOM     16  O   UNL     1       4.768   5.488  18.561  0.00  0.00    +0.000 OA
ATOM     17  N   UNL     1       3.493   3.634  17.954  0.00  0.00    +0.000 N 
ATOM     18  H   UNL     1       3.396   2.945  17.220  0.00  0.00    +0.000 HD
BRANCH  17  19
ATOM     19  C   UNL     1       2.786   3.389  19.147  0.00  0.00    +0.000 A 
ATOM     20  C   UNL     1       1.439   3.722  19.320  0.00  0.00    +0.000 A 
ATOM     21  C   UNL     1       0.794   3.470  20.532  0.00  0.00    +0.000 A 
ATOM     22  C   UNL     1       1.495   2.885  21.581  0.00  0.00    +0.000 A 
ATOM     23  C   UNL     1       2.833   2.528  21.414  0.00  0.00    +0.000 A 
ATOM     24  C   UNL     1       3.474   2.772  20.197  0.00  0.00    +0.000 A 
ENDBRANCH  17  19
ENDBRANCH  14  15
ENDBRANCH  13  14
ENDBRANCH   1  13
TORSDOF 10
ENDMDL
MODEL 5
REMARK VINA RESULT:      -7.1      5.718      8.651
REMARK  Name = 
REMARK  11 active torsions:
REMARK  status: ('A' for Active; 'I' for Inactive)
REMARK    1  A    between atoms: C_1  and  C_2
REMARK    2  A    between atoms: C_2  and  C_3
REMARK    3  A    between atoms: C_3  and  C_4
REMARK    4  A    between atoms: C_3  and  C_18
REMARK    5  A    between atoms: C_4  and  C_5
REMARK    6  A    between atoms: C_5  and  C_6
REMARK    7  A    between atoms: C_6  and  C_7
REMARK    8  A    between atoms: C_7  and  C_8
REMARK    9  A    between atoms: C_8  and  C_9
REMARK   10  A    between atoms: N_11  and  C_12
REMARK   11  A    between atoms: N_20  and  O_21
REMARK                            x       y       z     vdW  Elec       q    Type
REMARK                         _______ _______ _______ _____ _____    ______ ____
ROOT
ATOM      1  C   UNL     1       6.700   4.763  15.048  0.00  0.00    +0.000 C 
ENDROOT
BRANCH   1   2
ATOM      2  C   UNL     1       6.448   3.711  13.968  0.00  0.00    +0.000 C 
BRANCH   2   3
ATOM      3  C   UNL     1       5.123   3.897  13.234  0.00  0.00    +0.000 C 
BRANCH   3   4
ATOM      4  C   UNL     1       5.209   3.478  11.749  0.00  0.00    +0.000 C 
BRANCH   4   5
ATOM      5  C   UNL     1       6.219   2.343  11.527  0.00  0.00    +0.000 C 
ATOM      6  O   UNL     1       7.420   2.520  11.327  0.00  0.00    +0.000 OA
ATOM      7  N   UNL     1       5.700   1.070  11.580  0.00  0.00    +0.000 N 
ATOM      8  H   UNL     1       4.716   0.848  11.494  0.00  0.00    +0.000 HD
BRANCH   7   9
ATOM      9  O   UNL     1       6.611   0.037  11.252  0.00  0.00    +0.000 OA
ATOM     10  H   UNL     1       6.802   0.220  10.304  0.00  0.00    +0.000 HD
ENDBRANCH   7   9
ENDBRANCH   4   5
BRANCH   4  12
ATOM     11  C   UNL     1       3.336   3.998  10.054  0.00  0.00    +0.000 C 
ATOM     12  C   UNL     1       3.852   3.065  11.138  0.00  0.00    +0.000 C 
ENDBRANCH   4  12
ENDBRANCH   3   4
ENDBRANCH   2   3
ENDBRANCH   1   2
BRANCH   1  13
ATOM     13  C   UNL     1       5.450   5.614  15.300  0.00  0.00    +0.000 C 
BRANCH  13  14
ATOM     14  C   UNL     1       5.545   6.438  16.582  0.00  0.00    +0.000 C 
BRANCH  14  15
ATOM     15  C   UNL     1       4.291   6.298  17.407  0.00  0.00    +0.000 C 
ATOM     16  O   UNL     1       3.510   7.239  17.501  0.00  0.00    +0.000 OA
ATOM     17  N   UNL     1       4.187   5.074  18.035  0.00  0.00    +0.000 N 
ATOM     18  H   UNL     1       4.992   4.463  17.997  0.00  0.00    +0.000 HD
BRANCH  17  19
ATOM     19  C   UNL     1       3.095   4.632  18.807  0.00  0.00    +0.000 A 
ATOM     20  C   UNL     1       2.914   4.985  20.147  0.00  0.00    +0.000 A 
ATOM     21  C   UNL     1       1.820   4.504  20.869  0.00  0.00    +0.000 A 
ATOM     22  C   UNL     1       0.901   3.660  20.252  0.00  0.00    +0.000 A 
ATOM     23  C   UNL     1       1.059   3.317  18.909  0.00  0.00    +0.000 A 
ATOM     24  C   UNL     1       2.149   3.809  18.187  0.00  0.00    +0.000 A 
ENDBRANCH  17  19
ENDBRANCH  14  15
ENDBRANCH  13  14
ENDBRANCH   1  13
TORSDOF 10
ENDMDL
MODEL 6
REMARK VINA RESULT:      -7.1      1.522      1.854
REMARK  Name = 
REMARK  11 active torsions:
REMARK  status: ('A' for Active; 'I' for Inactive)
REMARK    1  A    between atoms: C_1  and  C_2
REMARK    2  A    between atoms: C_2  and  C_3
REMARK    3  A    between atoms: C_3  and  C_4
REMARK    4  A    between atoms: C_3  and  C_18
REMARK    5  A    between atoms: C_4  and  C_5
REMARK    6  A    between atoms: C_5  and  C_6
REMARK    7  A    between atoms: C_6  and  C_7
REMARK    8  A    between atoms: C_7  and  C_8
REMARK    9  A    between atoms: C_8  and  C_9
REMARK   10  A    between atoms: N_11  and  C_12
REMARK   11  A    between atoms: N_20  and  O_21
REMARK                            x       y       z     vdW  Elec       q    Type
REMARK                         _______ _______ _______ _____ _____    ______ ____
ROOT
ATOM      1  C   UNL     1       7.866   7.675  17.845  0.00  0.00    +0.000 C 
ENDROOT
BRANCH   1   2
ATOM      2  C   UNL     1       8.613   8.818  18.534  0.00  0.00    +0.000 C 
BRANCH   2   3
ATOM      3  C   UNL     1       8.558  10.133  17.760  0.00  0.00    +0.000 C 
BRANCH   3   4
ATOM      4  C   UNL     1       9.638  11.135  18.226  0.00  0.00    +0.000 C 
BRANCH   4   5
ATOM      5  C   UNL     1       9.393  12.546  17.672  0.00  0.00    +0.000 C 
ATOM      6  O   UNL     1      10.291  13.325  17.354  0.00  0.00    +0.000 OA
ATOM      7  N   UNL     1       8.074  12.906  17.530  0.00  0.00    +0.000 N 
ATOM      8  H   UNL     1       7.300  12.439  17.985  0.00  0.00    +0.000 HD
BRANCH   7   9
ATOM      9  O   UNL     1       7.857  14.249  17.138  0.00  0.00    +0.000 OA
ATOM     10  H   UNL     1       8.597  14.405  16.508  0.00  0.00    +0.000 HD
ENDBRANCH   7   9
ENDBRANCH   4   5
BRANCH   4  12
ATOM     11  C   UNL     1      11.074  11.882  20.234  0.00  0.00    +0.000 C 
ATOM     12  C   UNL     1       9.789  11.221  19.760  0.00  0.00    +0.000 C 
ENDBRANCH   4  12
ENDBRANCH   3   4
ENDBRANCH   2   3
ENDBRANCH   1   2
BRANCH   1  13
ATOM     13  C   UNL     1       7.918   6.391  18.680  0.00  0.00    +0.000 C 
BRANCH  13  14
ATOM     14  C   UNL     1       7.299   5.194  17.961  0.00  0.00    +0.000 C 
BRANCH  14  15
ATOM     15  C   UNL     1       5.949   4.856  18.540  0.00  0.00    +0.000 C 
ATOM     16  O   UNL     1       5.632   5.282  19.646  0.00  0.00    +0.000 OA
ATOM     17  N   UNL     1       5.206   4.019  17.734  0.00  0.00    +0.000 N 
ATOM     18  H   UNL     1       5.669   3.616  16.930  0.00  0.00    +0.000 HD
BRANCH  17  19
ATOM     19  C   UNL     1       3.885   3.595  17.979  0.00  0.00    +0.000 A 
ATOM     20  C   UNL     1       2.762   4.357  17.642  0.00  0.00    +0.000 A 
ATOM     21  C   UNL     1       1.476   3.893  17.924  0.00  0.00    +0.000 A 
ATOM     22  C   UNL     1       1.306   2.662  18.549  0.00  0.00    +0.000 A 
ATOM     23  C   UNL     1       2.417   1.882  18.871  0.00  0.00    +0.000 A 
ATOM     24  C   UNL     1       3.702   2.344  18.578  0.00  0.00    +0.000 A 
ENDBRANCH  17  19
ENDBRANCH  14  15
ENDBRANCH  13  14
ENDBRANCH   1  13
TORSDOF 10
ENDMDL
MODEL 7
REMARK VINA RESULT:      -7.0      4.901      9.231
REMARK  Name = 
REMARK  11 active torsions:
REMARK  status: ('A' for Active; 'I' for Inactive)
REMARK    1  A    between atoms: C_1  and  C_2
REMARK    2  A    between atoms: C_2  and  C_3
REMARK    3  A    between atoms: C_3  and  C_4
REMARK    4  A    between atoms: C_3  and  C_18
REMARK    5  A    between atoms: C_4  and  C_5
REMARK    6  A    between atoms: C_5  and  C_6
REMARK    7  A    between atoms: C_6  and  C_7
REMARK    8  A    between atoms: C_7  and  C_8
REMARK    9  A    between atoms: C_8  and  C_9
REMARK   10  A    between atoms: N_11  and  C_12
REMARK   11  A    between atoms: N_20  and  O_21
REMARK                            x       y       z     vdW  Elec       q    Type
REMARK                         _______ _______ _______ _____ _____    ______ ____
ROOT
ATOM      1  C   UNL     1       4.832   5.624  18.846  0.00  0.00    +0.000 C 
ENDROOT
BRANCH   1   2
ATOM      2  C   UNL     1       4.022   4.710  17.925  0.00  0.00    +0.000 C 
BRANCH   2   3
ATOM      3  C   UNL     1       2.529   4.702  18.239  0.00  0.00    +0.000 C 
BRANCH   3   4
ATOM      4  C   UNL     1       1.994   3.278  18.514  0.00  0.00    +0.000 C 
BRANCH   4   5
ATOM      5  C   UNL     1       3.099   2.330  19.002  0.00  0.00    +0.000 C 
ATOM      6  O   UNL     1       3.721   2.483  20.053  0.00  0.00    +0.000 OA
ATOM      7  N   UNL     1       3.362   1.255  18.186  0.00  0.00    +0.000 N 
ATOM      8  H   UNL     1       3.082   1.191  17.215  0.00  0.00    +0.000 HD
BRANCH   7   9
ATOM      9  O   UNL     1       4.464   0.458  18.579  0.00  0.00    +0.000 OA
ATOM     10  H   UNL     1       5.134   1.135  18.824  0.00  0.00    +0.000 HD
ENDBRANCH   7   9
ENDBRANCH   4   5
BRANCH   4  12
ATOM     11  C   UNL     1       0.878   4.299  20.603  0.00  0.00    +0.000 C 
ATOM     12  C   UNL     1       0.821   3.235  19.518  0.00  0.00    +0.000 C 
ENDBRANCH   4  12
ENDBRANCH   3   4
ENDBRANCH   2   3
ENDBRANCH   1   2
BRANCH   1  13
ATOM     13  C   UNL     1       6.276   5.132  18.992  0.00  0.00    +0.000 C 
BRANCH  13  14
ATOM     14  C   UNL     1       7.276   6.001  18.232  0.00  0.00    +0.000 C 
BRANCH  14  15
ATOM     15  C   UNL     1       6.936   6.057  16.765  0.00  0.00    +0.000 C 
ATOM     16  O   UNL     1       6.382   7.047  16.301  0.00  0.00    +0.000 OA
ATOM     17  N   UNL     1       7.263   4.900  16.087  0.00  0.00    +0.000 N 
ATOM     18  H   UNL     1       7.559   4.106  16.638  0.00  0.00    +0.000 HD
BRANCH  17  19
ATOM     19  C   UNL     1       7.130   4.690  14.700  0.00  0.00    +0.000 A 
ATOM     20  C   UNL     1       7.925   5.336  13.749  0.00  0.00    +0.000 A 
ATOM     21  C   UNL     1       7.737   5.101  12.386  0.00  0.00    +0.000 A 
ATOM     22  C   UNL     1       6.747   4.218  11.966  0.00  0.00    +0.000 A 
ATOM     23  C   UNL     1       5.961   3.551  12.905  0.00  0.00    +0.000 A 
ATOM     24  C   UNL     1       6.158   3.780  14.269  0.00  0.00    +0.000 A 
ENDBRANCH  17  19
ENDBRANCH  14  15
ENDBRANCH  13  14
ENDBRANCH   1  13
TORSDOF 10
ENDMDL
MODEL 8
REMARK VINA RESULT:      -7.0      1.538      1.711
REMARK  Name = 
REMARK  11 active torsions:
REMARK  status: ('A' for Active; 'I' for Inactive)
REMARK    1  A    between atoms: C_1  and  C_2
REMARK    2  A    between atoms: C_2  and  C_3
REMARK    3  A    between atoms: C_3  and  C_4
REMARK    4  A    between atoms: C_3  and  C_18
REMARK    5  A    between atoms: C_4  and  C_5
REMARK    6  A    between atoms: C_5  and  C_6
REMARK    7  A    between atoms: C_6  and  C_7
REMARK    8  A    between atoms: C_7  and  C_8
REMARK    9  A    between atoms: C_8  and  C_9
REMARK   10  A    between atoms: N_11  and  C_12
REMARK   11  A    between atoms: N_20  and  O_21
REMARK                            x       y       z     vdW  Elec       q    Type
REMARK                         _______ _______ _______ _____ _____    ______ ____
ROOT
ATOM      1  C   UNL     1       7.763   9.074  17.821  0.00  0.00    +0.000 C 
ENDROOT
BRANCH   1   2
ATOM      2  C   UNL     1       8.964   9.495  18.669  0.00  0.00    +0.000 C 
BRANCH   2   3
ATOM      3  C   UNL     1       9.145  11.008  18.756  0.00  0.00    +0.000 C 
BRANCH   3   4
ATOM      4  C   UNL     1      10.632  11.418  18.852  0.00  0.00    +0.000 C 
BRANCH   4   5
ATOM      5  C   UNL     1      10.989  12.532  17.856  0.00  0.00    +0.000 C 
ATOM      6  O   UNL     1      12.019  12.550  17.184  0.00  0.00    +0.000 OA
ATOM      7  N   UNL     1      10.060  13.538  17.736  0.00  0.00    +0.000 N 
ATOM      8  H   UNL     1       9.327  13.726  18.409  0.00  0.00    +0.000 HD
BRANCH   7   9
ATOM      9  O   UNL     1      10.451  14.622  16.912  0.00  0.00    +0.000 OA
ATOM     10  H   UNL     1      11.343  14.840  17.265  0.00  0.00    +0.000 HD
ENDBRANCH   7   9
ENDBRANCH   4   5
BRANCH   4  12
ATOM     11  C   UNL     1       9.925  12.227  21.196  0.00  0.00    +0.000 C 
ATOM     12  C   UNL     1      11.070  11.855  20.266  0.00  0.00    +0.000 C 
ENDBRANCH   4  12
ENDBRANCH   3   4
ENDBRANCH   2   3
ENDBRANCH   1   2
BRANCH   1  13
ATOM     13  C   UNL     1       7.837   7.590  17.447  0.00  0.00    +0.000 C 
BRANCH  13  14
ATOM     14  C   UNL     1       7.907   6.675  18.668  0.00  0.00    +0.000 C 
BRANCH  14  15
ATOM     15  C   UNL     1       7.178   5.380  18.413  0.00  0.00    +0.000 C 
ATOM     16  O   UNL     1       7.806   4.372  18.108  0.00  0.00    +0.000 OA
ATOM     17  N   UNL     1       5.807   5.500  18.512  0.00  0.00    +0.000 N 
ATOM     18  H   UNL     1       5.428   6.433  18.605  0.00  0.00    +0.000 HD
BRANCH  17  19
ATOM     19  C   UNL     1       4.876   4.449  18.399  0.00  0.00    +0.000 A 
ATOM     20  C   UNL     1       4.731   3.449  19.364  0.00  0.00    +0.000 A 
ATOM     21  C   UNL     1       3.801   2.422  19.191  0.00  0.00    +0.000 A 
ATOM     22  C   UNL     1       3.012   2.389  18.046  0.00  0.00    +0.000 A 
ATOM     23  C   UNL     1       3.131   3.393  17.085  0.00  0.00    +0.000 A 
ATOM     24  C   UNL     1       4.055   4.425  17.266  0.00  0.00    +0.000 A 
ENDBRANCH  17  19
ENDBRANCH  14  15
ENDBRANCH  13  14
ENDBRANCH   1  13
TORSDOF 10
ENDMDL
MODEL 9
REMARK VINA RESULT:      -6.9      4.318      5.425
REMARK  Name = 
REMARK  11 active torsions:
REMARK  status: ('A' for Active; 'I' for Inactive)
REMARK    1  A    between atoms: C_1  and  C_2
REMARK    2  A    between atoms: C_2  and  C_3
REMARK    3  A    between atoms: C_3  and  C_4
REMARK    4  A    between atoms: C_3  and  C_18
REMARK    5  A    between atoms: C_4  and  C_5
REMARK    6  A    between atoms: C_5  and  C_6
REMARK    7  A    between atoms: C_6  and  C_7
REMARK    8  A    between atoms: C_7  and  C_8
REMARK    9  A    between atoms: C_8  and  C_9
REMARK   10  A    between atoms: N_11  and  C_12
REMARK   11  A    between atoms: N_20  and  O_21
REMARK                            x       y       z     vdW  Elec       q    Type
REMARK                         _______ _______ _______ _____ _____    ______ ____
ROOT
ATOM      1  C   UNL     1       6.925   3.959  15.671  0.00  0.00    +0.000 C 
ENDROOT
BRANCH   1   2
ATOM      2  C   UNL     1       7.437   4.671  16.923  0.00  0.00    +0.000 C 
BRANCH   2   3
ATOM      3  C   UNL     1       7.359   6.192  16.832  0.00  0.00    +0.000 C 
BRANCH   3   4
ATOM      4  C   UNL     1       7.255   6.861  18.221  0.00  0.00    +0.000 C 
BRANCH   4   5
ATOM      5  C   UNL     1       7.277   5.830  19.360  0.00  0.00    +0.000 C 
ATOM      6  O   UNL     1       6.323   5.110  19.654  0.00  0.00    +0.000 OA
ATOM      7  N   UNL     1       8.461   5.737  20.052  0.00  0.00    +0.000 N 
ATOM      8  H   UNL     1       9.189   6.441  20.041  0.00  0.00    +0.000 HD
BRANCH   7   9
ATOM      9  O   UNL     1       8.434   4.877  21.177  0.00  0.00    +0.000 OA
ATOM     10  H   UNL     1       8.992   5.364  21.825  0.00  0.00    +0.000 HD
ENDBRANCH   7   9
ENDBRANCH   4   5
BRANCH   4  12
ATOM     11  C   UNL     1       8.093   9.267  17.827  0.00  0.00    +0.000 C 
ATOM     12  C   UNL     1       8.345   7.921  18.487  0.00  0.00    +0.000 C 
ENDBRANCH   4  12
ENDBRANCH   3   4
ENDBRANCH   2   3
ENDBRANCH   1   2
BRANCH   1  13
ATOM     13  C   UNL     1       5.529   3.368  15.895  0.00  0.00    +0.000 C 
BRANCH  13  14
ATOM     14  C   UNL     1       4.431   4.430  15.896  0.00  0.00    +0.000 C 
BRANCH  14  15
ATOM     15  C   UNL     1       3.822   4.573  17.268  0.00  0.00    +0.000 C 
ATOM     16  O   UNL     1       3.756   5.677  17.797  0.00  0.00    +0.000 OA
ATOM     17  N   UNL     1       3.433   3.369  17.818  0.00  0.00    +0.000 N 
ATOM     18  H   UNL     1       3.707   2.526  17.332  0.00  0.00    +0.000 HD
BRANCH  17  19
ATOM     19  C   UNL     1       2.771   3.200  19.050  0.00  0.00    +0.000 A 
ATOM     20  C   UNL     1       3.429   2.839  20.229  0.00  0.00    +0.000 A 
ATOM     21  C   UNL     1       2.718   2.670  21.418  0.00  0.00    +0.000 A 
ATOM     22  C   UNL     1       1.339   2.857  21.433  0.00  0.00    +0.000 A 
ATOM     23  C   UNL     1       0.674   3.237  20.268  0.00  0.00    +0.000 A 
ATOM     24  C   UNL     1       1.389   3.416  19.082  0.00  0.00    +0.000 A 
ENDBRANCH  17  19
ENDBRANCH  14  15
ENDBRANCH  13  14
ENDBRANCH   1  13
TORSDOF 10
ENDMDL
