MODEL 1
REMARK VINA RESULT:      -7.3      0.000      0.000
REMARK  Name = 
REMARK  4 active torsions:
REMARK  status: ('A' for Active; 'I' for Inactive)
REMARK    1  A    between atoms: C_2  and  C_13
REMARK    2  A    between atoms: N_3  and  N_4
REMARK    3  A    between atoms: C_5  and  C_7
REMARK    4  A    between atoms: C_18  and  O_19
REMARK                            x       y       z     vdW  Elec       q    Type
REMARK                         _______ _______ _______ _____ _____    ______ ____
ROOT
ATOM      1  O   UNL     1       6.547   5.414  16.357  0.00  0.00    +0.000 OA
ATOM      2  C   UNL     1       6.055   4.461  15.754  0.00  0.00    +0.000 C 
ATOM      3  N   UNL     1       5.270   3.522  16.382  0.00  0.00    +0.000 N 
ATOM      4  H   UNL     1       4.880   2.717  15.885  0.00  0.00    +0.000 HD
ENDROOT
BRANCH   2   5
ATOM      5  C   UNL     1       6.297   4.263  14.289  0.00  0.00    +0.000 A 
ATOM      6  C   UNL     1       5.413   3.421  13.594  0.00  0.00    +0.000 A 
ATOM      7  C   UNL     1       5.559   3.209  12.220  0.00  0.00    +0.000 A 
ATOM      8  C   UNL     1       6.592   3.836  11.525  0.00  0.00    +0.000 A 
ATOM      9  C   UNL     1       7.484   4.666  12.200  0.00  0.00    +0.000 A 
ATOM     10  C   UNL     1       7.339   4.879  13.574  0.00  0.00    +0.000 A 
BRANCH  10  11
ATOM     11  O   UNL     1       8.231   5.702  14.208  0.00  0.00    +0.000 OA
ATOM     12  H   UNL     1       8.615   5.239  14.974  0.00  0.00    +0.000 HD
ENDBRANCH  10  11
ENDBRANCH   2   5
BRANCH   3  13
ATOM     13  N   UNL     1       5.059   3.600  17.754  0.00  0.00    +0.000 N 
ATOM     14  C   UNL     1       3.811   3.984  18.206  0.00  0.00    +0.000 C 
ATOM     15  O   UNL     1       2.900   4.279  17.431  0.00  0.00    +0.000 OA
ATOM     16  H   UNL     1       5.867   3.429  18.348  0.00  0.00    +0.000 HD
BRANCH  14  17
ATOM     17  C   UNL     1       3.695   4.057  19.730  0.00  0.00    +0.000 C 
ATOM     18  C   UNL     1       2.682   5.130  20.171  0.00  0.00    +0.000 C 
ATOM     19  C   UNL     1       1.255   4.655  20.158  0.00  0.00    +0.000 C 
ATOM     20  C   UNL     1       0.913   3.363  20.057  0.00  0.00    +0.000 C 
ATOM     21  C   UNL     1       1.916   2.251  19.991  0.00  0.00    +0.000 C 
ATOM     22  C   UNL     1       3.336   2.699  20.352  0.00  0.00    +0.000 C 
ENDBRANCH  14  17
ENDBRANCH   3  13
TORSDOF 4
ENDMDL
MODEL 2
REMARK VINA RESULT:      -7.1      4.814      8.518
REMARK  Name = 
REMARK  4 active torsions:
REMARK  status: ('A' for Active; 'I' for Inactive)
REMARK    1  A    between atoms: C_2  and  C_13
REMARK    2  A    between atoms: N_3  and  N_4
REMARK    3  A    between atoms: C_5  and  C_7
REMARK    4  A    between atoms: C_18  and  O_19
REMARK                            x       y       z     vdW  Elec       q    Type
REMARK                         _______ _______ _______ _____ _____    ______ ____
ROOT
ATOM      1  O   UNL     1       1.576   9.008  18.989  0.00  0.00    +0.000 OA
ATOM      2  C   UNL     1       1.359   8.685  20.156  0.00  0.00    +0.000 C 
ATOM      3  N   UNL     1       1.872   7.532  20.705  0.00  0.00    +0.000 N 
ATOM      4  H   UNL     1       1.672   7.252  21.669  0.00  0.00    +0.000 HD
ENDROOT
BRANCH   2   5
ATOM      5  C   UNL     1       0.507   9.534  21.049  0.00  0.00    +0.000 A 
ATOM      6  C   UNL     1       0.310   9.093  22.367  0.00  0.00    +0.000 A 
ATOM      7  C   UNL     1      -0.452   9.845  23.267  0.00  0.00    +0.000 A 
ATOM      8  C   UNL     1      -1.027  11.046  22.857  0.00  0.00    +0.000 A 
ATOM      9  C   UNL     1      -0.851  11.494  21.549  0.00  0.00    +0.000 A 
ATOM     10  C   UNL     1      -0.090  10.742  20.649  0.00  0.00    +0.000 A 
BRANCH  10  11
ATOM     11  O   UNL     1       0.066  11.210  19.371  0.00  0.00    +0.000 OA
ATOM     12  H   UNL     1      -0.614  10.819  18.796  0.00  0.00    +0.000 HD
ENDBRANCH  10  11
ENDBRANCH   2   5
BRANCH   3  13
ATOM     13  N   UNL     1       2.613   6.659  19.919  0.00  0.00    +0.000 N 
ATOM     14  C   UNL     1       2.631   5.320  20.260  0.00  0.00    +0.000 C 
ATOM     15  O   UNL     1       2.031   4.892  21.247  0.00  0.00    +0.000 OA
ATOM     16  H   UNL     1       3.158   7.076  19.167  0.00  0.00    +0.000 HD
BRANCH  14  17
ATOM     17  C   UNL     1       3.494   4.453  19.341  0.00  0.00    +0.000 C 
ATOM     18  C   UNL     1       3.511   2.983  19.799  0.00  0.00    +0.000 C 
ATOM     19  C   UNL     1       2.330   2.187  19.319  0.00  0.00    +0.000 C 
ATOM     20  C   UNL     1       1.497   2.615  18.360  0.00  0.00    +0.000 C 
ATOM     21  C   UNL     1       1.681   3.913  17.633  0.00  0.00    +0.000 C 
ATOM     22  C   UNL     1       3.056   4.547  17.872  0.00  0.00    +0.000 C 
ENDBRANCH  14  17
ENDBRANCH   3  13
TORSDOF 4
ENDMDL
MODEL 3
REMARK VINA RESULT:      -6.9      1.227      1.991
REMARK  Name = 
REMARK  4 active torsions:
REMARK  status: ('A' for Active; 'I' for Inactive)
REMARK    1  A    between atoms: C_2  and  C_13
REMARK    2  A    between atoms: N_3  and  N_4
REMARK    3  A    between atoms: C_5  and  C_7
REMARK    4  A    between atoms: C_18  and  O_19
REMARK                            x       y       z     vdW  Elec       q    Type
REMARK                         _______ _______ _______ _____ _____    ______ ____
ROOT
ATOM      1  O   UNL     1       4.447   5.152  17.362  0.00  0.00    +0.000 OA
ATOM      2  C   UNL     1       4.933   4.172  16.799  0.00  0.00    +0.000 C 
ATOM      3  N   UNL     1       4.774   2.895  17.285  0.00  0.00    +0.000 N 
ATOM      4  H   UNL     1       5.197   2.082  16.829  0.00  0.00    +0.000 HD
ENDROOT
BRANCH   2   5
ATOM      5  C   UNL     1       5.740   4.320  15.546  0.00  0.00    +0.000 A 
ATOM      6  C   UNL     1       5.280   3.657  14.397  0.00  0.00    +0.000 A 
ATOM      7  C   UNL     1       5.967   3.768  13.184  0.00  0.00    +0.000 A 
ATOM      8  C   UNL     1       7.122   4.543  13.107  0.00  0.00    +0.000 A 
ATOM      9  C   UNL     1       7.599   5.200  14.240  0.00  0.00    +0.000 A 
ATOM     10  C   UNL     1       6.913   5.089  15.453  0.00  0.00    +0.000 A 
BRANCH  10  11
ATOM     11  O   UNL     1       7.406   5.748  16.548  0.00  0.00    +0.000 OA
ATOM     12  H   UNL     1       8.270   6.140  16.330  0.00  0.00    +0.000 HD
ENDBRANCH  10  11
ENDBRANCH   2   5
BRANCH   3  13
ATOM     13  N   UNL     1       4.096   2.686  18.480  0.00  0.00    +0.000 N 
ATOM     14  C   UNL     1       2.759   2.343  18.426  0.00  0.00    +0.000 C 
ATOM     15  O   UNL     1       2.155   2.242  17.357  0.00  0.00    +0.000 OA
ATOM     16  H   UNL     1       4.618   2.865  19.335  0.00  0.00    +0.000 HD
BRANCH  14  17
ATOM     17  C   UNL     1       2.106   2.158  19.798  0.00  0.00    +0.000 C 
ATOM     18  C   UNL     1       3.014   2.670  20.932  0.00  0.00    +0.000 C 
ATOM     19  C   UNL     1       2.912   4.153  21.165  0.00  0.00    +0.000 C 
ATOM     20  C   UNL     1       1.934   4.910  20.650  0.00  0.00    +0.000 C 
ATOM     21  C   UNL     1       0.813   4.354  19.824  0.00  0.00    +0.000 C 
ATOM     22  C   UNL     1       0.725   2.826  19.880  0.00  0.00    +0.000 C 
ENDBRANCH  14  17
ENDBRANCH   3  13
TORSDOF 4
ENDMDL
MODEL 4
REMARK VINA RESULT:      -6.9      4.293      7.564
REMARK  Name = 
REMARK  4 active torsions:
REMARK  status: ('A' for Active; 'I' for Inactive)
REMARK    1  A    between atoms: C_2  and  C_13
REMARK    2  A    between atoms: N_3  and  N_4
REMARK    3  A    between atoms: C_5  and  C_7
REMARK    4  A    between atoms: C_18  and  O_19
REMARK                            x       y       z     vdW  Elec       q    Type
REMARK                         _______ _______ _______ _____ _____    ______ ____
ROOT
ATOM      1  O   UNL     1       2.345   7.666  18.508  0.00  0.00    +0.000 OA
ATOM      2  C   UNL     1       1.936   7.862  19.652  0.00  0.00    +0.000 C 
ATOM      3  N   UNL     1       2.200   6.992  20.684  0.00  0.00    +0.000 N 
ATOM      4  H   UNL     1       1.841   7.144  21.630  0.00  0.00    +0.000 HD
ENDROOT
BRANCH   2   5
ATOM      5  C   UNL     1       1.113   9.069  19.984  0.00  0.00    +0.000 A 
ATOM      6  C   UNL     1       0.642   9.189  21.301  0.00  0.00    +0.000 A 
ATOM      7  C   UNL     1      -0.112  10.301  21.692  0.00  0.00    +0.000 A 
ATOM      8  C   UNL     1      -0.404  11.303  20.769  0.00  0.00    +0.000 A 
ATOM      9  C   UNL     1       0.046  11.194  19.454  0.00  0.00    +0.000 A 
ATOM     10  C   UNL     1       0.799  10.083  19.063  0.00  0.00    +0.000 A 
BRANCH  10  11
ATOM     11  O   UNL     1       1.228  10.007  17.764  0.00  0.00    +0.000 OA
ATOM     12  H   UNL     1       2.108   9.590  17.736  0.00  0.00    +0.000 HD
ENDBRANCH  10  11
ENDBRANCH   2   5
BRANCH   3  13
ATOM     13  N   UNL     1       2.899   5.816  20.439  0.00  0.00    +0.000 N 
ATOM     14  C   UNL     1       2.188   4.633  20.360  0.00  0.00    +0.000 C 
ATOM     15  O   UNL     1       0.968   4.595  20.524  0.00  0.00    +0.000 OA
ATOM     16  H   UNL     1       3.912   5.890  20.396  0.00  0.00    +0.000 HD
BRANCH  14  17
ATOM     17  C   UNL     1       3.057   3.399  20.108  0.00  0.00    +0.000 C 
ATOM     18  C   UNL     1       2.239   2.244  19.500  0.00  0.00    +0.000 C 
ATOM     19  C   UNL     1       2.072   2.341  18.009  0.00  0.00    +0.000 C 
ATOM     20  C   UNL     1       2.792   3.172  17.243  0.00  0.00    +0.000 C 
ATOM     21  C   UNL     1       3.870   4.062  17.785  0.00  0.00    +0.000 C 
ATOM     22  C   UNL     1       4.272   3.713  19.223  0.00  0.00    +0.000 C 
ENDBRANCH  14  17
ENDBRANCH   3  13
TORSDOF 4
ENDMDL
MODEL 5
REMARK VINA RESULT:      -6.9      4.406      7.929
REMARK  Name = 
REMARK  4 active torsions:
REMARK  status: ('A' for Active; 'I' for Inactive)
REMARK    1  A    between atoms: C_2  and  C_13
REMARK    2  A    between atoms: N_3  and  N_4
REMARK    3  A    between atoms: C_5  and  C_7
REMARK    4  A    between atoms: C_18  and  O_19
REMARK                            x       y       z     vdW  Elec       q    Type
REMARK                         _______ _______ _______ _____ _____    ______ ____
ROOT
ATOM      1  O   UNL     1       2.382   7.921  18.923  0.00  0.00    +0.000 OA
ATOM      2  C   UNL     1       1.824   7.950  20.019  0.00  0.00    +0.000 C 
ATOM      3  N   UNL     1       1.970   6.940  20.942  0.00  0.00    +0.000 N 
ATOM      4  H   UNL     1       1.488   6.954  21.845  0.00  0.00    +0.000 HD
ENDROOT
BRANCH   2   5
ATOM      5  C   UNL     1       0.940   9.095  20.408  0.00  0.00    +0.000 A 
ATOM      6  C   UNL     1       0.064   9.597  19.433  0.00  0.00    +0.000 A 
ATOM      7  C   UNL     1      -0.810  10.648  19.730  0.00  0.00    +0.000 A 
ATOM      8  C   UNL     1      -0.816  11.208  21.006  0.00  0.00    +0.000 A 
ATOM      9  C   UNL     1       0.054  10.729  21.983  0.00  0.00    +0.000 A 
ATOM     10  C   UNL     1       0.928   9.679  21.687  0.00  0.00    +0.000 A 
BRANCH  10  11
ATOM     11  O   UNL     1       1.769   9.229  22.669  0.00  0.00    +0.000 OA
ATOM     12  H   UNL     1       1.561   9.678  23.508  0.00  0.00    +0.000 HD
ENDBRANCH  10  11
ENDBRANCH   2   5
BRANCH   3  13
ATOM     13  N   UNL     1       2.718   5.813  20.625  0.00  0.00    +0.000 N 
ATOM     14  C   UNL     1       2.053   4.618  20.423  0.00  0.00    +0.000 C 
ATOM     15  O   UNL     1       0.831   4.526  20.539  0.00  0.00    +0.000 OA
ATOM     16  H   UNL     1       3.729   5.924  20.625  0.00  0.00    +0.000 HD
BRANCH  14  17
ATOM     17  C   UNL     1       2.974   3.439  20.101  0.00  0.00    +0.000 C 
ATOM     18  C   UNL     1       2.196   2.268  19.472  0.00  0.00    +0.000 C 
ATOM     19  C   UNL     1       1.982   2.411  17.990  0.00  0.00    +0.000 C 
ATOM     20  C   UNL     1       2.638   3.305  17.238  0.00  0.00    +0.000 C 
ATOM     21  C   UNL     1       3.687   4.227  17.784  0.00  0.00    +0.000 C 
ATOM     22  C   UNL     1       4.146   3.846  19.196  0.00  0.00    +0.000 C 
ENDBRANCH  14  17
ENDBRANCH   3  13
TORSDOF 4
ENDMDL
MODEL 6
REMARK VINA RESULT:      -6.8      5.510      9.003
REMARK  Name = 
REMARK  4 active torsions:
REMARK  status: ('A' for Active; 'I' for Inactive)
REMARK    1  A    between atoms: C_2  and  C_13
REMARK    2  A    between atoms: N_3  and  N_4
REMARK    3  A    between atoms: C_5  and  C_7
REMARK    4  A    between atoms: C_18  and  O_19
REMARK                            x       y       z     vdW  Elec       q    Type
REMARK                         _______ _______ _______ _____ _____    ______ ____
ROOT
ATOM      1  O   UNL     1      -0.518   8.011  21.897  0.00  0.00    +0.000 OA
ATOM      2  C   UNL     1       0.076   8.825  21.191  0.00  0.00    +0.000 C 
ATOM      3  N   UNL     1       1.255   8.518  20.552  0.00  0.00    +0.000 N 
ATOM      4  H   UNL     1       1.761   9.202  19.983  0.00  0.00    +0.000 HD
ENDROOT
BRANCH   2   5
ATOM      5  C   UNL     1      -0.455  10.211  20.992  0.00  0.00    +0.000 A 
ATOM      6  C   UNL     1      -0.729  10.618  19.676  0.00  0.00    +0.000 A 
ATOM      7  C   UNL     1      -1.251  11.889  19.415  0.00  0.00    +0.000 A 
ATOM      8  C   UNL     1      -1.503  12.768  20.467  0.00  0.00    +0.000 A 
ATOM      9  C   UNL     1      -1.227  12.385  21.778  0.00  0.00    +0.000 A 
ATOM     10  C   UNL     1      -0.705  11.114  22.040  0.00  0.00    +0.000 A 
BRANCH  10  11
ATOM     11  O   UNL     1      -0.446  10.767  23.340  0.00  0.00    +0.000 OA
ATOM     12  H   UNL     1       0.503  10.883  23.525  0.00  0.00    +0.000 HD
ENDBRANCH  10  11
ENDBRANCH   2   5
BRANCH   3  13
ATOM     13  N   UNL     1       1.845   7.274  20.744  0.00  0.00    +0.000 N 
ATOM     14  C   UNL     1       2.449   6.659  19.664  0.00  0.00    +0.000 C 
ATOM     15  O   UNL     1       2.456   7.171  18.544  0.00  0.00    +0.000 OA
ATOM     16  H   UNL     1       1.738   6.858  21.667  0.00  0.00    +0.000 HD
BRANCH  14  17
ATOM     17  C   UNL     1       3.047   5.287  19.982  0.00  0.00    +0.000 C 
ATOM     18  C   UNL     1       2.161   4.495  20.961  0.00  0.00    +0.000 C 
ATOM     19  C   UNL     1       1.027   3.765  20.295  0.00  0.00    +0.000 C 
ATOM     20  C   UNL     1       0.953   3.578  18.970  0.00  0.00    +0.000 C 
ATOM     21  C   UNL     1       2.014   4.037  18.015  0.00  0.00    +0.000 C 
ATOM     22  C   UNL     1       3.310   4.459  18.714  0.00  0.00    +0.000 C 
ENDBRANCH  14  17
ENDBRANCH   3  13
TORSDOF 4
ENDMDL
MODEL 7
REMARK VINA RESULT:      -6.8      1.104      1.490
REMARK  Name = 
REMARK  4 active torsions:
REMARK  status: ('A' for Active; 'I' for Inactive)
REMARK    1  A    between atoms: C_2  and  C_13
REMARK    2  A    between atoms: N_3  and  N_4
REMARK    3  A    between atoms: C_5  and  C_7
REMARK    4  A    between atoms: C_18  and  O_19
REMARK                            x       y       z     vdW  Elec       q    Type
REMARK                         _______ _______ _______ _____ _____    ______ ____
ROOT
ATOM      1  O   UNL     1       4.114   5.345  16.768  0.00  0.00    +0.000 OA
ATOM      2  C   UNL     1       4.976   4.497  16.545  0.00  0.00    +0.000 C 
ATOM      3  N   UNL     1       5.341   3.558  17.482  0.00  0.00    +0.000 N 
ATOM      4  H   UNL     1       6.075   2.867  17.305  0.00  0.00    +0.000 HD
ENDROOT
BRANCH   2   5
ATOM      5  C   UNL     1       5.691   4.446  15.230  0.00  0.00    +0.000 A 
ATOM      6  C   UNL     1       5.061   3.764  14.176  0.00  0.00    +0.000 A 
ATOM      7  C   UNL     1       5.655   3.697  12.912  0.00  0.00    +0.000 A 
ATOM      8  C   UNL     1       6.886   4.309  12.687  0.00  0.00    +0.000 A 
ATOM      9  C   UNL     1       7.531   4.981  13.724  0.00  0.00    +0.000 A 
ATOM     10  C   UNL     1       6.938   5.049  14.989  0.00  0.00    +0.000 A 
BRANCH  10  11
ATOM     11  O   UNL     1       7.595   5.719  15.986  0.00  0.00    +0.000 OA
ATOM     12  H   UNL     1       8.102   6.457  15.604  0.00  0.00    +0.000 HD
ENDBRANCH  10  11
ENDBRANCH   2   5
BRANCH   3  13
ATOM     13  N   UNL     1       4.772   3.586  18.750  0.00  0.00    +0.000 N 
ATOM     14  C   UNL     1       3.794   2.658  19.052  0.00  0.00    +0.000 C 
ATOM     15  O   UNL     1       3.403   1.832  18.226  0.00  0.00    +0.000 OA
ATOM     16  H   UNL     1       5.070   4.340  19.365  0.00  0.00    +0.000 HD
BRANCH  14  17
ATOM     17  C   UNL     1       3.222   2.791  20.465  0.00  0.00    +0.000 C 
ATOM     18  C   UNL     1       3.184   4.260  20.925  0.00  0.00    +0.000 C 
ATOM     19  C   UNL     1       1.975   5.014  20.443  0.00  0.00    +0.000 C 
ATOM     20  C   UNL     1       0.899   4.414  19.917  0.00  0.00    +0.000 C 
ATOM     21  C   UNL     1       0.767   2.926  19.793  0.00  0.00    +0.000 C 
ATOM     22  C   UNL     1       1.827   2.159  20.590  0.00  0.00    +0.000 C 
ENDBRANCH  14  17
ENDBRANCH   3  13
TORSDOF 4
ENDMDL
MODEL 8
REMARK VINA RESULT:      -6.7      4.635      7.952
REMARK  Name = 
REMARK  4 active torsions:
REMARK  status: ('A' for Active; 'I' for Inactive)
REMARK    1  A    between atoms: C_2  and  C_13
REMARK    2  A    between atoms: N_3  and  N_4
REMARK    3  A    between atoms: C_5  and  C_7
REMARK    4  A    between atoms: C_18  and  O_19
REMARK                            x       y       z     vdW  Elec       q    Type
REMARK                         _______ _______ _______ _____ _____    ______ ____
ROOT
ATOM      1  O   UNL     1       2.135   8.637  18.350  0.00  0.00    +0.000 OA
ATOM      2  C   UNL     1       1.628   8.593  19.470  0.00  0.00    +0.000 C 
ATOM      3  N   UNL     1       1.918   7.592  20.367  0.00  0.00    +0.000 N 
ATOM      4  H   UNL     1       1.479   7.542  21.290  0.00  0.00    +0.000 HD
ENDROOT
BRANCH   2   5
ATOM      5  C   UNL     1       0.650   9.635  19.919  0.00  0.00    +0.000 A 
ATOM      6  C   UNL     1       0.589   9.917  21.293  0.00  0.00    +0.000 A 
ATOM      7  C   UNL     1      -0.281  10.896  21.784  0.00  0.00    +0.000 A 
ATOM      8  C   UNL     1      -1.101  11.602  20.907  0.00  0.00    +0.000 A 
ATOM      9  C   UNL     1      -1.061  11.328  19.541  0.00  0.00    +0.000 A 
ATOM     10  C   UNL     1      -0.192  10.350  19.049  0.00  0.00    +0.000 A 
BRANCH  10  11
ATOM     11  O   UNL     1      -0.175  10.106  17.701  0.00  0.00    +0.000 OA
ATOM     12  H   UNL     1      -0.174   9.145  17.545  0.00  0.00    +0.000 HD
ENDBRANCH  10  11
ENDBRANCH   2   5
BRANCH   3  13
ATOM     13  N   UNL     1       2.763   6.552  19.997  0.00  0.00    +0.000 N 
ATOM     14  C   UNL     1       2.342   5.254  20.216  0.00  0.00    +0.000 C 
ATOM     15  O   UNL     1       1.260   5.001  20.747  0.00  0.00    +0.000 OA
ATOM     16  H   UNL     1       3.679   6.815  19.642  0.00  0.00    +0.000 HD
BRANCH  14  17
ATOM     17  C   UNL     1       3.356   4.189  19.791  0.00  0.00    +0.000 C 
ATOM     18  C   UNL     1       2.968   2.795  20.316  0.00  0.00    +0.000 C 
ATOM     19  C   UNL     1       1.966   2.080  19.451  0.00  0.00    +0.000 C 
ATOM     20  C   UNL     1       1.656   2.476  18.209  0.00  0.00    +0.000 C 
ATOM     21  C   UNL     1       2.307   3.645  17.533  0.00  0.00    +0.000 C 
ATOM     22  C   UNL     1       3.554   4.148  18.268  0.00  0.00    +0.000 C 
ENDBRANCH  14  17
ENDBRANCH   3  13
TORSDOF 4
ENDMDL
MODEL 9
REMARK VINA RESULT:      -6.7      0.670      1.079
REMARK  Name = 
REMARK  4 active torsions:
REMARK  status: ('A' for Active; 'I' for Inactive)
REMARK    1  A    between atoms: C_2  and  C_13
REMARK    2  A    between atoms: N_3  and  N_4
REMARK    3  A    between atoms: C_5  and  C_7
REMARK    4  A    between atoms: C_18  and  O_19
REMARK                            x       y       z     vdW  Elec       q    Type
REMARK                         _______ _______ _______ _____ _____    ______ ____
ROOT
ATOM      1  O   UNL     1       6.568   5.450  16.345  0.00  0.00    +0.000 OA
ATOM      2  C   UNL     1       5.766   4.838  15.642  0.00  0.00    +0.000 C 
ATOM      3  N   UNL     1       4.513   4.489  16.092  0.00  0.00    +0.000 N 
ATOM      4  H   UNL     1       3.854   3.960  15.515  0.00  0.00    +0.000 HD
ENDROOT
BRANCH   2   5
ATOM      5  C   UNL     1       6.117   4.425  14.246  0.00  0.00    +0.000 A 
ATOM      6  C   UNL     1       5.226   3.569  13.579  0.00  0.00    +0.000 A 
ATOM      7  C   UNL     1       5.474   3.162  12.264  0.00  0.00    +0.000 A 
ATOM      8  C   UNL     1       6.617   3.605  11.602  0.00  0.00    +0.000 A 
ATOM      9  C   UNL     1       7.518   4.446  12.252  0.00  0.00    +0.000 A 
ATOM     10  C   UNL     1       7.271   4.854  13.566  0.00  0.00    +0.000 A 
BRANCH  10  11
ATOM     11  O   UNL     1       8.175   5.682  14.177  0.00  0.00    +0.000 OA
ATOM     12  H   UNL     1       7.704   6.421  14.601  0.00  0.00    +0.000 HD
ENDBRANCH  10  11
ENDBRANCH   2   5
BRANCH   3  13
ATOM     13  N   UNL     1       4.141   4.777  17.399  0.00  0.00    +0.000 N 
ATOM     14  C   UNL     1       2.869   4.428  17.812  0.00  0.00    +0.000 C 
ATOM     15  O   UNL     1       2.060   3.897  17.051  0.00  0.00    +0.000 OA
ATOM     16  H   UNL     1       4.815   5.292  17.961  0.00  0.00    +0.000 HD
BRANCH  14  17
ATOM     17  C   UNL     1       2.557   4.808  19.262  0.00  0.00    +0.000 C 
ATOM     18  C   UNL     1       1.113   4.439  19.647  0.00  0.00    +0.000 C 
ATOM     19  C   UNL     1       0.948   3.004  20.065  0.00  0.00    +0.000 C 
ATOM     20  C   UNL     1       1.981   2.200  20.355  0.00  0.00    +0.000 C 
ATOM     21  C   UNL     1       3.408   2.659  20.336  0.00  0.00    +0.000 C 
ATOM     22  C   UNL     1       3.549   4.183  20.254  0.00  0.00    +0.000 C 
ENDBRANCH  14  17
ENDBRANCH   3  13
TORSDOF 4
ENDMDL
