MODEL 1
REMARK VINA RESULT:      -7.9      0.000      0.000
REMARK  Name = 
REMARK  6 active torsions:
REMARK  status: ('A' for Active; 'I' for Inactive)
REMARK    1  A    between atoms: C_6  and  C_7
REMARK    2  A    between atoms: C_7  and  C_8
REMARK    3  A    between atoms: C_8  and  C_9
REMARK    4  A    between atoms: C_9  and  N_10
REMARK    5  A    between atoms: N_10  and  C_11
REMARK    6  A    between atoms: C_11  and  C_12
REMARK                            x       y       z     vdW  Elec       q    Type
REMARK                         _______ _______ _______ _____ _____    ______ ____
ROOT
ATOM      1  N   UNL     1       4.848   2.583  18.795  0.00  0.00    +0.000 NA
ATOM      2  H   UNL     1       4.912   2.603  17.775  0.00  0.00    +0.000 HD
ENDROOT
BRANCH   1   3
ATOM      3  C   UNL     1       3.531   2.067  19.181  0.00  0.00    +0.000 C 
BRANCH   3   4
ATOM      4  C   UNL     1       2.498   2.177  18.057  0.00  0.00    +0.000 C 
BRANCH   4   5
ATOM      5  C   UNL     1       1.243   2.930  18.493  0.00  0.00    +0.000 C 
BRANCH   5  11
ATOM      6  F   UNL     1       3.086   7.339  17.488  0.00  0.00    +0.000 F 
ATOM      7  C   UNL     1       2.537   6.503  18.378  0.00  0.00    +0.000 A 
ATOM      8  C   UNL     1       2.338   6.930  19.686  0.00  0.00    +0.000 A 
ATOM      9  C   UNL     1       1.780   6.056  20.615  0.00  0.00    +0.000 A 
ATOM     10  C   UNL     1       1.416   4.765  20.225  0.00  0.00    +0.000 A 
ATOM     11  C   UNL     1       1.601   4.339  18.900  0.00  0.00    +0.000 A 
ATOM     12  C   UNL     1       2.180   5.220  17.978  0.00  0.00    +0.000 A 
ENDBRANCH   5  11
ENDBRANCH   4   5
ENDBRANCH   3   4
ENDBRANCH   1   3
BRANCH   1  13
ATOM     13  C   UNL     1       5.091   3.945  19.294  0.00  0.00    +0.000 C 
BRANCH  13  14
ATOM     14  C   UNL     1       5.908   4.762  18.320  0.00  0.00    +0.000 A 
ATOM     15  C   UNL     1       6.667   5.826  18.758  0.00  0.00    +0.000 A 
ATOM     16  C   UNL     1       7.427   6.459  17.800  0.00  0.00    +0.000 A 
ATOM     17  N   UNL     1       7.454   6.092  16.505  0.00  0.00    +0.000 NA
ATOM     18  C   UNL     1       6.669   5.049  16.162  0.00  0.00    +0.000 A 
ATOM     19  N   UNL     1       6.659   4.637  14.807  0.00  0.00    +0.000 N 
ATOM     20  C   UNL     1       5.870   3.663  14.234  0.00  0.00    +0.000 A 
ATOM     21  C   UNL     1       6.221   3.637  12.906  0.00  0.00    +0.000 A 
ATOM     22  N   UNL     1       7.204   4.551  12.642  0.00  0.00    +0.000 NA
ATOM     23  C   UNL     1       7.447   5.136  13.797  0.00  0.00    +0.000 A 
ATOM     24  N   UNL     1       5.891   4.367  17.025  0.00  0.00    +0.000 NA
ENDBRANCH  13  14
ENDBRANCH   1  13
TORSDOF 6
ENDMDL
MODEL 2
REMARK VINA RESULT:      -7.4      4.624      8.063
REMARK  Name = 
REMARK  6 active torsions:
REMARK  status: ('A' for Active; 'I' for Inactive)
REMARK    1  A    between atoms: C_6  and  C_7
REMARK    2  A    between atoms: C_7  and  C_8
REMARK    3  A    between atoms: C_8  and  C_9
REMARK    4  A    between atoms: C_9  and  N_10
REMARK    5  A    between atoms: N_10  and  C_11
REMARK    6  A    between atoms: C_11  and  C_12
REMARK                            x       y       z     vdW  Elec       q    Type
REMARK                         _______ _______ _______ _____ _____    ______ ____
ROOT
ATOM      1  N   UNL     1       7.706   7.910  17.103  0.00  0.00    +0.000 NA
ATOM      2  H   UNL     1       8.580   7.761  16.596  0.00  0.00    +0.000 HD
ENDROOT
BRANCH   1   3
ATOM      3  C   UNL     1       7.806   9.154  17.872  0.00  0.00    +0.000 C 
BRANCH   3   4
ATOM      4  C   UNL     1       9.131   9.279  18.629  0.00  0.00    +0.000 C 
BRANCH   4   5
ATOM      5  C   UNL     1       9.159  10.490  19.558  0.00  0.00    +0.000 C 
BRANCH   5  11
ATOM      6  F   UNL     1      11.404  13.191  16.165  0.00  0.00    +0.000 F 
ATOM      7  C   UNL     1      11.352  12.751  17.428  0.00  0.00    +0.000 A 
ATOM      8  C   UNL     1      12.333  13.144  18.331  0.00  0.00    +0.000 A 
ATOM      9  C   UNL     1      12.287  12.675  19.641  0.00  0.00    +0.000 A 
ATOM     10  C   UNL     1      11.252  11.825  20.041  0.00  0.00    +0.000 A 
ATOM     11  C   UNL     1      10.251  11.441  19.133  0.00  0.00    +0.000 A 
ATOM     12  C   UNL     1      10.318  11.904  17.813  0.00  0.00    +0.000 A 
ENDBRANCH   5  11
ENDBRANCH   4   5
ENDBRANCH   3   4
ENDBRANCH   1   3
BRANCH   1  13
ATOM     13  C   UNL     1       7.467   6.736  17.957  0.00  0.00    +0.000 C 
BRANCH  13  14
ATOM     14  C   UNL     1       6.634   5.690  17.251  0.00  0.00    +0.000 A 
ATOM     15  C   UNL     1       7.136   5.007  16.163  0.00  0.00    +0.000 A 
ATOM     16  C   UNL     1       6.323   4.028  15.639  0.00  0.00    +0.000 A 
ATOM     17  N   UNL     1       5.106   3.726  16.129  0.00  0.00    +0.000 NA
ATOM     18  C   UNL     1       4.689   4.454  17.186  0.00  0.00    +0.000 A 
ATOM     19  N   UNL     1       3.410   4.175  17.726  0.00  0.00    +0.000 N 
ATOM     20  C   UNL     1       2.761   4.853  18.737  0.00  0.00    +0.000 A 
ATOM     21  C   UNL     1       1.556   4.215  18.897  0.00  0.00    +0.000 A 
ATOM     22  N   UNL     1       1.441   3.162  18.029  0.00  0.00    +0.000 NA
ATOM     23  C   UNL     1       2.564   3.162  17.340  0.00  0.00    +0.000 A 
ATOM     24  N   UNL     1       5.410   5.431  17.768  0.00  0.00    +0.000 NA
ENDBRANCH  13  14
ENDBRANCH   1  13
TORSDOF 6
ENDMDL
MODEL 3
REMARK VINA RESULT:      -7.4      1.105      1.528
REMARK  Name = 
REMARK  6 active torsions:
REMARK  status: ('A' for Active; 'I' for Inactive)
REMARK    1  A    between atoms: C_6  and  C_7
REMARK    2  A    between atoms: C_7  and  C_8
REMARK    3  A    between atoms: C_8  and  C_9
REMARK    4  A    between atoms: C_9  and  N_10
REMARK    5  A    between atoms: N_10  and  C_11
REMARK    6  A    between atoms: C_11  and  C_12
REMARK                            x       y       z     vdW  Elec       q    Type
REMARK                         _______ _______ _______ _____ _____    ______ ____
ROOT
ATOM      1  N   UNL     1       4.323   2.640  17.910  0.00  0.00    +0.000 NA
ATOM      2  H   UNL     1       3.786   3.122  17.187  0.00  0.00    +0.000 HD
ENDROOT
BRANCH   1   3
ATOM      3  C   UNL     1       3.406   1.854  18.742  0.00  0.00    +0.000 C 
BRANCH   3   4
ATOM      4  C   UNL     1       2.794   2.669  19.883  0.00  0.00    +0.000 C 
BRANCH   4   5
ATOM      5  C   UNL     1       1.531   3.413  19.455  0.00  0.00    +0.000 C 
BRANCH   5  11
ATOM      6  F   UNL     1       1.672   7.870  21.446  0.00  0.00    +0.000 F 
ATOM      7  C   UNL     1       1.849   7.089  20.374  0.00  0.00    +0.000 A 
ATOM      8  C   UNL     1       2.250   7.659  19.171  0.00  0.00    +0.000 A 
ATOM      9  C   UNL     1       2.421   6.849  18.052  0.00  0.00    +0.000 A 
ATOM     10  C   UNL     1       2.199   5.473  18.147  0.00  0.00    +0.000 A 
ATOM     11  C   UNL     1       1.810   4.894  19.367  0.00  0.00    +0.000 A 
ATOM     12  C   UNL     1       1.623   5.721  20.481  0.00  0.00    +0.000 A 
ENDBRANCH   5  11
ENDBRANCH   4   5
ENDBRANCH   3   4
ENDBRANCH   1   3
BRANCH   1  13
ATOM     13  C   UNL     1       5.059   3.652  18.683  0.00  0.00    +0.000 C 
BRANCH  13  14
ATOM     14  C   UNL     1       5.870   4.560  17.786  0.00  0.00    +0.000 A 
ATOM     15  C   UNL     1       6.539   5.647  18.308  0.00  0.00    +0.000 A 
ATOM     16  C   UNL     1       7.304   6.367  17.418  0.00  0.00    +0.000 A 
ATOM     17  N   UNL     1       7.416   6.061  16.112  0.00  0.00    +0.000 NA
ATOM     18  C   UNL     1       6.716   4.990  15.685  0.00  0.00    +0.000 A 
ATOM     19  N   UNL     1       6.798   4.639  14.315  0.00  0.00    +0.000 N 
ATOM     20  C   UNL     1       6.100   3.647  13.661  0.00  0.00    +0.000 A 
ATOM     21  C   UNL     1       6.517   3.701  12.354  0.00  0.00    +0.000 A 
ATOM     22  N   UNL     1       7.453   4.685  12.179  0.00  0.00    +0.000 NA
ATOM     23  C   UNL     1       7.602   5.230  13.369  0.00  0.00    +0.000 A 
ATOM     24  N   UNL     1       5.941   4.224  16.477  0.00  0.00    +0.000 NA
ENDBRANCH  13  14
ENDBRANCH   1  13
TORSDOF 6
ENDMDL
MODEL 4
REMARK VINA RESULT:      -7.1      4.200      7.541
REMARK  Name = 
REMARK  6 active torsions:
REMARK  status: ('A' for Active; 'I' for Inactive)
REMARK    1  A    between atoms: C_6  and  C_7
REMARK    2  A    between atoms: C_7  and  C_8
REMARK    3  A    between atoms: C_8  and  C_9
REMARK    4  A    between atoms: C_9  and  N_10
REMARK    5  A    between atoms: N_10  and  C_11
REMARK    6  A    between atoms: C_11  and  C_12
REMARK                            x       y       z     vdW  Elec       q    Type
REMARK                         _______ _______ _______ _____ _____    ______ ____
ROOT
ATOM      1  N   UNL     1       8.394   6.972  18.801  0.00  0.00    +0.000 NA
ATOM      2  H   UNL     1       8.729   7.528  19.590  0.00  0.00    +0.000 HD
ENDROOT
BRANCH   1   3
ATOM      3  C   UNL     1       7.543   7.813  17.952  0.00  0.00    +0.000 C 
BRANCH   3   4
ATOM      4  C   UNL     1       8.206   9.141  17.579  0.00  0.00    +0.000 C 
BRANCH   4   5
ATOM      5  C   UNL     1       8.902   9.799  18.768  0.00  0.00    +0.000 C 
BRANCH   5  11
ATOM      6  F   UNL     1       8.499  14.567  17.795  0.00  0.00    +0.000 F 
ATOM      7  C   UNL     1       9.266  13.472  17.855  0.00  0.00    +0.000 A 
ATOM      8  C   UNL     1      10.605  13.553  17.491  0.00  0.00    +0.000 A 
ATOM      9  C   UNL     1      11.399  12.411  17.540  0.00  0.00    +0.000 A 
ATOM     10  C   UNL     1      10.850  11.198  17.964  0.00  0.00    +0.000 A 
ATOM     11  C   UNL     1       9.502  11.120  18.349  0.00  0.00    +0.000 A 
ATOM     12  C   UNL     1       8.707  12.270  18.277  0.00  0.00    +0.000 A 
ENDBRANCH   5  11
ENDBRANCH   4   5
ENDBRANCH   3   4
ENDBRANCH   1   3
BRANCH   1  13
ATOM     13  C   UNL     1       7.679   5.804  19.336  0.00  0.00    +0.000 C 
BRANCH  13  14
ATOM     14  C   UNL     1       6.806   5.152  18.288  0.00  0.00    +0.000 A 
ATOM     15  C   UNL     1       7.336   4.758  17.077  0.00  0.00    +0.000 A 
ATOM     16  C   UNL     1       6.471   4.113  16.223  0.00  0.00    +0.000 A 
ATOM     17  N   UNL     1       5.181   3.863  16.514  0.00  0.00    +0.000 NA
ATOM     18  C   UNL     1       4.744   4.296  17.715  0.00  0.00    +0.000 A 
ATOM     19  N   UNL     1       3.389   4.062  18.057  0.00  0.00    +0.000 N 
ATOM     20  C   UNL     1       2.723   4.496  19.183  0.00  0.00    +0.000 A 
ATOM     21  C   UNL     1       1.439   4.026  19.058  0.00  0.00    +0.000 A 
ATOM     22  N   UNL     1       1.291   3.309  17.901  0.00  0.00    +0.000 NA
ATOM     23  C   UNL     1       2.474   3.348  17.321  0.00  0.00    +0.000 A 
ATOM     24  N   UNL     1       5.511   4.936  18.618  0.00  0.00    +0.000 NA
ENDBRANCH  13  14
ENDBRANCH   1  13
TORSDOF 6
ENDMDL
MODEL 5
REMARK VINA RESULT:      -7.0      4.247      7.849
REMARK  Name = 
REMARK  6 active torsions:
REMARK  status: ('A' for Active; 'I' for Inactive)
REMARK    1  A    between atoms: C_6  and  C_7
REMARK    2  A    between atoms: C_7  and  C_8
REMARK    3  A    between atoms: C_8  and  C_9
REMARK    4  A    between atoms: C_9  and  N_10
REMARK    5  A    between atoms: N_10  and  C_11
REMARK    6  A    between atoms: C_11  and  C_12
REMARK                            x       y       z     vdW  Elec       q    Type
REMARK                         _______ _______ _______ _____ _____    ______ ____
ROOT
ATOM      1  N   UNL     1       6.780   7.330  17.052  0.00  0.00    +0.000 NA
ATOM      2  H   UNL     1       7.234   7.519  16.156  0.00  0.00    +0.000 HD
ENDROOT
BRANCH   1   3
ATOM      3  C   UNL     1       7.807   7.050  18.059  0.00  0.00    +0.000 C 
BRANCH   3   4
ATOM      4  C   UNL     1       8.504   8.316  18.563  0.00  0.00    +0.000 C 
BRANCH   4   5
ATOM      5  C   UNL     1       8.070   9.563  17.797  0.00  0.00    +0.000 C 
BRANCH   5  11
ATOM      6  F   UNL     1      11.312  11.641  20.801  0.00  0.00    +0.000 F 
ATOM      7  C   UNL     1      10.458  11.763  19.777  0.00  0.00    +0.000 A 
ATOM      8  C   UNL     1      10.281  13.004  19.178  0.00  0.00    +0.000 A 
ATOM      9  C   UNL     1       9.381  13.133  18.122  0.00  0.00    +0.000 A 
ATOM     10  C   UNL     1       8.675  12.017  17.669  0.00  0.00    +0.000 A 
ATOM     11  C   UNL     1       8.866  10.759  18.264  0.00  0.00    +0.000 A 
ATOM     12  C   UNL     1       9.759  10.644  19.336  0.00  0.00    +0.000 A 
ENDBRANCH   5  11
ENDBRANCH   4   5
ENDBRANCH   3   4
ENDBRANCH   1   3
BRANCH   1  13
ATOM     13  C   UNL     1       5.851   6.205  16.864  0.00  0.00    +0.000 C 
BRANCH  13  14
ATOM     14  C   UNL     1       4.582   6.386  17.666  0.00  0.00    +0.000 A 
ATOM     15  C   UNL     1       3.813   7.521  17.518  0.00  0.00    +0.000 A 
ATOM     16  C   UNL     1       2.643   7.553  18.243  0.00  0.00    +0.000 A 
ATOM     17  N   UNL     1       2.240   6.559  19.056  0.00  0.00    +0.000 NA
ATOM     18  C   UNL     1       3.061   5.492  19.151  0.00  0.00    +0.000 A 
ATOM     19  N   UNL     1       2.680   4.428  20.004  0.00  0.00    +0.000 N 
ATOM     20  C   UNL     1       3.409   3.299  20.312  0.00  0.00    +0.000 A 
ATOM     21  C   UNL     1       2.625   2.577  21.177  0.00  0.00    +0.000 A 
ATOM     22  N   UNL     1       1.435   3.214  21.407  0.00  0.00    +0.000 NA
ATOM     23  C   UNL     1       1.496   4.320  20.693  0.00  0.00    +0.000 A 
ATOM     24  N   UNL     1       4.225   5.368  18.484  0.00  0.00    +0.000 NA
ENDBRANCH  13  14
ENDBRANCH   1  13
TORSDOF 6
ENDMDL
MODEL 6
REMARK VINA RESULT:      -6.9      4.565      8.182
REMARK  Name = 
REMARK  6 active torsions:
REMARK  status: ('A' for Active; 'I' for Inactive)
REMARK    1  A    between atoms: C_6  and  C_7
REMARK    2  A    between atoms: C_7  and  C_8
REMARK    3  A    between atoms: C_8  and  C_9
REMARK    4  A    between atoms: C_9  and  N_10
REMARK    5  A    between atoms: N_10  and  C_11
REMARK    6  A    between atoms: C_11  and  C_12
REMARK                            x       y       z     vdW  Elec       q    Type
REMARK                         _______ _______ _______ _____ _____    ______ ____
ROOT
ATOM      1  N   UNL     1       7.517   7.269  17.057  0.00  0.00    +0.000 NA
ATOM      2  H   UNL     1       7.740   6.275  16.981  0.00  0.00    +0.000 HD
ENDROOT
BRANCH   1   3
ATOM      3  C   UNL     1       8.164   7.812  18.256  0.00  0.00    +0.000 C 
BRANCH   3   4
ATOM      4  C   UNL     1       8.442   9.313  18.150  0.00  0.00    +0.000 C 
BRANCH   4   5
ATOM      5  C   UNL     1       9.068   9.880  19.422  0.00  0.00    +0.000 C 
BRANCH   5  11
ATOM      6  F   UNL     1      11.299  14.025  20.722  0.00  0.00    +0.000 F 
ATOM      7  C   UNL     1      10.976  13.152  19.761  0.00  0.00    +0.000 A 
ATOM      8  C   UNL     1      11.377  13.396  18.452  0.00  0.00    +0.000 A 
ATOM      9  C   UNL     1      11.028  12.494  17.450  0.00  0.00    +0.000 A 
ATOM     10  C   UNL     1      10.291  11.351  17.766  0.00  0.00    +0.000 A 
ATOM     11  C   UNL     1       9.900  11.096  19.091  0.00  0.00    +0.000 A 
ATOM     12  C   UNL     1      10.240  12.018  20.088  0.00  0.00    +0.000 A 
ENDBRANCH   5  11
ENDBRANCH   4   5
ENDBRANCH   3   4
ENDBRANCH   1   3
BRANCH   1  13
ATOM     13  C   UNL     1       6.053   7.407  17.093  0.00  0.00    +0.000 C 
BRANCH  13  14
ATOM     14  C   UNL     1       5.362   6.063  17.047  0.00  0.00    +0.000 A 
ATOM     15  C   UNL     1       5.572   5.201  15.991  0.00  0.00    +0.000 A 
ATOM     16  C   UNL     1       4.950   3.976  16.082  0.00  0.00    +0.000 A 
ATOM     17  N   UNL     1       4.177   3.606  17.120  0.00  0.00    +0.000 NA
ATOM     18  C   UNL     1       4.016   4.518  18.102  0.00  0.00    +0.000 A 
ATOM     19  N   UNL     1       3.201   4.172  19.208  0.00  0.00    +0.000 N 
ATOM     20  C   UNL     1       2.836   4.980  20.264  0.00  0.00    +0.000 A 
ATOM     21  C   UNL     1       2.043   4.201  21.069  0.00  0.00    +0.000 A 
ATOM     22  N   UNL     1       1.913   2.939  20.554  0.00  0.00    +0.000 NA
ATOM     23  C   UNL     1       2.616   2.950  19.440  0.00  0.00    +0.000 A 
ATOM     24  N   UNL     1       4.581   5.740  18.104  0.00  0.00    +0.000 NA
ENDBRANCH  13  14
ENDBRANCH   1  13
TORSDOF 6
ENDMDL
MODEL 7
REMARK VINA RESULT:      -6.9      1.617      2.850
REMARK  Name = 
REMARK  6 active torsions:
REMARK  status: ('A' for Active; 'I' for Inactive)
REMARK    1  A    between atoms: C_6  and  C_7
REMARK    2  A    between atoms: C_7  and  C_8
REMARK    3  A    between atoms: C_8  and  C_9
REMARK    4  A    between atoms: C_9  and  N_10
REMARK    5  A    between atoms: N_10  and  C_11
REMARK    6  A    between atoms: C_11  and  C_12
REMARK                            x       y       z     vdW  Elec       q    Type
REMARK                         _______ _______ _______ _____ _____    ______ ____
ROOT
ATOM      1  N   UNL     1       1.595   2.302  19.183  0.00  0.00    +0.000 NA
ATOM      2  H   UNL     1       0.808   1.661  19.064  0.00  0.00    +0.000 HD
ENDROOT
BRANCH   1   3
ATOM      3  C   UNL     1       1.111   3.680  19.054  0.00  0.00    +0.000 C 
BRANCH   3   4
ATOM      4  C   UNL     1       0.986   4.394  20.402  0.00  0.00    +0.000 C 
BRANCH   4   5
ATOM      5  C   UNL     1       2.215   5.238  20.730  0.00  0.00    +0.000 C 
BRANCH   5  11
ATOM      6  F   UNL     1       0.741   9.854  20.127  0.00  0.00    +0.000 F 
ATOM      7  C   UNL     1       1.421   8.800  19.662  0.00  0.00    +0.000 A 
ATOM      8  C   UNL     1       2.060   8.887  18.430  0.00  0.00    +0.000 A 
ATOM      9  C   UNL     1       2.756   7.785  17.939  0.00  0.00    +0.000 A 
ATOM     10  C   UNL     1       2.815   6.608  18.689  0.00  0.00    +0.000 A 
ATOM     11  C   UNL     1       2.183   6.525  19.941  0.00  0.00    +0.000 A 
ATOM     12  C   UNL     1       1.471   7.632  20.417  0.00  0.00    +0.000 A 
ENDBRANCH   5  11
ENDBRANCH   4   5
ENDBRANCH   3   4
ENDBRANCH   1   3
BRANCH   1  13
ATOM     13  C   UNL     1       2.615   1.965  18.179  0.00  0.00    +0.000 C 
BRANCH  13  14
ATOM     14  C   UNL     1       3.825   2.866  18.285  0.00  0.00    +0.000 A 
ATOM     15  C   UNL     1       4.332   3.219  19.518  0.00  0.00    +0.000 A 
ATOM     16  C   UNL     1       5.476   3.985  19.500  0.00  0.00    +0.000 A 
ATOM     17  N   UNL     1       6.091   4.384  18.371  0.00  0.00    +0.000 NA
ATOM     18  C   UNL     1       5.517   4.004  17.211  0.00  0.00    +0.000 A 
ATOM     19  N   UNL     1       6.126   4.412  15.999  0.00  0.00    +0.000 N 
ATOM     20  C   UNL     1       5.659   4.211  14.717  0.00  0.00    +0.000 A 
ATOM     21  C   UNL     1       6.589   4.791  13.890  0.00  0.00    +0.000 A 
ATOM     22  N   UNL     1       7.617   5.333  14.612  0.00  0.00    +0.000 NA
ATOM     23  C   UNL     1       7.314   5.093  15.872  0.00  0.00    +0.000 A 
ATOM     24  N   UNL     1       4.400   3.257  17.124  0.00  0.00    +0.000 NA
ENDBRANCH  13  14
ENDBRANCH   1  13
TORSDOF 6
ENDMDL
MODEL 8
REMARK VINA RESULT:      -6.9      4.512      8.104
REMARK  Name = 
REMARK  6 active torsions:
REMARK  status: ('A' for Active; 'I' for Inactive)
REMARK    1  A    between atoms: C_6  and  C_7
REMARK    2  A    between atoms: C_7  and  C_8
REMARK    3  A    between atoms: C_8  and  C_9
REMARK    4  A    between atoms: C_9  and  N_10
REMARK    5  A    between atoms: N_10  and  C_11
REMARK    6  A    between atoms: C_11  and  C_12
REMARK                            x       y       z     vdW  Elec       q    Type
REMARK                         _______ _______ _______ _____ _____    ______ ____
ROOT
ATOM      1  N   UNL     1       7.368   7.284  17.729  0.00  0.00    +0.000 NA
ATOM      2  H   UNL     1       7.483   7.489  16.735  0.00  0.00    +0.000 HD
ENDROOT
BRANCH   1   3
ATOM      3  C   UNL     1       8.396   8.004  18.487  0.00  0.00    +0.000 C 
BRANCH   3   4
ATOM      4  C   UNL     1       8.445   9.496  18.150  0.00  0.00    +0.000 C 
BRANCH   4   5
ATOM      5  C   UNL     1       9.214  10.303  19.192  0.00  0.00    +0.000 C 
BRANCH   5  11
ATOM      6  F   UNL     1       8.821  15.019  17.987  0.00  0.00    +0.000 F 
ATOM      7  C   UNL     1       9.536  13.888  17.965  0.00  0.00    +0.000 A 
ATOM      8  C   UNL     1      10.771  13.871  17.327  0.00  0.00    +0.000 A 
ATOM      9  C   UNL     1      11.508  12.690  17.292  0.00  0.00    +0.000 A 
ATOM     10  C   UNL     1      11.009  11.539  17.906  0.00  0.00    +0.000 A 
ATOM     11  C   UNL     1       9.769  11.560  18.566  0.00  0.00    +0.000 A 
ATOM     12  C   UNL     1       9.027  12.748  18.578  0.00  0.00    +0.000 A 
ENDBRANCH   5  11
ENDBRANCH   4   5
ENDBRANCH   3   4
ENDBRANCH   1   3
BRANCH   1  13
ATOM     13  C   UNL     1       7.453   5.826  17.907  0.00  0.00    +0.000 C 
BRANCH  13  14
ATOM     14  C   UNL     1       6.179   5.134  17.477  0.00  0.00    +0.000 A 
ATOM     15  C   UNL     1       6.098   4.508  16.251  0.00  0.00    +0.000 A 
ATOM     16  C   UNL     1       4.919   3.849  15.988  0.00  0.00    +0.000 A 
ATOM     17  N   UNL     1       3.884   3.796  16.849  0.00  0.00    +0.000 NA
ATOM     18  C   UNL     1       4.046   4.448  18.019  0.00  0.00    +0.000 A 
ATOM     19  N   UNL     1       2.978   4.426  18.949  0.00  0.00    +0.000 N 
ATOM     20  C   UNL     1       2.900   5.095  20.152  0.00  0.00    +0.000 A 
ATOM     21  C   UNL     1       1.678   4.764  20.682  0.00  0.00    +0.000 A 
ATOM     22  N   UNL     1       1.002   3.908  19.855  0.00  0.00    +0.000 NA
ATOM     23  C   UNL     1       1.802   3.723  18.825  0.00  0.00    +0.000 A 
ATOM     24  N   UNL     1       5.160   5.120  18.367  0.00  0.00    +0.000 NA
ENDBRANCH  13  14
ENDBRANCH   1  13
TORSDOF 6
ENDMDL
MODEL 9
REMARK VINA RESULT:      -6.9      4.323      7.354
REMARK  Name = 
REMARK  6 active torsions:
REMARK  status: ('A' for Active; 'I' for Inactive)
REMARK    1  A    between atoms: C_6  and  C_7
REMARK    2  A    between atoms: C_7  and  C_8
REMARK    3  A    between atoms: C_8  and  C_9
REMARK    4  A    between atoms: C_9  and  N_10
REMARK    5  A    between atoms: N_10  and  C_11
REMARK    6  A    between atoms: C_11  and  C_12
REMARK                            x       y       z     vdW  Elec       q    Type
REMARK                         _______ _______ _______ _____ _____    ______ ____
ROOT
ATOM      1  N   UNL     1       1.357   4.524  20.171  0.00  0.00    +0.000 NA
ATOM      2  H   UNL     1       1.363   3.839  20.928  0.00  0.00    +0.000 HD
ENDROOT
BRANCH   1   3
ATOM      3  C   UNL     1       1.459   3.820  18.889  0.00  0.00    +0.000 C 
BRANCH   3   4
ATOM      4  C   UNL     1       2.878   3.329  18.593  0.00  0.00    +0.000 C 
BRANCH   4   5
ATOM      5  C   UNL     1       3.350   3.720  17.195  0.00  0.00    +0.000 C 
BRANCH   5  11
ATOM      6  F   UNL     1       7.093   5.519  19.763  0.00  0.00    +0.000 F 
ATOM      7  C   UNL     1       6.531   5.282  18.572  0.00  0.00    +0.000 A 
ATOM      8  C   UNL     1       7.184   5.689  17.414  0.00  0.00    +0.000 A 
ATOM      9  C   UNL     1       6.592   5.456  16.175  0.00  0.00    +0.000 A 
ATOM     10  C   UNL     1       5.356   4.808  16.105  0.00  0.00    +0.000 A 
ATOM     11  C   UNL     1       4.704   4.382  17.274  0.00  0.00    +0.000 A 
ATOM     12  C   UNL     1       5.299   4.639  18.515  0.00  0.00    +0.000 A 
ENDBRANCH   5  11
ENDBRANCH   4   5
ENDBRANCH   3   4
ENDBRANCH   1   3
BRANCH   1  13
ATOM     13  C   UNL     1       2.470   5.459  20.392  0.00  0.00    +0.000 C 
BRANCH  13  14
ATOM     14  C   UNL     1       2.120   6.862  19.950  0.00  0.00    +0.000 A 
ATOM     15  C   UNL     1       2.478   7.314  18.697  0.00  0.00    +0.000 A 
ATOM     16  C   UNL     1       2.049   8.580  18.369  0.00  0.00    +0.000 A 
ATOM     17  N   UNL     1       1.324   9.361  19.192  0.00  0.00    +0.000 NA
ATOM     18  C   UNL     1       1.031   8.843  20.403  0.00  0.00    +0.000 A 
ATOM     19  N   UNL     1       0.278   9.635  21.304  0.00  0.00    +0.000 N 
ATOM     20  C   UNL     1      -0.050   9.337  22.609  0.00  0.00    +0.000 A 
ATOM     21  C   UNL     1      -0.776  10.410  23.063  0.00  0.00    +0.000 A 
ATOM     22  N   UNL     1      -0.917  11.355  22.083  0.00  0.00    +0.000 NA
ATOM     23  C   UNL     1      -0.276  10.866  21.041  0.00  0.00    +0.000 A 
ATOM     24  N   UNL     1       1.405   7.617  20.816  0.00  0.00    +0.000 NA
ENDBRANCH  13  14
ENDBRANCH   1  13
TORSDOF 6
ENDMDL
