MODEL 1
REMARK VINA RESULT:      -6.7      0.000      0.000
REMARK  Name = 
REMARK  5 active torsions:
REMARK  status: ('A' for Active; 'I' for Inactive)
REMARK    1  A    between atoms: C_1  and  O_2
REMARK    2  A    between atoms: O_2  and  C_3
REMARK    3  A    between atoms: C_8  and  C_9
REMARK    4  A    between atoms: N_11  and  C_12
REMARK    5  A    between atoms: C_12  and  C_13
REMARK                            x       y       z     vdW  Elec       q    Type
REMARK                         _______ _______ _______ _____ _____    ______ ____
ROOT
ATOM      1  C   UNL     1       4.517   3.630  18.847  0.00  0.00    +0.000 C 
ATOM      2  O   UNL     1       5.460   3.102  19.426  0.00  0.00    +0.000 OA
ATOM      3  N   UNL     1       4.675   4.306  17.652  0.00  0.00    +0.000 N 
ATOM      4  H   UNL     1       3.835   4.697  17.235  0.00  0.00    +0.000 HD
ENDROOT
BRANCH   1  10
ATOM      5  C   UNL     1       2.454   4.717  19.887  0.00  0.00    +0.000 A 
ATOM      6  C   UNL     1       1.139   4.555  20.335  0.00  0.00    +0.000 A 
ATOM      7  C   UNL     1       0.523   3.307  20.257  0.00  0.00    +0.000 A 
ATOM      8  C   UNL     1       1.237   2.247  19.729  0.00  0.00    +0.000 A 
ATOM      9  N   UNL     1       2.505   2.348  19.280  0.00  0.00    +0.000 NA
ATOM     10  C   UNL     1       3.092   3.588  19.359  0.00  0.00    +0.000 A 
BRANCH   5  12
ATOM     11  C   UNL     1       2.579   6.944  19.055  0.00  0.00    +0.000 C 
ATOM     12  O   UNL     1       3.099   5.920  19.893  0.00  0.00    +0.000 OA
ENDBRANCH   5  12
ENDBRANCH   1  10
BRANCH   3  13
ATOM     13  C   UNL     1       5.946   4.418  16.980  0.00  0.00    +0.000 C 
BRANCH  13  14
ATOM     14  C   UNL     1       6.745   5.589  17.494  0.00  0.00    +0.000 A 
ATOM     15  C   UNL     1       6.653   6.838  16.857  0.00  0.00    +0.000 A 
ATOM     16  C   UNL     1       7.375   7.931  17.337  0.00  0.00    +0.000 A 
ATOM     17  C   UNL     1       8.200   7.776  18.445  0.00  0.00    +0.000 A 
ATOM     18  F   UNL     1       8.891   8.826  18.907  0.00  0.00    +0.000 F 
ATOM     19  C   UNL     1       8.318   6.545  19.079  0.00  0.00    +0.000 A 
ATOM     20  C   UNL     1       7.595   5.450  18.603  0.00  0.00    +0.000 A 
ENDBRANCH  13  14
ENDBRANCH   3  13
TORSDOF 4
ENDMDL
MODEL 2
REMARK VINA RESULT:      -6.7      3.028      5.788
REMARK  Name = 
REMARK  5 active torsions:
REMARK  status: ('A' for Active; 'I' for Inactive)
REMARK    1  A    between atoms: C_1  and  O_2
REMARK    2  A    between atoms: O_2  and  C_3
REMARK    3  A    between atoms: C_8  and  C_9
REMARK    4  A    between atoms: N_11  and  C_12
REMARK    5  A    between atoms: C_12  and  C_13
REMARK                            x       y       z     vdW  Elec       q    Type
REMARK                         _______ _______ _______ _____ _____    ______ ____
ROOT
ATOM      1  C   UNL     1       3.907   4.667  18.049  0.00  0.00    +0.000 C 
ATOM      2  O   UNL     1       3.059   3.791  18.175  0.00  0.00    +0.000 OA
ATOM      3  N   UNL     1       3.872   5.835  18.787  0.00  0.00    +0.000 N 
ATOM      4  H   UNL     1       4.626   6.496  18.630  0.00  0.00    +0.000 HD
ENDROOT
BRANCH   1  10
ATOM      5  C   UNL     1       6.409   4.651  17.538  0.00  0.00    +0.000 A 
ATOM      6  C   UNL     1       7.410   4.548  16.567  0.00  0.00    +0.000 A 
ATOM      7  C   UNL     1       7.068   4.379  15.225  0.00  0.00    +0.000 A 
ATOM      8  C   UNL     1       5.730   4.314  14.885  0.00  0.00    +0.000 A 
ATOM      9  N   UNL     1       4.724   4.404  15.781  0.00  0.00    +0.000 NA
ATOM     10  C   UNL     1       5.082   4.563  17.098  0.00  0.00    +0.000 A 
BRANCH   5  12
ATOM     11  C   UNL     1       7.656   5.727  19.257  0.00  0.00    +0.000 C 
ATOM     12  O   UNL     1       6.676   4.771  18.871  0.00  0.00    +0.000 OA
ENDBRANCH   5  12
ENDBRANCH   1  10
BRANCH   3  13
ATOM     13  C   UNL     1       2.859   6.101  19.779  0.00  0.00    +0.000 C 
BRANCH  13  14
ATOM     14  C   UNL     1       2.181   7.426  19.537  0.00  0.00    +0.000 A 
ATOM     15  C   UNL     1       2.248   8.030  18.271  0.00  0.00    +0.000 A 
ATOM     16  C   UNL     1       1.608   9.248  18.033  0.00  0.00    +0.000 A 
ATOM     17  C   UNL     1       0.911   9.868  19.062  0.00  0.00    +0.000 A 
ATOM     18  F   UNL     1       0.294  11.035  18.834  0.00  0.00    +0.000 F 
ATOM     19  C   UNL     1       0.846   9.295  20.327  0.00  0.00    +0.000 A 
ATOM     20  C   UNL     1       1.483   8.077  20.567  0.00  0.00    +0.000 A 
ENDBRANCH  13  14
ENDBRANCH   3  13
TORSDOF 4
ENDMDL
MODEL 3
REMARK VINA RESULT:      -6.7      2.650      3.427
REMARK  Name = 
REMARK  5 active torsions:
REMARK  status: ('A' for Active; 'I' for Inactive)
REMARK    1  A    between atoms: C_1  and  O_2
REMARK    2  A    between atoms: O_2  and  C_3
REMARK    3  A    between atoms: C_8  and  C_9
REMARK    4  A    between atoms: N_11  and  C_12
REMARK    5  A    between atoms: C_12  and  C_13
REMARK                            x       y       z     vdW  Elec       q    Type
REMARK                         _______ _______ _______ _____ _____    ______ ____
ROOT
ATOM      1  C   UNL     1       4.808   4.567  18.959  0.00  0.00    +0.000 C 
ATOM      2  O   UNL     1       5.861   4.058  19.326  0.00  0.00    +0.000 OA
ATOM      3  N   UNL     1       4.761   5.519  17.958  0.00  0.00    +0.000 N 
ATOM      4  H   UNL     1       3.843   5.872  17.707  0.00  0.00    +0.000 HD
ENDROOT
BRANCH   1  10
ATOM      5  C   UNL     1       2.534   5.174  19.950  0.00  0.00    +0.000 A 
ATOM      6  C   UNL     1       1.322   4.717  20.477  0.00  0.00    +0.000 A 
ATOM      7  C   UNL     1       1.078   3.349  20.588  0.00  0.00    +0.000 A 
ATOM      8  C   UNL     1       2.054   2.465  20.165  0.00  0.00    +0.000 A 
ATOM      9  N   UNL     1       3.239   2.850  19.646  0.00  0.00    +0.000 NA
ATOM     10  C   UNL     1       3.457   4.203  19.539  0.00  0.00    +0.000 A 
BRANCH   5  12
ATOM     11  C   UNL     1       1.877   7.438  20.275  0.00  0.00    +0.000 C 
ATOM     12  O   UNL     1       2.817   6.497  19.772  0.00  0.00    +0.000 OA
ENDBRANCH   5  12
ENDBRANCH   1  10
BRANCH   3  13
ATOM     13  C   UNL     1       5.936   5.965  17.250  0.00  0.00    +0.000 C 
BRANCH  13  14
ATOM     14  C   UNL     1       6.074   5.278  15.915  0.00  0.00    +0.000 A 
ATOM     15  C   UNL     1       7.274   5.383  15.191  0.00  0.00    +0.000 A 
ATOM     16  C   UNL     1       7.417   4.735  13.962  0.00  0.00    +0.000 A 
ATOM     17  C   UNL     1       6.360   3.992  13.451  0.00  0.00    +0.000 A 
ATOM     18  F   UNL     1       6.499   3.369  12.275  0.00  0.00    +0.000 F 
ATOM     19  C   UNL     1       5.160   3.889  14.145  0.00  0.00    +0.000 A 
ATOM     20  C   UNL     1       5.014   4.533  15.374  0.00  0.00    +0.000 A 
ENDBRANCH  13  14
ENDBRANCH   3  13
TORSDOF 4
ENDMDL
MODEL 4
REMARK VINA RESULT:      -6.7      0.961      1.442
REMARK  Name = 
REMARK  5 active torsions:
REMARK  status: ('A' for Active; 'I' for Inactive)
REMARK    1  A    between atoms: C_1  and  O_2
REMARK    2  A    between atoms: O_2  and  C_3
REMARK    3  A    between atoms: C_8  and  C_9
REMARK    4  A    between atoms: N_11  and  C_12
REMARK    5  A    between atoms: C_12  and  C_13
REMARK                            x       y       z     vdW  Elec       q    Type
REMARK                         _______ _______ _______ _____ _____    ______ ____
ROOT
ATOM      1  C   UNL     1       4.274   3.754  18.029  0.00  0.00    +0.000 C 
ATOM      2  O   UNL     1       4.124   3.694  16.814  0.00  0.00    +0.000 OA
ATOM      3  N   UNL     1       5.509   3.983  18.606  0.00  0.00    +0.000 N 
ATOM      4  H   UNL     1       5.536   4.034  19.621  0.00  0.00    +0.000 HD
ENDROOT
BRANCH   1  10
ATOM      5  C   UNL     1       2.737   4.652  19.860  0.00  0.00    +0.000 A 
ATOM      6  C   UNL     1       1.681   4.394  20.740  0.00  0.00    +0.000 A 
ATOM      7  C   UNL     1       1.084   3.134  20.765  0.00  0.00    +0.000 A 
ATOM      8  C   UNL     1       1.556   2.159  19.905  0.00  0.00    +0.000 A 
ATOM      9  N   UNL     1       2.568   2.354  19.035  0.00  0.00    +0.000 NA
ATOM     10  C   UNL     1       3.139   3.605  19.021  0.00  0.00    +0.000 A 
BRANCH   5  12
ATOM     11  C   UNL     1       2.608   6.900  19.089  0.00  0.00    +0.000 C 
ATOM     12  O   UNL     1       3.335   5.874  19.754  0.00  0.00    +0.000 OA
ENDBRANCH   5  12
ENDBRANCH   1  10
BRANCH   3  13
ATOM     13  C   UNL     1       6.706   4.197  17.830  0.00  0.00    +0.000 C 
BRANCH  13  14
ATOM     14  C   UNL     1       7.173   5.628  17.914  0.00  0.00    +0.000 A 
ATOM     15  C   UNL     1       8.009   6.035  18.967  0.00  0.00    +0.000 A 
ATOM     16  C   UNL     1       8.461   7.354  19.043  0.00  0.00    +0.000 A 
ATOM     17  C   UNL     1       8.069   8.269  18.073  0.00  0.00    +0.000 A 
ATOM     18  F   UNL     1       8.505   9.533  18.143  0.00  0.00    +0.000 F 
ATOM     19  C   UNL     1       7.230   7.890  17.032  0.00  0.00    +0.000 A 
ATOM     20  C   UNL     1       6.779   6.572  16.952  0.00  0.00    +0.000 A 
ENDBRANCH  13  14
ENDBRANCH   3  13
TORSDOF 4
ENDMDL
MODEL 5
REMARK VINA RESULT:      -6.6      2.963      5.842
REMARK  Name = 
REMARK  5 active torsions:
REMARK  status: ('A' for Active; 'I' for Inactive)
REMARK    1  A    between atoms: C_1  and  O_2
REMARK    2  A    between atoms: O_2  and  C_3
REMARK    3  A    between atoms: C_8  and  C_9
REMARK    4  A    between atoms: N_11  and  C_12
REMARK    5  A    between atoms: C_12  and  C_13
REMARK                            x       y       z     vdW  Elec       q    Type
REMARK                         _______ _______ _______ _____ _____    ______ ____
ROOT
ATOM      1  C   UNL     1       4.168   4.463  18.171  0.00  0.00    +0.000 C 
ATOM      2  O   UNL     1       3.632   3.448  18.604  0.00  0.00    +0.000 OA
ATOM      3  N   UNL     1       3.849   5.721  18.644  0.00  0.00    +0.000 N 
ATOM      4  H   UNL     1       4.356   6.503  18.239  0.00  0.00    +0.000 HD
ENDROOT
BRANCH   1  10
ATOM      5  C   UNL     1       6.596   4.607  17.394  0.00  0.00    +0.000 A 
ATOM      6  C   UNL     1       7.489   4.586  16.318  0.00  0.00    +0.000 A 
ATOM      7  C   UNL     1       7.014   4.428  15.017  0.00  0.00    +0.000 A 
ATOM      8  C   UNL     1       5.652   4.290  14.821  0.00  0.00    +0.000 A 
ATOM      9  N   UNL     1       4.746   4.300  15.821  0.00  0.00    +0.000 NA
ATOM     10  C   UNL     1       5.236   4.450  17.097  0.00  0.00    +0.000 A 
BRANCH   5  12
ATOM     11  C   UNL     1       7.690   5.898  19.067  0.00  0.00    +0.000 C 
ATOM     12  O   UNL     1       6.999   4.713  18.693  0.00  0.00    +0.000 OA
ENDBRANCH   5  12
ENDBRANCH   1  10
BRANCH   3  13
ATOM     13  C   UNL     1       2.889   5.939  19.699  0.00  0.00    +0.000 C 
BRANCH  13  14
ATOM     14  C   UNL     1       2.208   7.277  19.562  0.00  0.00    +0.000 A 
ATOM     15  C   UNL     1       1.526   7.834  20.657  0.00  0.00    +0.000 A 
ATOM     16  C   UNL     1       0.907   9.080  20.546  0.00  0.00    +0.000 A 
ATOM     17  C   UNL     1       0.959   9.765  19.338  0.00  0.00    +0.000 A 
ATOM     18  F   UNL     1       0.368  10.962  19.232  0.00  0.00    +0.000 F 
ATOM     19  C   UNL     1       1.614   9.224  18.238  0.00  0.00    +0.000 A 
ATOM     20  C   UNL     1       2.236   7.980  18.348  0.00  0.00    +0.000 A 
ENDBRANCH  13  14
ENDBRANCH   3  13
TORSDOF 4
ENDMDL
MODEL 6
REMARK VINA RESULT:      -6.6      2.686      3.448
REMARK  Name = 
REMARK  5 active torsions:
REMARK  status: ('A' for Active; 'I' for Inactive)
REMARK    1  A    between atoms: C_1  and  O_2
REMARK    2  A    between atoms: O_2  and  C_3
REMARK    3  A    between atoms: C_8  and  C_9
REMARK    4  A    between atoms: N_11  and  C_12
REMARK    5  A    between atoms: C_12  and  C_13
REMARK                            x       y       z     vdW  Elec       q    Type
REMARK                         _______ _______ _______ _____ _____    ______ ____
ROOT
ATOM      1  C   UNL     1       4.905   4.486  18.890  0.00  0.00    +0.000 C 
ATOM      2  O   UNL     1       5.939   4.015  19.352  0.00  0.00    +0.000 OA
ATOM      3  N   UNL     1       4.910   5.368  17.826  0.00  0.00    +0.000 N 
ATOM      4  H   UNL     1       4.005   5.693  17.500  0.00  0.00    +0.000 HD
ENDROOT
BRANCH   1  10
ATOM      5  C   UNL     1       2.658   5.122  19.922  0.00  0.00    +0.000 A 
ATOM      6  C   UNL     1       1.411   4.688  20.385  0.00  0.00    +0.000 A 
ATOM      7  C   UNL     1       1.082   3.334  20.341  0.00  0.00    +0.000 A 
ATOM      8  C   UNL     1       2.008   2.442  19.832  0.00  0.00    +0.000 A 
ATOM      9  N   UNL     1       3.222   2.806  19.370  0.00  0.00    +0.000 NA
ATOM     10  C   UNL     1       3.525   4.146  19.415  0.00  0.00    +0.000 A 
BRANCH   5  12
ATOM     11  C   UNL     1       2.219   7.323  19.128  0.00  0.00    +0.000 C 
ATOM     12  O   UNL     1       3.025   6.436  19.895  0.00  0.00    +0.000 OA
ENDBRANCH   5  12
ENDBRANCH   1  10
BRANCH   3  13
ATOM     13  C   UNL     1       6.121   5.779  17.159  0.00  0.00    +0.000 C 
BRANCH  13  14
ATOM     14  C   UNL     1       6.235   5.164  15.787  0.00  0.00    +0.000 A 
ATOM     15  C   UNL     1       5.191   4.371  15.283  0.00  0.00    +0.000 A 
ATOM     16  C   UNL     1       5.281   3.812  14.006  0.00  0.00    +0.000 A 
ATOM     17  C   UNL     1       6.417   4.035  13.238  0.00  0.00    +0.000 A 
ATOM     18  F   UNL     1       6.502   3.502  12.013  0.00  0.00    +0.000 F 
ATOM     19  C   UNL     1       7.468   4.804  13.725  0.00  0.00    +0.000 A 
ATOM     20  C   UNL     1       7.380   5.366  15.000  0.00  0.00    +0.000 A 
ENDBRANCH  13  14
ENDBRANCH   3  13
TORSDOF 4
ENDMDL
MODEL 7
REMARK VINA RESULT:      -6.6      3.063      6.415
REMARK  Name = 
REMARK  5 active torsions:
REMARK  status: ('A' for Active; 'I' for Inactive)
REMARK    1  A    between atoms: C_1  and  O_2
REMARK    2  A    between atoms: O_2  and  C_3
REMARK    3  A    between atoms: C_8  and  C_9
REMARK    4  A    between atoms: N_11  and  C_12
REMARK    5  A    between atoms: C_12  and  C_13
REMARK                            x       y       z     vdW  Elec       q    Type
REMARK                         _______ _______ _______ _____ _____    ______ ____
ROOT
ATOM      1  C   UNL     1       4.755   4.786  17.933  0.00  0.00    +0.000 C 
ATOM      2  O   UNL     1       4.772   3.563  17.853  0.00  0.00    +0.000 OA
ATOM      3  N   UNL     1       3.577   5.508  17.900  0.00  0.00    +0.000 N 
ATOM      4  H   UNL     1       3.658   6.517  17.991  0.00  0.00    +0.000 HD
ENDROOT
BRANCH   1  10
ATOM      5  C   UNL     1       6.368   6.608  17.160  0.00  0.00    +0.000 A 
ATOM      6  C   UNL     1       7.545   7.320  17.411  0.00  0.00    +0.000 A 
ATOM      7  C   UNL     1       8.306   7.036  18.544  0.00  0.00    +0.000 A 
ATOM      8  C   UNL     1       7.870   6.045  19.404  0.00  0.00    +0.000 A 
ATOM      9  N   UNL     1       6.742   5.330  19.213  0.00  0.00    +0.000 NA
ATOM     10  C   UNL     1       6.002   5.630  18.094  0.00  0.00    +0.000 A 
BRANCH   5  12
ATOM     11  C   UNL     1       5.589   5.950  15.009  0.00  0.00    +0.000 C 
ATOM     12  O   UNL     1       5.554   6.867  16.095  0.00  0.00    +0.000 OA
ENDBRANCH   5  12
ENDBRANCH   1  10
BRANCH   3  13
ATOM     13  C   UNL     1       2.281   4.884  17.798  0.00  0.00    +0.000 C 
BRANCH  13  14
ATOM     14  C   UNL     1       1.925   4.136  19.058  0.00  0.00    +0.000 A 
ATOM     15  C   UNL     1       2.279   4.660  20.312  0.00  0.00    +0.000 A 
ATOM     16  C   UNL     1       1.938   3.983  21.484  0.00  0.00    +0.000 A 
ATOM     17  C   UNL     1       1.253   2.777  21.404  0.00  0.00    +0.000 A 
ATOM     18  F   UNL     1       0.923   2.129  22.528  0.00  0.00    +0.000 F 
ATOM     19  C   UNL     1       0.907   2.233  20.173  0.00  0.00    +0.000 A 
ATOM     20  C   UNL     1       1.244   2.909  18.999  0.00  0.00    +0.000 A 
ENDBRANCH  13  14
ENDBRANCH   3  13
TORSDOF 4
ENDMDL
MODEL 8
REMARK VINA RESULT:      -6.5      3.027      4.103
REMARK  Name = 
REMARK  5 active torsions:
REMARK  status: ('A' for Active; 'I' for Inactive)
REMARK    1  A    between atoms: C_1  and  O_2
REMARK    2  A    between atoms: O_2  and  C_3
REMARK    3  A    between atoms: C_8  and  C_9
REMARK    4  A    between atoms: N_11  and  C_12
REMARK    5  A    between atoms: C_12  and  C_13
REMARK                            x       y       z     vdW  Elec       q    Type
REMARK                         _______ _______ _______ _____ _____    ______ ____
ROOT
ATOM      1  C   UNL     1       4.972   5.136  19.085  0.00  0.00    +0.000 C 
ATOM      2  O   UNL     1       5.922   5.408  19.810  0.00  0.00    +0.000 OA
ATOM      3  N   UNL     1       5.058   5.201  17.707  0.00  0.00    +0.000 N 
ATOM      4  H   UNL     1       4.226   4.940  17.186  0.00  0.00    +0.000 HD
ENDROOT
BRANCH   1  10
ATOM      5  C   UNL     1       3.216   3.346  19.567  0.00  0.00    +0.000 A 
ATOM      6  C   UNL     1       1.945   3.052  20.072  0.00  0.00    +0.000 A 
ATOM      7  C   UNL     1       1.138   4.072  20.574  0.00  0.00    +0.000 A 
ATOM      8  C   UNL     1       1.623   5.367  20.563  0.00  0.00    +0.000 A 
ATOM      9  N   UNL     1       2.841   5.707  20.091  0.00  0.00    +0.000 NA
ATOM     10  C   UNL     1       3.623   4.686  19.607  0.00  0.00    +0.000 A 
BRANCH   5  12
ATOM     11  C   UNL     1       3.591   1.524  18.082  0.00  0.00    +0.000 C 
ATOM     12  O   UNL     1       4.071   2.390  19.103  0.00  0.00    +0.000 OA
ENDBRANCH   5  12
ENDBRANCH   1  10
BRANCH   3  13
ATOM     13  C   UNL     1       6.271   5.564  17.016  0.00  0.00    +0.000 C 
BRANCH  13  14
ATOM     14  C   UNL     1       6.299   5.009  15.615  0.00  0.00    +0.000 A 
ATOM     15  C   UNL     1       7.398   5.268  14.778  0.00  0.00    +0.000 A 
ATOM     16  C   UNL     1       7.441   4.743  13.485  0.00  0.00    +0.000 A 
ATOM     17  C   UNL     1       6.383   3.970  13.023  0.00  0.00    +0.000 A 
ATOM     18  F   UNL     1       6.425   3.465  11.784  0.00  0.00    +0.000 F 
ATOM     19  C   UNL     1       5.279   3.716  13.829  0.00  0.00    +0.000 A 
ATOM     20  C   UNL     1       5.234   4.237  15.123  0.00  0.00    +0.000 A 
ENDBRANCH  13  14
ENDBRANCH   3  13
TORSDOF 4
ENDMDL
MODEL 9
REMARK VINA RESULT:      -6.5      1.147      1.147
REMARK  Name = 
REMARK  5 active torsions:
REMARK  status: ('A' for Active; 'I' for Inactive)
REMARK    1  A    between atoms: C_1  and  O_2
REMARK    2  A    between atoms: O_2  and  C_3
REMARK    3  A    between atoms: C_8  and  C_9
REMARK    4  A    between atoms: N_11  and  C_12
REMARK    5  A    between atoms: C_12  and  C_13
REMARK                            x       y       z     vdW  Elec       q    Type
REMARK                         _______ _______ _______ _____ _____    ______ ____
ROOT
ATOM      1  C   UNL     1       3.827   4.537  17.629  0.00  0.00    +0.000 C 
ATOM      2  O   UNL     1       3.719   5.556  16.956  0.00  0.00    +0.000 OA
ATOM      3  N   UNL     1       4.971   3.761  17.607  0.00  0.00    +0.000 N 
ATOM      4  H   UNL     1       4.979   2.944  18.210  0.00  0.00    +0.000 HD
ENDROOT
BRANCH   1  10
ATOM      5  C   UNL     1       2.287   4.779  19.651  0.00  0.00    +0.000 A 
ATOM      6  C   UNL     1       1.289   4.204  20.444  0.00  0.00    +0.000 A 
ATOM      7  C   UNL     1       0.801   2.933  20.142  0.00  0.00    +0.000 A 
ATOM      8  C   UNL     1       1.322   2.265  19.049  0.00  0.00    +0.000 A 
ATOM      9  N   UNL     1       2.283   2.773  18.249  0.00  0.00    +0.000 NA
ATOM     10  C   UNL     1       2.745   4.030  18.559  0.00  0.00    +0.000 A 
BRANCH   5  12
ATOM     11  C   UNL     1       1.876   7.004  20.389  0.00  0.00    +0.000 C 
ATOM     12  O   UNL     1       2.775   6.035  19.864  0.00  0.00    +0.000 OA
ENDBRANCH   5  12
ENDBRANCH   1  10
BRANCH   3  13
ATOM     13  C   UNL     1       6.131   4.101  16.820  0.00  0.00    +0.000 C 
BRANCH  13  14
ATOM     14  C   UNL     1       6.869   5.281  17.400  0.00  0.00    +0.000 A 
ATOM     15  C   UNL     1       6.956   6.482  16.676  0.00  0.00    +0.000 A 
ATOM     16  C   UNL     1       7.622   7.585  17.212  0.00  0.00    +0.000 A 
ATOM     17  C   UNL     1       8.212   7.486  18.466  0.00  0.00    +0.000 A 
ATOM     18  F   UNL     1       8.849   8.545  18.982  0.00  0.00    +0.000 F 
ATOM     19  C   UNL     1       8.152   6.302  19.192  0.00  0.00    +0.000 A 
ATOM     20  C   UNL     1       7.484   5.198  18.659  0.00  0.00    +0.000 A 
ENDBRANCH  13  14
ENDBRANCH   3  13
TORSDOF 4
ENDMDL
