MODEL 1
REMARK VINA RESULT:      -8.3      0.000      0.000
REMARK  Name = 
REMARK  8 active torsions:
REMARK  status: ('A' for Active; 'I' for Inactive)
REMARK    1  A    between atoms: C_1  and  O_2
REMARK    2  A    between atoms: O_2  and  C_3
REMARK    3  A    between atoms: C_3  and  C_5
REMARK    4  A    between atoms: C_8  and  C_9
REMARK    5  A    between atoms: C_9  and  S_10
REMARK    6  A    between atoms: S_10  and  C_11
REMARK    7  A    between atoms: N_19  and  C_20
REMARK    8  A    between atoms: C_20  and  C_21
REMARK                            x       y       z     vdW  Elec       q    Type
REMARK                         _______ _______ _______ _____ _____    ______ ____
ROOT
ATOM      1  C   UNL     1       4.926   5.747  18.251  0.00  0.00    +0.000 A 
ATOM      2  N   UNL     1       5.014   4.757  19.108  0.00  0.00    +0.000 NA
ATOM      3  C   UNL     1       3.769   4.183  19.120  0.00  0.00    +0.000 A 
ATOM      4  C   UNL     1       3.311   3.069  19.839  0.00  0.00    +0.000 A 
ATOM      5  C   UNL     1       2.023   2.585  19.588  0.00  0.00    +0.000 A 
ATOM      6  C   UNL     1       1.195   3.221  18.660  0.00  0.00    +0.000 A 
ATOM      7  C   UNL     1       1.602   4.387  17.996  0.00  0.00    +0.000 A 
ATOM      8  C   UNL     1       2.902   4.846  18.251  0.00  0.00    +0.000 A 
ATOM      9  N   UNL     1       3.630   5.948  17.831  0.00  0.00    +0.000 N 
ENDROOT
BRANCH   1  10
ATOM     10  S   UNL     1       6.267   6.683  17.675  0.00  0.00    +0.000 S 
BRANCH  10  11
ATOM     11  C   UNL     1       7.359   5.357  17.057  0.00  0.00    +0.000 C 
BRANCH  11  15
ATOM     12  C   UNL     1       5.958   3.705  13.296  0.00  0.00    +0.000 A 
ATOM     13  C   UNL     1       5.269   3.450  14.488  0.00  0.00    +0.000 A 
ATOM     14  C   UNL     1       5.720   3.988  15.698  0.00  0.00    +0.000 A 
ATOM     15  C   UNL     1       6.866   4.795  15.741  0.00  0.00    +0.000 A 
ATOM     16  C   UNL     1       7.551   5.052  14.543  0.00  0.00    +0.000 A 
ATOM     17  C   UNL     1       7.101   4.513  13.329  0.00  0.00    +0.000 A 
BRANCH  12  18
ATOM     18  C   UNL     1       5.439   3.097  12.037  0.00  0.00    +0.000 C 
ATOM     19  O   UNL     1       5.818   2.022  11.598  0.00  0.00    +0.000 OA
BRANCH  18  21
ATOM     20  C   UNL     1       3.444   3.212  10.815  0.00  0.00    +0.000 C 
ATOM     21  O   UNL     1       4.513   3.904  11.463  0.00  0.00    +0.000 OA
ENDBRANCH  18  21
ENDBRANCH  12  18
ENDBRANCH  11  15
ENDBRANCH  10  11
ENDBRANCH   1  10
BRANCH   9  22
ATOM     22  C   UNL     1       3.049   7.232  17.443  0.00  0.00    +0.000 C 
BRANCH  22  23
ATOM     23  C   UNL     1       2.215   7.961  18.471  0.00  0.00    +0.000 A 
ATOM     24  C   UNL     1       2.115   7.559  19.809  0.00  0.00    +0.000 A 
ATOM     25  C   UNL     1       1.438   8.362  20.743  0.00  0.00    +0.000 A 
ATOM     26  C   UNL     1       0.868   9.570  20.347  0.00  0.00    +0.000 A 
ATOM     27 CL   UNL     1       0.075  10.565  21.504  0.00  0.00    +0.000 Cl
ATOM     28  C   UNL     1       0.958   9.984  19.023  0.00  0.00    +0.000 A 
ATOM     29  C   UNL     1       1.628   9.185  18.095  0.00  0.00    +0.000 A 
ENDBRANCH  22  23
ENDBRANCH   9  22
TORSDOF 7
ENDMDL
MODEL 2
REMARK VINA RESULT:      -8.2      3.916      7.661
REMARK  Name = 
REMARK  8 active torsions:
REMARK  status: ('A' for Active; 'I' for Inactive)
REMARK    1  A    between atoms: C_1  and  O_2
REMARK    2  A    between atoms: O_2  and  C_3
REMARK    3  A    between atoms: C_3  and  C_5
REMARK    4  A    between atoms: C_8  and  C_9
REMARK    5  A    between atoms: C_9  and  S_10
REMARK    6  A    between atoms: S_10  and  C_11
REMARK    7  A    between atoms: N_19  and  C_20
REMARK    8  A    between atoms: C_20  and  C_21
REMARK                            x       y       z     vdW  Elec       q    Type
REMARK                         _______ _______ _______ _____ _____    ______ ____
ROOT
ATOM      1  C   UNL     1       6.032   5.376  16.168  0.00  0.00    +0.000 A 
ATOM      2  N   UNL     1       6.907   5.917  15.354  0.00  0.00    +0.000 NA
ATOM      3  C   UNL     1       6.925   5.099  14.254  0.00  0.00    +0.000 A 
ATOM      4  C   UNL     1       7.663   5.223  13.066  0.00  0.00    +0.000 A 
ATOM      5  C   UNL     1       7.415   4.328  12.021  0.00  0.00    +0.000 A 
ATOM      6  C   UNL     1       6.472   3.308  12.168  0.00  0.00    +0.000 A 
ATOM      7  C   UNL     1       5.788   3.115  13.377  0.00  0.00    +0.000 A 
ATOM      8  C   UNL     1       6.040   4.032  14.407  0.00  0.00    +0.000 A 
ATOM      9  N   UNL     1       5.603   4.148  15.717  0.00  0.00    +0.000 N 
ENDROOT
BRANCH   1  10
ATOM     10  S   UNL     1       5.443   6.111  17.624  0.00  0.00    +0.000 S 
BRANCH  10  11
ATOM     11  C   UNL     1       3.974   6.985  16.987  0.00  0.00    +0.000 C 
BRANCH  11  15
ATOM     12  C   UNL     1       1.429   8.377  20.216  0.00  0.00    +0.000 A 
ATOM     13  C   UNL     1       1.601   9.149  19.060  0.00  0.00    +0.000 A 
ATOM     14  C   UNL     1       2.418   8.695  18.019  0.00  0.00    +0.000 A 
ATOM     15  C   UNL     1       3.076   7.460  18.110  0.00  0.00    +0.000 A 
ATOM     16  C   UNL     1       2.896   6.687  19.268  0.00  0.00    +0.000 A 
ATOM     17  C   UNL     1       2.079   7.140  20.313  0.00  0.00    +0.000 A 
BRANCH  12  18
ATOM     18  C   UNL     1       0.555   8.914  21.299  0.00  0.00    +0.000 C 
ATOM     19  O   UNL     1      -0.435   8.335  21.718  0.00  0.00    +0.000 OA
BRANCH  18  21
ATOM     20  C   UNL     1       0.015  11.139  21.792  0.00  0.00    +0.000 C 
ATOM     21  O   UNL     1       1.011  10.116  21.728  0.00  0.00    +0.000 OA
ENDBRANCH  18  21
ENDBRANCH  12  18
ENDBRANCH  11  15
ENDBRANCH  10  11
ENDBRANCH   1  10
BRANCH   9  22
ATOM     22  C   UNL     1       5.189   3.027  16.559  0.00  0.00    +0.000 C 
BRANCH  22  23
ATOM     23  C   UNL     1       4.036   3.254  17.508  0.00  0.00    +0.000 A 
ATOM     24  C   UNL     1       2.720   3.484  17.084  0.00  0.00    +0.000 A 
ATOM     25  C   UNL     1       1.673   3.546  18.019  0.00  0.00    +0.000 A 
ATOM     26  C   UNL     1       1.932   3.368  19.375  0.00  0.00    +0.000 A 
ATOM     27 CL   UNL     1       0.639   3.406  20.508  0.00  0.00    +0.000 Cl
ATOM     28  C   UNL     1       3.231   3.139  19.815  0.00  0.00    +0.000 A 
ATOM     29  C   UNL     1       4.272   3.081  18.886  0.00  0.00    +0.000 A 
ENDBRANCH  22  23
ENDBRANCH   9  22
TORSDOF 7
ENDMDL
MODEL 3
REMARK VINA RESULT:      -8.2      0.852      1.421
REMARK  Name = 
REMARK  8 active torsions:
REMARK  status: ('A' for Active; 'I' for Inactive)
REMARK    1  A    between atoms: C_1  and  O_2
REMARK    2  A    between atoms: O_2  and  C_3
REMARK    3  A    between atoms: C_3  and  C_5
REMARK    4  A    between atoms: C_8  and  C_9
REMARK    5  A    between atoms: C_9  and  S_10
REMARK    6  A    between atoms: S_10  and  C_11
REMARK    7  A    between atoms: N_19  and  C_20
REMARK    8  A    between atoms: C_20  and  C_21
REMARK                            x       y       z     vdW  Elec       q    Type
REMARK                         _______ _______ _______ _____ _____    ______ ____
ROOT
ATOM      1  C   UNL     1       4.752   5.303  18.922  0.00  0.00    +0.000 A 
ATOM      2  N   UNL     1       4.648   4.410  19.877  0.00  0.00    +0.000 NA
ATOM      3  C   UNL     1       3.403   3.858  19.717  0.00  0.00    +0.000 A 
ATOM      4  C   UNL     1       2.784   2.834  20.449  0.00  0.00    +0.000 A 
ATOM      5  C   UNL     1       1.548   2.344  20.013  0.00  0.00    +0.000 A 
ATOM      6  C   UNL     1       0.926   2.888  18.887  0.00  0.00    +0.000 A 
ATOM      7  C   UNL     1       1.488   3.971  18.194  0.00  0.00    +0.000 A 
ATOM      8  C   UNL     1       2.734   4.436  18.638  0.00  0.00    +0.000 A 
ATOM      9  N   UNL     1       3.563   5.476  18.250  0.00  0.00    +0.000 N 
ENDROOT
BRANCH   1  10
ATOM     10  S   UNL     1       6.207   6.153  18.511  0.00  0.00    +0.000 S 
BRANCH  10  11
ATOM     11  C   UNL     1       7.209   4.790  17.826  0.00  0.00    +0.000 C 
BRANCH  11  15
ATOM     12  C   UNL     1       6.175   3.906  13.704  0.00  0.00    +0.000 A 
ATOM     13  C   UNL     1       5.454   3.332  14.760  0.00  0.00    +0.000 A 
ATOM     14  C   UNL     1       5.787   3.622  16.087  0.00  0.00    +0.000 A 
ATOM     15  C   UNL     1       6.842   4.495  16.387  0.00  0.00    +0.000 A 
ATOM     16  C   UNL     1       7.559   5.073  15.327  0.00  0.00    +0.000 A 
ATOM     17  C   UNL     1       7.228   4.782  13.996  0.00  0.00    +0.000 A 
BRANCH  12  18
ATOM     18  C   UNL     1       5.784   3.552  12.309  0.00  0.00    +0.000 C 
ATOM     19  O   UNL     1       4.626   3.433  11.941  0.00  0.00    +0.000 OA
BRANCH  18  21
ATOM     20  C   UNL     1       7.226   2.011  11.294  0.00  0.00    +0.000 C 
ATOM     21  O   UNL     1       6.883   3.377  11.535  0.00  0.00    +0.000 OA
ENDBRANCH  18  21
ENDBRANCH  12  18
ENDBRANCH  11  15
ENDBRANCH  10  11
ENDBRANCH   1  10
BRANCH   9  22
ATOM     22  C   UNL     1       3.107   6.719  17.631  0.00  0.00    +0.000 C 
BRANCH  22  23
ATOM     23  C   UNL     1       2.421   7.731  18.518  0.00  0.00    +0.000 A 
ATOM     24  C   UNL     1       1.890   8.938  18.045  0.00  0.00    +0.000 A 
ATOM     25  C   UNL     1       1.141   9.768  18.898  0.00  0.00    +0.000 A 
ATOM     26  C   UNL     1       0.913   9.392  20.219  0.00  0.00    +0.000 A 
ATOM     27 CL   UNL     1      -0.038  10.393  21.245  0.00  0.00    +0.000 Cl
ATOM     28  C   UNL     1       1.432   8.197  20.706  0.00  0.00    +0.000 A 
ATOM     29  C   UNL     1       2.179   7.375  19.860  0.00  0.00    +0.000 A 
ENDBRANCH  22  23
ENDBRANCH   9  22
TORSDOF 7
ENDMDL
MODEL 4
REMARK VINA RESULT:      -8.1      4.811      8.538
REMARK  Name = 
REMARK  8 active torsions:
REMARK  status: ('A' for Active; 'I' for Inactive)
REMARK    1  A    between atoms: C_1  and  O_2
REMARK    2  A    between atoms: O_2  and  C_3
REMARK    3  A    between atoms: C_3  and  C_5
REMARK    4  A    between atoms: C_8  and  C_9
REMARK    5  A    between atoms: C_9  and  S_10
REMARK    6  A    between atoms: S_10  and  C_11
REMARK    7  A    between atoms: N_19  and  C_20
REMARK    8  A    between atoms: C_20  and  C_21
REMARK                            x       y       z     vdW  Elec       q    Type
REMARK                         _______ _______ _______ _____ _____    ______ ____
ROOT
ATOM      1  C   UNL     1       3.245   5.953  18.048  0.00  0.00    +0.000 A 
ATOM      2  N   UNL     1       2.027   5.482  17.919  0.00  0.00    +0.000 NA
ATOM      3  C   UNL     1       2.104   4.176  18.328  0.00  0.00    +0.000 A 
ATOM      4  C   UNL     1       1.088   3.213  18.422  0.00  0.00    +0.000 A 
ATOM      5  C   UNL     1       1.384   1.972  18.996  0.00  0.00    +0.000 A 
ATOM      6  C   UNL     1       2.677   1.686  19.438  0.00  0.00    +0.000 A 
ATOM      7  C   UNL     1       3.725   2.603  19.274  0.00  0.00    +0.000 A 
ATOM      8  C   UNL     1       3.404   3.846  18.710  0.00  0.00    +0.000 A 
ATOM      9  N   UNL     1       4.147   4.962  18.362  0.00  0.00    +0.000 N 
ENDROOT
BRANCH   1  10
ATOM     10  S   UNL     1       3.687   7.622  17.880  0.00  0.00    +0.000 S 
BRANCH  10  11
ATOM     11  C   UNL     1       2.050   8.374  17.590  0.00  0.00    +0.000 C 
BRANCH  11  15
ATOM     12  C   UNL     1       0.287   9.869  21.264  0.00  0.00    +0.000 A 
ATOM     13  C   UNL     1       1.080   8.715  21.272  0.00  0.00    +0.000 A 
ATOM     14  C   UNL     1       1.651   8.238  20.086  0.00  0.00    +0.000 A 
ATOM     15  C   UNL     1       1.445   8.907  18.872  0.00  0.00    +0.000 A 
ATOM     16  C   UNL     1       0.653  10.067  18.869  0.00  0.00    +0.000 A 
ATOM     17  C   UNL     1       0.079  10.545  20.055  0.00  0.00    +0.000 A 
BRANCH  12  18
ATOM     18  C   UNL     1      -0.306  10.327  22.554  0.00  0.00    +0.000 C 
ATOM     19  O   UNL     1       0.108   9.979  23.649  0.00  0.00    +0.000 OA
BRANCH  18  21
ATOM     20  C   UNL     1      -1.315  12.373  23.080  0.00  0.00    +0.000 C 
ATOM     21  O   UNL     1      -1.354  11.157  22.331  0.00  0.00    +0.000 OA
ENDBRANCH  18  21
ENDBRANCH  12  18
ENDBRANCH  11  15
ENDBRANCH  10  11
ENDBRANCH   1  10
BRANCH   9  22
ATOM     22  C   UNL     1       5.556   4.937  17.974  0.00  0.00    +0.000 C 
BRANCH  22  23
ATOM     23  C   UNL     1       5.873   4.822  16.501  0.00  0.00    +0.000 A 
ATOM     24  C   UNL     1       7.038   5.339  15.919  0.00  0.00    +0.000 A 
ATOM     25  C   UNL     1       7.338   5.074  14.572  0.00  0.00    +0.000 A 
ATOM     26  C   UNL     1       6.484   4.286  13.806  0.00  0.00    +0.000 A 
ATOM     27 CL   UNL     1       6.879   3.933  12.169  0.00  0.00    +0.000 Cl
ATOM     28  C   UNL     1       5.323   3.764  14.366  0.00  0.00    +0.000 A 
ATOM     29  C   UNL     1       5.024   4.031  15.703  0.00  0.00    +0.000 A 
ENDBRANCH  22  23
ENDBRANCH   9  22
TORSDOF 7
ENDMDL
MODEL 5
REMARK VINA RESULT:      -7.9      3.907      7.612
REMARK  Name = 
REMARK  8 active torsions:
REMARK  status: ('A' for Active; 'I' for Inactive)
REMARK    1  A    between atoms: C_1  and  O_2
REMARK    2  A    between atoms: O_2  and  C_3
REMARK    3  A    between atoms: C_3  and  C_5
REMARK    4  A    between atoms: C_8  and  C_9
REMARK    5  A    between atoms: C_9  and  S_10
REMARK    6  A    between atoms: S_10  and  C_11
REMARK    7  A    between atoms: N_19  and  C_20
REMARK    8  A    between atoms: C_20  and  C_21
REMARK                            x       y       z     vdW  Elec       q    Type
REMARK                         _______ _______ _______ _____ _____    ______ ____
ROOT
ATOM      1  C   UNL     1       5.843   5.352  16.287  0.00  0.00    +0.000 A 
ATOM      2  N   UNL     1       6.714   5.974  15.528  0.00  0.00    +0.000 NA
ATOM      3  C   UNL     1       6.812   5.209  14.395  0.00  0.00    +0.000 A 
ATOM      4  C   UNL     1       7.580   5.424  13.241  0.00  0.00    +0.000 A 
ATOM      5  C   UNL     1       7.415   4.564  12.150  0.00  0.00    +0.000 A 
ATOM      6  C   UNL     1       6.525   3.491  12.220  0.00  0.00    +0.000 A 
ATOM      7  C   UNL     1       5.813   3.208  13.395  0.00  0.00    +0.000 A 
ATOM      8  C   UNL     1       5.981   4.091  14.472  0.00  0.00    +0.000 A 
ATOM      9  N   UNL     1       5.495   4.125  15.769  0.00  0.00    +0.000 N 
ENDROOT
BRANCH   1  10
ATOM     10  S   UNL     1       5.168   5.990  17.752  0.00  0.00    +0.000 S 
BRANCH  10  11
ATOM     11  C   UNL     1       3.848   7.054  17.077  0.00  0.00    +0.000 C 
BRANCH  11  15
ATOM     12  C   UNL     1       1.274   8.604  20.209  0.00  0.00    +0.000 A 
ATOM     13  C   UNL     1       2.007   7.426  20.405  0.00  0.00    +0.000 A 
ATOM     14  C   UNL     1       2.840   6.932  19.395  0.00  0.00    +0.000 A 
ATOM     15  C   UNL     1       2.960   7.606  18.172  0.00  0.00    +0.000 A 
ATOM     16  C   UNL     1       2.228   8.788  17.981  0.00  0.00    +0.000 A 
ATOM     17  C   UNL     1       1.392   9.285  18.991  0.00  0.00    +0.000 A 
BRANCH  12  18
ATOM     18  C   UNL     1       0.394   9.079  21.316  0.00  0.00    +0.000 C 
ATOM     19  O   UNL     1      -0.579   8.462  21.718  0.00  0.00    +0.000 OA
BRANCH  18  21
ATOM     20  C   UNL     1      -0.141  11.327  21.698  0.00  0.00    +0.000 C 
ATOM     21  O   UNL     1       0.823  10.276  21.786  0.00  0.00    +0.000 OA
ENDBRANCH  18  21
ENDBRANCH  12  18
ENDBRANCH  11  15
ENDBRANCH  10  11
ENDBRANCH   1  10
BRANCH   9  22
ATOM     22  C   UNL     1       5.115   2.947  16.547  0.00  0.00    +0.000 C 
BRANCH  22  23
ATOM     23  C   UNL     1       3.984   3.099  17.537  0.00  0.00    +0.000 A 
ATOM     24  C   UNL     1       4.150   2.986  18.923  0.00  0.00    +0.000 A 
ATOM     25  C   UNL     1       3.085   3.278  19.793  0.00  0.00    +0.000 A 
ATOM     26  C   UNL     1       1.857   3.692  19.283  0.00  0.00    +0.000 A 
ATOM     27 CL   UNL     1       0.571   4.086  20.356  0.00  0.00    +0.000 Cl
ATOM     28  C   UNL     1       1.673   3.810  17.910  0.00  0.00    +0.000 A 
ATOM     29  C   UNL     1       2.731   3.516  17.046  0.00  0.00    +0.000 A 
ENDBRANCH  22  23
ENDBRANCH   9  22
TORSDOF 7
ENDMDL
MODEL 6
REMARK VINA RESULT:      -7.8      3.493      5.618
REMARK  Name = 
REMARK  8 active torsions:
REMARK  status: ('A' for Active; 'I' for Inactive)
REMARK    1  A    between atoms: C_1  and  O_2
REMARK    2  A    between atoms: O_2  and  C_3
REMARK    3  A    between atoms: C_3  and  C_5
REMARK    4  A    between atoms: C_8  and  C_9
REMARK    5  A    between atoms: C_9  and  S_10
REMARK    6  A    between atoms: S_10  and  C_11
REMARK    7  A    between atoms: N_19  and  C_20
REMARK    8  A    between atoms: C_20  and  C_21
REMARK                            x       y       z     vdW  Elec       q    Type
REMARK                         _______ _______ _______ _____ _____    ______ ____
ROOT
ATOM      1  C   UNL     1       1.354   8.928  19.423  0.00  0.00    +0.000 A 
ATOM      2  N   UNL     1       1.893   8.557  20.560  0.00  0.00    +0.000 NA
ATOM      3  C   UNL     1       1.100   9.113  21.530  0.00  0.00    +0.000 A 
ATOM      4  C   UNL     1       1.201   9.014  22.926  0.00  0.00    +0.000 A 
ATOM      5  C   UNL     1       0.188   9.566  23.717  0.00  0.00    +0.000 A 
ATOM      6  C   UNL     1      -0.888  10.233  23.129  0.00  0.00    +0.000 A 
ATOM      7  C   UNL     1      -0.962  10.418  21.741  0.00  0.00    +0.000 A 
ATOM      8  C   UNL     1       0.054   9.844  20.965  0.00  0.00    +0.000 A 
ATOM      9  N   UNL     1       0.341   9.841  19.609  0.00  0.00    +0.000 N 
ENDROOT
BRANCH   1  10
ATOM     10  S   UNL     1       1.818   8.330  17.862  0.00  0.00    +0.000 S 
BRANCH  10  11
ATOM     11  C   UNL     1       2.153   6.581  18.261  0.00  0.00    +0.000 C 
BRANCH  11  15
ATOM     12  C   UNL     1       6.044   5.307  16.819  0.00  0.00    +0.000 A 
ATOM     13  C   UNL     1       5.130   4.374  17.325  0.00  0.00    +0.000 A 
ATOM     14  C   UNL     1       3.875   4.787  17.785  0.00  0.00    +0.000 A 
ATOM     15  C   UNL     1       3.506   6.139  17.743  0.00  0.00    +0.000 A 
ATOM     16  C   UNL     1       4.423   7.071  17.231  0.00  0.00    +0.000 A 
ATOM     17  C   UNL     1       5.681   6.659  16.771  0.00  0.00    +0.000 A 
BRANCH  12  18
ATOM     18  C   UNL     1       7.372   4.813  16.353  0.00  0.00    +0.000 C 
ATOM     19  O   UNL     1       8.137   4.169  17.052  0.00  0.00    +0.000 OA
BRANCH  18  21
ATOM     20  C   UNL     1       6.752   4.552  14.109  0.00  0.00    +0.000 C 
ATOM     21  O   UNL     1       7.598   5.188  15.069  0.00  0.00    +0.000 OA
ENDBRANCH  18  21
ENDBRANCH  12  18
ENDBRANCH  11  15
ENDBRANCH  10  11
ENDBRANCH   1  10
BRANCH   9  22
ATOM     22  C   UNL     1      -0.030  10.904  18.677  0.00  0.00    +0.000 C 
BRANCH  22  23
ATOM     23  C   UNL     1      -1.486  11.018  18.291  0.00  0.00    +0.000 A 
ATOM     24  C   UNL     1      -2.123  10.134  17.410  0.00  0.00    +0.000 A 
ATOM     25  C   UNL     1      -3.512  10.211  17.205  0.00  0.00    +0.000 A 
ATOM     26  C   UNL     1      -4.268  11.163  17.883  0.00  0.00    +0.000 A 
ATOM     27 CL   UNL     1      -5.972  11.226  17.656  0.00  0.00    +0.000 Cl
ATOM     28  C   UNL     1      -3.654  12.050  18.761  0.00  0.00    +0.000 A 
ATOM     29  C   UNL     1      -2.274  11.975  18.962  0.00  0.00    +0.000 A 
ENDBRANCH  22  23
ENDBRANCH   9  22
TORSDOF 7
ENDMDL
MODEL 7
REMARK VINA RESULT:      -7.8      4.587      7.756
REMARK  Name = 
REMARK  8 active torsions:
REMARK  status: ('A' for Active; 'I' for Inactive)
REMARK    1  A    between atoms: C_1  and  O_2
REMARK    2  A    between atoms: O_2  and  C_3
REMARK    3  A    between atoms: C_3  and  C_5
REMARK    4  A    between atoms: C_8  and  C_9
REMARK    5  A    between atoms: C_9  and  S_10
REMARK    6  A    between atoms: S_10  and  C_11
REMARK    7  A    between atoms: N_19  and  C_20
REMARK    8  A    between atoms: C_20  and  C_21
REMARK                            x       y       z     vdW  Elec       q    Type
REMARK                         _______ _______ _______ _____ _____    ______ ____
ROOT
ATOM      1  C   UNL     1       0.797  11.064  19.296  0.00  0.00    +0.000 A 
ATOM      2  N   UNL     1       1.738  11.863  18.852  0.00  0.00    +0.000 NA
ATOM      3  C   UNL     1       1.194  13.120  18.905  0.00  0.00    +0.000 A 
ATOM      4  C   UNL     1       1.774  14.354  18.574  0.00  0.00    +0.000 A 
ATOM      5  C   UNL     1       1.060  15.528  18.837  0.00  0.00    +0.000 A 
ATOM      6  C   UNL     1      -0.221  15.471  19.391  0.00  0.00    +0.000 A 
ATOM      7  C   UNL     1      -0.851  14.245  19.648  0.00  0.00    +0.000 A 
ATOM      8  C   UNL     1      -0.113  13.081  19.391  0.00  0.00    +0.000 A 
ATOM      9  N   UNL     1      -0.396  11.727  19.478  0.00  0.00    +0.000 N 
ENDROOT
BRANCH   1  10
ATOM     10  S   UNL     1       1.011   9.380  19.653  0.00  0.00    +0.000 S 
BRANCH  10  11
ATOM     11  C   UNL     1       1.702   8.788  18.071  0.00  0.00    +0.000 C 
BRANCH  11  15
ATOM     12  C   UNL     1       4.483   5.515  18.696  0.00  0.00    +0.000 A 
ATOM     13  C   UNL     1       3.445   5.752  19.605  0.00  0.00    +0.000 A 
ATOM     14  C   UNL     1       2.547   6.805  19.399  0.00  0.00    +0.000 A 
ATOM     15  C   UNL     1       2.666   7.639  18.278  0.00  0.00    +0.000 A 
ATOM     16  C   UNL     1       3.705   7.395  17.366  0.00  0.00    +0.000 A 
ATOM     17  C   UNL     1       4.607   6.342  17.571  0.00  0.00    +0.000 A 
BRANCH  12  18
ATOM     18  C   UNL     1       5.418   4.386  18.971  0.00  0.00    +0.000 C 
ATOM     19  O   UNL     1       5.075   3.334  19.487  0.00  0.00    +0.000 OA
BRANCH  18  21
ATOM     20  C   UNL     1       7.379   5.560  19.482  0.00  0.00    +0.000 C 
ATOM     21  O   UNL     1       6.678   4.702  18.580  0.00  0.00    +0.000 OA
ENDBRANCH  18  21
ENDBRANCH  12  18
ENDBRANCH  11  15
ENDBRANCH  10  11
ENDBRANCH   1  10
BRANCH   9  22
ATOM     22  C   UNL     1      -1.727  11.143  19.330  0.00  0.00    +0.000 C 
BRANCH  22  23
ATOM     23  C   UNL     1      -2.231  10.896  17.927  0.00  0.00    +0.000 A 
ATOM     24  C   UNL     1      -1.701   9.917  17.078  0.00  0.00    +0.000 A 
ATOM     25  C   UNL     1      -2.308   9.645  15.840  0.00  0.00    +0.000 A 
ATOM     26  C   UNL     1      -3.450  10.341  15.451  0.00  0.00    +0.000 A 
ATOM     27 CL   UNL     1      -4.210   9.974  13.953  0.00  0.00    +0.000 Cl
ATOM     28  C   UNL     1      -3.991  11.317  16.281  0.00  0.00    +0.000 A 
ATOM     29  C   UNL     1      -3.384  11.589  17.509  0.00  0.00    +0.000 A 
ENDBRANCH  22  23
ENDBRANCH   9  22
TORSDOF 7
ENDMDL
MODEL 8
REMARK VINA RESULT:      -7.8      3.525      5.812
REMARK  Name = 
REMARK  8 active torsions:
REMARK  status: ('A' for Active; 'I' for Inactive)
REMARK    1  A    between atoms: C_1  and  O_2
REMARK    2  A    between atoms: O_2  and  C_3
REMARK    3  A    between atoms: C_3  and  C_5
REMARK    4  A    between atoms: C_8  and  C_9
REMARK    5  A    between atoms: C_9  and  S_10
REMARK    6  A    between atoms: S_10  and  C_11
REMARK    7  A    between atoms: N_19  and  C_20
REMARK    8  A    between atoms: C_20  and  C_21
REMARK                            x       y       z     vdW  Elec       q    Type
REMARK                         _______ _______ _______ _____ _____    ______ ____
ROOT
ATOM      1  C   UNL     1       1.269   9.481  19.479  0.00  0.00    +0.000 A 
ATOM      2  N   UNL     1       1.275   8.956  20.681  0.00  0.00    +0.000 NA
ATOM      3  C   UNL     1       0.413   9.730  21.414  0.00  0.00    +0.000 A 
ATOM      4  C   UNL     1       0.022   9.599  22.755  0.00  0.00    +0.000 A 
ATOM      5  C   UNL     1      -0.980  10.439  23.252  0.00  0.00    +0.000 A 
ATOM      6  C   UNL     1      -1.558  11.414  22.436  0.00  0.00    +0.000 A 
ATOM      7  C   UNL     1      -1.120  11.618  21.119  0.00  0.00    +0.000 A 
ATOM      8  C   UNL     1      -0.126  10.755  20.636  0.00  0.00    +0.000 A 
ATOM      9  N   UNL     1       0.570  10.667  19.441  0.00  0.00    +0.000 N 
ENDROOT
BRANCH   1  10
ATOM     10  S   UNL     1       2.013   8.773  18.082  0.00  0.00    +0.000 S 
BRANCH  10  11
ATOM     11  C   UNL     1       2.241   7.057  18.659  0.00  0.00    +0.000 C 
BRANCH  11  15
ATOM     12  C   UNL     1       5.548   5.094  16.645  0.00  0.00    +0.000 A 
ATOM     13  C   UNL     1       4.655   4.358  17.434  0.00  0.00    +0.000 A 
ATOM     14  C   UNL     1       3.587   4.993  18.078  0.00  0.00    +0.000 A 
ATOM     15  C   UNL     1       3.387   6.374  17.943  0.00  0.00    +0.000 A 
ATOM     16  C   UNL     1       4.281   7.108  17.147  0.00  0.00    +0.000 A 
ATOM     17  C   UNL     1       5.353   6.474  16.502  0.00  0.00    +0.000 A 
BRANCH  12  18
ATOM     18  C   UNL     1       6.675   4.368  15.990  0.00  0.00    +0.000 C 
ATOM     19  O   UNL     1       7.848   4.537  16.282  0.00  0.00    +0.000 OA
BRANCH  18  21
ATOM     20  C   UNL     1       6.266   4.040  13.708  0.00  0.00    +0.000 C 
ATOM     21  O   UNL     1       6.209   3.522  15.039  0.00  0.00    +0.000 OA
ENDBRANCH  18  21
ENDBRANCH  12  18
ENDBRANCH  11  15
ENDBRANCH  10  11
ENDBRANCH   1  10
BRANCH   9  22
ATOM     22  C   UNL     1       0.854  11.796  18.558  0.00  0.00    +0.000 C 
BRANCH  22  23
ATOM     23  C   UNL     1       1.839  12.834  19.044  0.00  0.00    +0.000 A 
ATOM     24  C   UNL     1       2.054  13.119  20.399  0.00  0.00    +0.000 A 
ATOM     25  C   UNL     1       3.085  13.993  20.786  0.00  0.00    +0.000 A 
ATOM     26  C   UNL     1       3.907  14.576  19.826  0.00  0.00    +0.000 A 
ATOM     27 CL   UNL     1       5.191  15.613  20.310  0.00  0.00    +0.000 Cl
ATOM     28  C   UNL     1       3.708  14.305  18.476  0.00  0.00    +0.000 A 
ATOM     29  C   UNL     1       2.682  13.440  18.092  0.00  0.00    +0.000 A 
ENDBRANCH  22  23
ENDBRANCH   9  22
TORSDOF 7
ENDMDL
MODEL 9
REMARK VINA RESULT:      -7.8      3.895      7.616
REMARK  Name = 
REMARK  8 active torsions:
REMARK  status: ('A' for Active; 'I' for Inactive)
REMARK    1  A    between atoms: C_1  and  O_2
REMARK    2  A    between atoms: O_2  and  C_3
REMARK    3  A    between atoms: C_3  and  C_5
REMARK    4  A    between atoms: C_8  and  C_9
REMARK    5  A    between atoms: C_9  and  S_10
REMARK    6  A    between atoms: S_10  and  C_11
REMARK    7  A    between atoms: N_19  and  C_20
REMARK    8  A    between atoms: C_20  and  C_21
REMARK                            x       y       z     vdW  Elec       q    Type
REMARK                         _______ _______ _______ _____ _____    ______ ____
ROOT
ATOM      1  C   UNL     1       5.830   5.367  16.279  0.00  0.00    +0.000 A 
ATOM      2  N   UNL     1       6.693   5.990  15.510  0.00  0.00    +0.000 NA
ATOM      3  C   UNL     1       6.795   5.214  14.385  0.00  0.00    +0.000 A 
ATOM      4  C   UNL     1       7.557   5.425  13.226  0.00  0.00    +0.000 A 
ATOM      5  C   UNL     1       7.397   4.552  12.144  0.00  0.00    +0.000 A 
ATOM      6  C   UNL     1       6.518   3.471  12.229  0.00  0.00    +0.000 A 
ATOM      7  C   UNL     1       5.813   3.193  13.409  0.00  0.00    +0.000 A 
ATOM      8  C   UNL     1       5.976   4.088  14.476  0.00  0.00    +0.000 A 
ATOM      9  N   UNL     1       5.494   4.131  15.775  0.00  0.00    +0.000 N 
ENDROOT
BRANCH   1  10
ATOM     10  S   UNL     1       5.154   6.013  17.739  0.00  0.00    +0.000 S 
BRANCH  10  11
ATOM     11  C   UNL     1       3.856   7.098  17.055  0.00  0.00    +0.000 C 
BRANCH  11  15
ATOM     12  C   UNL     1       1.263   8.647  20.173  0.00  0.00    +0.000 A 
ATOM     13  C   UNL     1       1.418   9.338  18.964  0.00  0.00    +0.000 A 
ATOM     14  C   UNL     1       2.251   8.834  17.960  0.00  0.00    +0.000 A 
ATOM     15  C   UNL     1       2.942   7.627  18.140  0.00  0.00    +0.000 A 
ATOM     16  C   UNL     1       2.780   6.934  19.350  0.00  0.00    +0.000 A 
ATOM     17  C   UNL     1       1.946   7.438  20.359  0.00  0.00    +0.000 A 
BRANCH  12  18
ATOM     18  C   UNL     1       0.371   9.236  21.213  0.00  0.00    +0.000 C 
ATOM     19  O   UNL     1       0.502   9.032  22.410  0.00  0.00    +0.000 OA
BRANCH  18  21
ATOM     20  C   UNL     1      -0.798  11.264  21.278  0.00  0.00    +0.000 C 
ATOM     21  O   UNL     1      -0.590  10.003  20.640  0.00  0.00    +0.000 OA
ENDBRANCH  18  21
ENDBRANCH  12  18
ENDBRANCH  11  15
ENDBRANCH  10  11
ENDBRANCH   1  10
BRANCH   9  22
ATOM     22  C   UNL     1       5.129   2.958  16.566  0.00  0.00    +0.000 C 
BRANCH  22  23
ATOM     23  C   UNL     1       3.989   3.104  17.548  0.00  0.00    +0.000 A 
ATOM     24  C   UNL     1       4.143   2.973  18.934  0.00  0.00    +0.000 A 
ATOM     25  C   UNL     1       3.072   3.261  19.798  0.00  0.00    +0.000 A 
ATOM     26  C   UNL     1       1.851   3.689  19.283  0.00  0.00    +0.000 A 
ATOM     27 CL   UNL     1       0.559   4.077  20.349  0.00  0.00    +0.000 Cl
ATOM     28  C   UNL     1       1.680   3.825  17.910  0.00  0.00    +0.000 A 
ATOM     29  C   UNL     1       2.743   3.536  17.052  0.00  0.00    +0.000 A 
ENDBRANCH  22  23
ENDBRANCH   9  22
TORSDOF 7
ENDMDL
