MODEL 1
REMARK VINA RESULT:      -6.5      0.000      0.000
REMARK  Name = 
REMARK  4 active torsions:
REMARK  status: ('A' for Active; 'I' for Inactive)
REMARK    1  A    between atoms: C_1  and  C_2
REMARK    2  A    between atoms: C_4  and  C_5
REMARK    3  A    between atoms: C_13  and  C_14
REMARK    4  A    between atoms: N_15  and  C_16
REMARK                            x       y       z     vdW  Elec       q    Type
REMARK                         _______ _______ _______ _____ _____    ______ ____
ROOT
ATOM      1  C   UNL     1       5.580   4.626  18.982  0.00  0.00    +0.000 C 
ATOM      2  C   UNL     1       5.981   4.485  17.712  0.00  0.00    +0.000 C 
ATOM      3  S   UNL     1       4.995   4.342  16.299  0.00  0.00    +0.000 S 
ATOM      4  C   UNL     1       6.381   4.250  15.241  0.00  0.00    +0.000 C 
ATOM      5  S   UNL     1       6.354   4.107  13.591  0.00  0.00    +0.000 S 
ATOM      6  N   UNL     1       7.525   4.316  15.974  0.00  0.00    +0.000 N 
ATOM      7  C   UNL     1       7.416   4.447  17.331  0.00  0.00    +0.000 C 
ATOM      8  O   UNL     1       8.359   4.526  18.099  0.00  0.00    +0.000 OA
ATOM      9  H   UNL     1       8.436   4.280  15.541  0.00  0.00    +0.000 HD
ENDROOT
BRANCH   1  13
ATOM     10  C   UNL     1       1.131   6.294  20.682  0.00  0.00    +0.000 C 
ATOM     11  C   UNL     1       2.253   5.459  20.174  0.00  0.00    +0.000 A 
ATOM     12  C   UNL     1       3.507   5.852  19.751  0.00  0.00    +0.000 A 
ATOM     13  C   UNL     1       4.227   4.685  19.417  0.00  0.00    +0.000 A 
ATOM     14  C   UNL     1       3.396   3.595  19.598  0.00  0.00    +0.000 A 
ATOM     15  C   UNL     1       3.660   2.143  19.388  0.00  0.00    +0.000 C 
ATOM     16  N   UNL     1       2.193   4.083  20.071  0.00  0.00    +0.000 N 
ATOM     17  C   UNL     1       1.035   3.292  20.438  0.00  0.00    +0.000 C 
ENDBRANCH   1  13
TORSDOF 1
ENDMDL
MODEL 2
REMARK VINA RESULT:      -6.4      1.302      2.181
REMARK  Name = 
REMARK  4 active torsions:
REMARK  status: ('A' for Active; 'I' for Inactive)
REMARK    1  A    between atoms: C_1  and  C_2
REMARK    2  A    between atoms: C_4  and  C_5
REMARK    3  A    between atoms: C_13  and  C_14
REMARK    4  A    between atoms: N_15  and  C_16
REMARK                            x       y       z     vdW  Elec       q    Type
REMARK                         _______ _______ _______ _____ _____    ______ ____
ROOT
ATOM      1  C   UNL     1       5.575   5.651  18.303  0.00  0.00    +0.000 C 
ATOM      2  C   UNL     1       5.913   5.312  17.053  0.00  0.00    +0.000 C 
ATOM      3  S   UNL     1       5.170   4.125  16.039  0.00  0.00    +0.000 S 
ATOM      4  C   UNL     1       6.252   4.463  14.710  0.00  0.00    +0.000 C 
ATOM      5  S   UNL     1       6.242   3.738  13.222  0.00  0.00    +0.000 S 
ATOM      6  N   UNL     1       7.134   5.435  15.070  0.00  0.00    +0.000 N 
ATOM      7  C   UNL     1       7.032   5.965  16.327  0.00  0.00    +0.000 C 
ATOM      8  O   UNL     1       7.752   6.844  16.770  0.00  0.00    +0.000 OA
ATOM      9  H   UNL     1       7.842   5.771  14.435  0.00  0.00    +0.000 HD
ENDROOT
BRANCH   1  13
ATOM     10  C   UNL     1       2.749   2.460  21.004  0.00  0.00    +0.000 C 
ATOM     11  C   UNL     1       3.272   3.635  20.257  0.00  0.00    +0.000 A 
ATOM     12  C   UNL     1       4.521   3.827  19.700  0.00  0.00    +0.000 A 
ATOM     13  C   UNL     1       4.509   5.080  19.052  0.00  0.00    +0.000 A 
ATOM     14  C   UNL     1       3.270   5.661  19.253  0.00  0.00    +0.000 A 
ATOM     15  C   UNL     1       2.741   6.974  18.785  0.00  0.00    +0.000 C 
ATOM     16  N   UNL     1       2.520   4.761  19.985  0.00  0.00    +0.000 N 
ATOM     17  C   UNL     1       1.140   4.933  20.395  0.00  0.00    +0.000 C 
ENDBRANCH   1  13
TORSDOF 1
ENDMDL
MODEL 3
REMARK VINA RESULT:      -6.3      2.254      2.910
REMARK  Name = 
REMARK  4 active torsions:
REMARK  status: ('A' for Active; 'I' for Inactive)
REMARK    1  A    between atoms: C_1  and  C_2
REMARK    2  A    between atoms: C_4  and  C_5
REMARK    3  A    between atoms: C_13  and  C_14
REMARK    4  A    between atoms: N_15  and  C_16
REMARK                            x       y       z     vdW  Elec       q    Type
REMARK                         _______ _______ _______ _____ _____    ______ ____
ROOT
ATOM      1  C   UNL     1       4.834   3.790  17.333  0.00  0.00    +0.000 C 
ATOM      2  C   UNL     1       5.671   4.830  17.222  0.00  0.00    +0.000 C 
ATOM      3  S   UNL     1       5.882   6.143  18.327  0.00  0.00    +0.000 S 
ATOM      4  C   UNL     1       7.131   6.873  17.348  0.00  0.00    +0.000 C 
ATOM      5  S   UNL     1       7.964   8.263  17.689  0.00  0.00    +0.000 S 
ATOM      6  N   UNL     1       7.338   6.124  16.231  0.00  0.00    +0.000 N 
ATOM      7  C   UNL     1       6.593   4.988  16.069  0.00  0.00    +0.000 C 
ATOM      8  O   UNL     1       6.686   4.227  15.121  0.00  0.00    +0.000 OA
ATOM      9  H   UNL     1       8.024   6.382  15.538  0.00  0.00    +0.000 HD
ENDROOT
BRANCH   1  13
ATOM     10  C   UNL     1       2.820   2.194  21.676  0.00  0.00    +0.000 C 
ATOM     11  C   UNL     1       3.066   2.842  20.359  0.00  0.00    +0.000 A 
ATOM     12  C   UNL     1       4.226   2.878  19.611  0.00  0.00    +0.000 A 
ATOM     13  C   UNL     1       3.937   3.567  18.414  0.00  0.00    +0.000 A 
ATOM     14  C   UNL     1       2.619   3.982  18.459  0.00  0.00    +0.000 A 
ATOM     15  C   UNL     1       1.820   4.745  17.458  0.00  0.00    +0.000 C 
ATOM     16  N   UNL     1       2.094   3.523  19.652  0.00  0.00    +0.000 N 
ATOM     17  C   UNL     1       0.728   3.691  20.106  0.00  0.00    +0.000 C 
ENDBRANCH   1  13
TORSDOF 1
ENDMDL
MODEL 4
REMARK VINA RESULT:      -6.0      2.146      2.453
REMARK  Name = 
REMARK  4 active torsions:
REMARK  status: ('A' for Active; 'I' for Inactive)
REMARK    1  A    between atoms: C_1  and  C_2
REMARK    2  A    between atoms: C_4  and  C_5
REMARK    3  A    between atoms: C_13  and  C_14
REMARK    4  A    between atoms: N_15  and  C_16
REMARK                            x       y       z     vdW  Elec       q    Type
REMARK                         _______ _______ _______ _____ _____    ______ ____
ROOT
ATOM      1  C   UNL     1       4.584   3.758  17.377  0.00  0.00    +0.000 C 
ATOM      2  C   UNL     1       5.480   4.745  17.247  0.00  0.00    +0.000 C 
ATOM      3  S   UNL     1       5.710   6.112  18.280  0.00  0.00    +0.000 S 
ATOM      4  C   UNL     1       7.041   6.714  17.323  0.00  0.00    +0.000 C 
ATOM      5  S   UNL     1       7.931   8.078  17.622  0.00  0.00    +0.000 S 
ATOM      6  N   UNL     1       7.259   5.887  16.265  0.00  0.00    +0.000 N 
ATOM      7  C   UNL     1       6.463   4.783  16.134  0.00  0.00    +0.000 C 
ATOM      8  O   UNL     1       6.558   3.960  15.239  0.00  0.00    +0.000 OA
ATOM      9  H   UNL     1       7.990   6.066  15.593  0.00  0.00    +0.000 HD
ENDROOT
BRANCH   1  13
ATOM     10  C   UNL     1       0.514   4.455  20.279  0.00  0.00    +0.000 C 
ATOM     11  C   UNL     1       1.798   3.981  19.696  0.00  0.00    +0.000 A 
ATOM     12  C   UNL     1       2.389   4.325  18.497  0.00  0.00    +0.000 A 
ATOM     13  C   UNL     1       3.625   3.650  18.423  0.00  0.00    +0.000 A 
ATOM     14  C   UNL     1       3.761   2.868  19.555  0.00  0.00    +0.000 A 
ATOM     15  C   UNL     1       4.872   1.963  19.967  0.00  0.00    +0.000 C 
ATOM     16  N   UNL     1       2.639   3.087  20.331  0.00  0.00    +0.000 N 
ATOM     17  C   UNL     1       2.371   2.504  21.630  0.00  0.00    +0.000 C 
ENDBRANCH   1  13
TORSDOF 1
ENDMDL
MODEL 5
REMARK VINA RESULT:      -6.0      0.751      1.868
REMARK  Name = 
REMARK  4 active torsions:
REMARK  status: ('A' for Active; 'I' for Inactive)
REMARK    1  A    between atoms: C_1  and  C_2
REMARK    2  A    between atoms: C_4  and  C_5
REMARK    3  A    between atoms: C_13  and  C_14
REMARK    4  A    between atoms: N_15  and  C_16
REMARK                            x       y       z     vdW  Elec       q    Type
REMARK                         _______ _______ _______ _____ _____    ______ ____
ROOT
ATOM      1  C   UNL     1       5.560   4.553  19.097  0.00  0.00    +0.000 C 
ATOM      2  C   UNL     1       5.894   4.437  17.805  0.00  0.00    +0.000 C 
ATOM      3  S   UNL     1       4.872   4.002  16.480  0.00  0.00    +0.000 S 
ATOM      4  C   UNL     1       6.168   4.163  15.320  0.00  0.00    +0.000 C 
ATOM      5  S   UNL     1       6.061   3.929  13.685  0.00  0.00    +0.000 S 
ATOM      6  N   UNL     1       7.315   4.521  15.959  0.00  0.00    +0.000 N 
ATOM      7  C   UNL     1       7.272   4.697  17.314  0.00  0.00    +0.000 C 
ATOM      8  O   UNL     1       8.223   5.025  18.003  0.00  0.00    +0.000 OA
ATOM      9  H   UNL     1       8.179   4.665  15.457  0.00  0.00    +0.000 HD
ENDROOT
BRANCH   1  13
ATOM     10  C   UNL     1       1.530   2.404  21.243  0.00  0.00    +0.000 C 
ATOM     11  C   UNL     1       2.480   3.349  20.597  0.00  0.00    +0.000 A 
ATOM     12  C   UNL     1       3.813   3.166  20.287  0.00  0.00    +0.000 A 
ATOM     13  C   UNL     1       4.261   4.334  19.634  0.00  0.00    +0.000 A 
ATOM     14  C   UNL     1       3.213   5.235  19.587  0.00  0.00    +0.000 A 
ATOM     15  C   UNL     1       3.156   6.609  19.012  0.00  0.00    +0.000 C 
ATOM     16  N   UNL     1       2.126   4.615  20.173  0.00  0.00    +0.000 N 
ATOM     17  C   UNL     1       0.795   5.173  20.309  0.00  0.00    +0.000 C 
ENDBRANCH   1  13
TORSDOF 1
ENDMDL
MODEL 6
REMARK VINA RESULT:      -5.9      4.146      6.005
REMARK  Name = 
REMARK  4 active torsions:
REMARK  status: ('A' for Active; 'I' for Inactive)
REMARK    1  A    between atoms: C_1  and  C_2
REMARK    2  A    between atoms: C_4  and  C_5
REMARK    3  A    between atoms: C_13  and  C_14
REMARK    4  A    between atoms: N_15  and  C_16
REMARK                            x       y       z     vdW  Elec       q    Type
REMARK                         _______ _______ _______ _____ _____    ______ ____
ROOT
ATOM      1  C   UNL     1       2.489   6.723  18.105  0.00  0.00    +0.000 C 
ATOM      2  C   UNL     1       1.976   7.673  18.898  0.00  0.00    +0.000 C 
ATOM      3  S   UNL     1       1.402   7.504  20.520  0.00  0.00    +0.000 S 
ATOM      4  C   UNL     1       1.010   9.201  20.645  0.00  0.00    +0.000 C 
ATOM      5  S   UNL     1       0.375   9.971  21.966  0.00  0.00    +0.000 S 
ATOM      6  N   UNL     1       1.306   9.830  19.476  0.00  0.00    +0.000 N 
ATOM      7  C   UNL     1       1.840   9.085  18.460  0.00  0.00    +0.000 C 
ATOM      8  O   UNL     1       2.156   9.526  17.368  0.00  0.00    +0.000 OA
ATOM      9  H   UNL     1       1.151  10.819  19.350  0.00  0.00    +0.000 HD
ENDROOT
BRANCH   1  13
ATOM     10  C   UNL     1       1.632   1.841  19.051  0.00  0.00    +0.000 C 
ATOM     11  C   UNL     1       2.250   3.182  18.875  0.00  0.00    +0.000 A 
ATOM     12  C   UNL     1       1.688   4.340  18.375  0.00  0.00    +0.000 A 
ATOM     13  C   UNL     1       2.662   5.357  18.463  0.00  0.00    +0.000 A 
ATOM     14  C   UNL     1       3.822   4.805  18.975  0.00  0.00    +0.000 A 
ATOM     15  C   UNL     1       5.139   5.440  19.263  0.00  0.00    +0.000 C 
ATOM     16  N   UNL     1       3.553   3.474  19.231  0.00  0.00    +0.000 N 
ATOM     17  C   UNL     1       4.469   2.513  19.812  0.00  0.00    +0.000 C 
ENDBRANCH   1  13
TORSDOF 1
ENDMDL
MODEL 7
REMARK VINA RESULT:      -5.7      4.301      6.112
REMARK  Name = 
REMARK  4 active torsions:
REMARK  status: ('A' for Active; 'I' for Inactive)
REMARK    1  A    between atoms: C_1  and  C_2
REMARK    2  A    between atoms: C_4  and  C_5
REMARK    3  A    between atoms: C_13  and  C_14
REMARK    4  A    between atoms: N_15  and  C_16
REMARK                            x       y       z     vdW  Elec       q    Type
REMARK                         _______ _______ _______ _____ _____    ______ ____
ROOT
ATOM      1  C   UNL     1       2.443   6.949  18.662  0.00  0.00    +0.000 C 
ATOM      2  C   UNL     1       1.867   8.013  19.236  0.00  0.00    +0.000 C 
ATOM      3  S   UNL     1       1.214   8.133  20.832  0.00  0.00    +0.000 S 
ATOM      4  C   UNL     1       0.775   9.810  20.616  0.00  0.00    +0.000 C 
ATOM      5  S   UNL     1       0.054  10.792  21.737  0.00  0.00    +0.000 S 
ATOM      6  N   UNL     1       1.117  10.217  19.364  0.00  0.00    +0.000 N 
ATOM      7  C   UNL     1       1.720   9.313  18.533  0.00  0.00    +0.000 C 
ATOM      8  O   UNL     1       2.083   9.551  17.393  0.00  0.00    +0.000 OA
ATOM      9  H   UNL     1       0.945  11.159  19.046  0.00  0.00    +0.000 HD
ENDROOT
BRANCH   1  13
ATOM     10  C   UNL     1       1.943   2.936  21.681  0.00  0.00    +0.000 C 
ATOM     11  C   UNL     1       2.381   3.904  20.640  0.00  0.00    +0.000 A 
ATOM     12  C   UNL     1       1.815   5.111  20.281  0.00  0.00    +0.000 A 
ATOM     13  C   UNL     1       2.630   5.681  19.280  0.00  0.00    +0.000 A 
ATOM     14  C   UNL     1       3.660   4.801  19.006  0.00  0.00    +0.000 A 
ATOM     15  C   UNL     1       4.787   4.918  18.036  0.00  0.00    +0.000 C 
ATOM     16  N   UNL     1       3.501   3.721  19.852  0.00  0.00    +0.000 N 
ATOM     17  C   UNL     1       4.376   2.570  19.943  0.00  0.00    +0.000 C 
ENDBRANCH   1  13
TORSDOF 1
ENDMDL
MODEL 8
REMARK VINA RESULT:      -5.6      3.044      6.034
REMARK  Name = 
REMARK  4 active torsions:
REMARK  status: ('A' for Active; 'I' for Inactive)
REMARK    1  A    between atoms: C_1  and  C_2
REMARK    2  A    between atoms: C_4  and  C_5
REMARK    3  A    between atoms: C_13  and  C_14
REMARK    4  A    between atoms: N_15  and  C_16
REMARK                            x       y       z     vdW  Elec       q    Type
REMARK                         _______ _______ _______ _____ _____    ______ ____
ROOT
ATOM      1  C   UNL     1       3.745   4.247  19.040  0.00  0.00    +0.000 C 
ATOM      2  C   UNL     1       3.027   5.235  19.590  0.00  0.00    +0.000 C 
ATOM      3  S   UNL     1       2.888   6.871  19.049  0.00  0.00    +0.000 S 
ATOM      4  C   UNL     1       1.781   7.288  20.334  0.00  0.00    +0.000 C 
ATOM      5  S   UNL     1       1.076   8.765  20.587  0.00  0.00    +0.000 S 
ATOM      6  N   UNL     1       1.565   6.203  21.125  0.00  0.00    +0.000 N 
ATOM      7  C   UNL     1       2.196   5.033  20.803  0.00  0.00    +0.000 C 
ATOM      8  O   UNL     1       2.082   3.989  21.423  0.00  0.00    +0.000 OA
ATOM      9  H   UNL     1       0.951   6.243  21.925  0.00  0.00    +0.000 HD
ENDROOT
BRANCH   1  13
ATOM     10  C   UNL     1       5.403   3.980  14.281  0.00  0.00    +0.000 C 
ATOM     11  C   UNL     1       5.260   4.234  15.740  0.00  0.00    +0.000 A 
ATOM     12  C   UNL     1       4.170   4.017  16.558  0.00  0.00    +0.000 A 
ATOM     13  C   UNL     1       4.549   4.364  17.872  0.00  0.00    +0.000 A 
ATOM     14  C   UNL     1       5.850   4.830  17.840  0.00  0.00    +0.000 A 
ATOM     15  C   UNL     1       6.719   5.322  18.946  0.00  0.00    +0.000 C 
ATOM     16  N   UNL     1       6.277   4.736  16.529  0.00  0.00    +0.000 N 
ATOM     17  C   UNL     1       7.595   5.077  16.033  0.00  0.00    +0.000 C 
ENDBRANCH   1  13
TORSDOF 1
ENDMDL
MODEL 9
REMARK VINA RESULT:      -5.6      6.344      8.352
REMARK  Name = 
REMARK  4 active torsions:
REMARK  status: ('A' for Active; 'I' for Inactive)
REMARK    1  A    between atoms: C_1  and  C_2
REMARK    2  A    between atoms: C_4  and  C_5
REMARK    3  A    between atoms: C_13  and  C_14
REMARK    4  A    between atoms: N_15  and  C_16
REMARK                            x       y       z     vdW  Elec       q    Type
REMARK                         _______ _______ _______ _____ _____    ______ ____
ROOT
ATOM      1  C   UNL     1       0.988  10.651  19.000  0.00  0.00    +0.000 C 
ATOM      2  C   UNL     1      -0.200  10.996  18.485  0.00  0.00    +0.000 C 
ATOM      3  S   UNL     1      -1.389   9.959  17.778  0.00  0.00    +0.000 S 
ATOM      4  C   UNL     1      -2.487  11.285  17.481  0.00  0.00    +0.000 C 
ATOM      5  S   UNL     1      -3.989  11.185  16.793  0.00  0.00    +0.000 S 
ATOM      6  N   UNL     1      -1.927  12.450  17.905  0.00  0.00    +0.000 N 
ATOM      7  C   UNL     1      -0.682  12.400  18.470  0.00  0.00    +0.000 C 
ATOM      8  O   UNL     1      -0.074  13.367  18.897  0.00  0.00    +0.000 OA
ATOM      9  H   UNL     1      -2.408  13.333  17.821  0.00  0.00    +0.000 HD
ENDROOT
BRANCH   1  13
ATOM     10  C   UNL     1       3.192   6.276  17.792  0.00  0.00    +0.000 C 
ATOM     11  C   UNL     1       2.497   7.388  18.494  0.00  0.00    +0.000 A 
ATOM     12  C   UNL     1       2.239   8.670  18.052  0.00  0.00    +0.000 A 
ATOM     13  C   UNL     1       1.506   9.327  19.062  0.00  0.00    +0.000 A 
ATOM     14  C   UNL     1       1.358   8.459  20.127  0.00  0.00    +0.000 A 
ATOM     15  C   UNL     1       0.672   8.657  21.436  0.00  0.00    +0.000 C 
ATOM     16  N   UNL     1       1.963   7.272  19.763  0.00  0.00    +0.000 N 
ATOM     17  C   UNL     1       2.017   6.061  20.558  0.00  0.00    +0.000 C 
ENDBRANCH   1  13
TORSDOF 1
ENDMDL
