MODEL 1
REMARK VINA RESULT:      -6.4      0.000      0.000
REMARK  Name = 
REMARK  7 active torsions:
REMARK  status: ('A' for Active; 'I' for Inactive)
REMARK    1  A    between atoms: C_4  and  O_5
REMARK    2  A    between atoms: N_9  and  C_10
REMARK    3  A    between atoms: C_10  and  O_11
REMARK    4  A    between atoms: O_11  and  C_12
REMARK    5  A    between atoms: C_12  and  C_13
REMARK    6  A    between atoms: C_13  and  C_14
REMARK    7  A    between atoms: C_14  and  O_15
REMARK                            x       y       z     vdW  Elec       q    Type
REMARK                         _______ _______ _______ _____ _____    ______ ____
ROOT
ATOM      1  N   UNL     1       6.505   3.719  13.678  0.00  0.00    +0.000 N 
ATOM      2  C   UNL     1       6.329   4.228  14.938  0.00  0.00    +0.000 A 
ATOM      3  N   UNL     1       7.077   5.304  15.243  0.00  0.00    +0.000 NA
ATOM      4  C   UNL     1       6.985   5.797  16.491  0.00  0.00    +0.000 A 
ATOM      5  C   UNL     1       6.148   5.221  17.437  0.00  0.00    +0.000 A 
ATOM      6  N   UNL     1       5.873   5.481  18.756  0.00  0.00    +0.000 NA
ATOM      7  C   UNL     1       4.987   4.568  19.104  0.00  0.00    +0.000 A 
ATOM      8  N   UNL     1       4.673   3.738  18.061  0.00  0.00    +0.000 N 
ATOM      9  C   UNL     1       5.419   4.126  16.978  0.00  0.00    +0.000 A 
ATOM     10  N   UNL     1       5.463   3.589  15.751  0.00  0.00    +0.000 NA
ATOM     11  H   UNL     1       7.000   4.317  13.036  0.00  0.00    +0.000 HD
ATOM     12  H   UNL     1       5.821   3.055  13.356  0.00  0.00    +0.000 HD
ENDROOT
BRANCH   4  13
ATOM     13  O   UNL     1       7.784   6.877  16.748  0.00  0.00    +0.000 OA
ATOM     14  H   UNL     1       8.307   6.917  15.931  0.00  0.00    +0.000 HD
ENDBRANCH   4  13
BRANCH   8  15
ATOM     15  C   UNL     1       3.750   2.622  18.102  0.00  0.00    +0.000 C 
BRANCH  15  16
ATOM     16  O   UNL     1       3.040   2.657  19.342  0.00  0.00    +0.000 OA
BRANCH  16  17
ATOM     17  C   UNL     1       1.630   2.764  19.143  0.00  0.00    +0.000 C 
BRANCH  17  18
ATOM     18  C   UNL     1       0.990   3.426  20.359  0.00  0.00    +0.000 C 
BRANCH  18  19
ATOM     19  C   UNL     1       2.051   3.953  21.317  0.00  0.00    +0.000 C 
BRANCH  19  20
ATOM     20  O   UNL     1       2.480   2.922  22.198  0.00  0.00    +0.000 OA
ATOM     21  H   UNL     1       1.725   2.669  22.753  0.00  0.00    +0.000 HD
ENDBRANCH  19  20
ENDBRANCH  18  19
ENDBRANCH  17  18
ENDBRANCH  16  17
ENDBRANCH  15  16
ENDBRANCH   8  15
TORSDOF 7
ENDMDL
MODEL 2
REMARK VINA RESULT:      -6.4      1.594      2.777
REMARK  Name = 
REMARK  7 active torsions:
REMARK  status: ('A' for Active; 'I' for Inactive)
REMARK    1  A    between atoms: C_4  and  O_5
REMARK    2  A    between atoms: N_9  and  C_10
REMARK    3  A    between atoms: C_10  and  O_11
REMARK    4  A    between atoms: O_11  and  C_12
REMARK    5  A    between atoms: C_12  and  C_13
REMARK    6  A    between atoms: C_13  and  C_14
REMARK    7  A    between atoms: C_14  and  O_15
REMARK                            x       y       z     vdW  Elec       q    Type
REMARK                         _______ _______ _______ _____ _____    ______ ____
ROOT
ATOM      1  N   UNL     1       8.345   5.258  20.630  0.00  0.00    +0.000 N 
ATOM      2  C   UNL     1       7.608   5.474  19.496  0.00  0.00    +0.000 A 
ATOM      3  N   UNL     1       7.987   6.525  18.745  0.00  0.00    +0.000 NA
ATOM      4  C   UNL     1       7.251   6.814  17.657  0.00  0.00    +0.000 A 
ATOM      5  C   UNL     1       6.140   6.058  17.313  0.00  0.00    +0.000 A 
ATOM      6  N   UNL     1       5.211   6.126  16.305  0.00  0.00    +0.000 NA
ATOM      7  C   UNL     1       4.392   5.116  16.529  0.00  0.00    +0.000 A 
ATOM      8  N   UNL     1       4.763   4.395  17.633  0.00  0.00    +0.000 N 
ATOM      9  C   UNL     1       5.877   4.990  18.167  0.00  0.00    +0.000 A 
ATOM     10  N   UNL     1       6.569   4.647  19.262  0.00  0.00    +0.000 NA
ATOM     11  H   UNL     1       9.219   5.757  20.680  0.00  0.00    +0.000 HD
ATOM     12  H   UNL     1       8.219   4.373  21.092  0.00  0.00    +0.000 HD
ENDROOT
BRANCH   4  13
ATOM     13  O   UNL     1       7.672   7.905  16.946  0.00  0.00    +0.000 OA
ATOM     14  H   UNL     1       7.217   7.760  16.101  0.00  0.00    +0.000 HD
ENDBRANCH   4  13
BRANCH   8  15
ATOM     15  C   UNL     1       4.077   3.236  18.168  0.00  0.00    +0.000 C 
BRANCH  15  16
ATOM     16  O   UNL     1       3.236   3.654  19.245  0.00  0.00    +0.000 OA
BRANCH  16  17
ATOM     17  C   UNL     1       1.958   3.019  19.197  0.00  0.00    +0.000 C 
BRANCH  17  18
ATOM     18  C   UNL     1       1.171   3.356  20.461  0.00  0.00    +0.000 C 
BRANCH  18  19
ATOM     19  C   UNL     1       2.107   3.612  21.636  0.00  0.00    +0.000 C 
BRANCH  19  20
ATOM     20  O   UNL     1       2.831   2.432  21.960  0.00  0.00    +0.000 OA
ATOM     21  H   UNL     1       3.494   2.661  22.630  0.00  0.00    +0.000 HD
ENDBRANCH  19  20
ENDBRANCH  18  19
ENDBRANCH  17  18
ENDBRANCH  16  17
ENDBRANCH  15  16
ENDBRANCH   8  15
TORSDOF 7
ENDMDL
MODEL 3
REMARK VINA RESULT:      -6.3      2.118      3.267
REMARK  Name = 
REMARK  7 active torsions:
REMARK  status: ('A' for Active; 'I' for Inactive)
REMARK    1  A    between atoms: C_4  and  O_5
REMARK    2  A    between atoms: N_9  and  C_10
REMARK    3  A    between atoms: C_10  and  O_11
REMARK    4  A    between atoms: O_11  and  C_12
REMARK    5  A    between atoms: C_12  and  C_13
REMARK    6  A    between atoms: C_13  and  C_14
REMARK    7  A    between atoms: C_14  and  O_15
REMARK                            x       y       z     vdW  Elec       q    Type
REMARK                         _______ _______ _______ _____ _____    ______ ____
ROOT
ATOM      1  N   UNL     1       8.341   5.251  20.364  0.00  0.00    +0.000 N 
ATOM      2  C   UNL     1       7.761   5.675  19.197  0.00  0.00    +0.000 A 
ATOM      3  N   UNL     1       8.133   6.896  18.771  0.00  0.00    +0.000 NA
ATOM      4  C   UNL     1       7.539   7.380  17.664  0.00  0.00    +0.000 A 
ATOM      5  C   UNL     1       6.578   6.649  16.981  0.00  0.00    +0.000 A 
ATOM      6  N   UNL     1       5.806   6.886  15.871  0.00  0.00    +0.000 NA
ATOM      7  C   UNL     1       5.076   5.797  15.726  0.00  0.00    +0.000 A 
ATOM      8  N   UNL     1       5.354   4.866  16.691  0.00  0.00    +0.000 N 
ATOM      9  C   UNL     1       6.307   5.395  17.522  0.00  0.00    +0.000 A 
ATOM     10  N   UNL     1       6.862   4.855  18.616  0.00  0.00    +0.000 NA
ATOM     11  H   UNL     1       9.139   5.785  20.668  0.00  0.00    +0.000 HD
ATOM     12  H   UNL     1       8.243   4.277  20.592  0.00  0.00    +0.000 HD
ENDROOT
BRANCH   4  13
ATOM     13  O   UNL     1       7.941   8.634  17.292  0.00  0.00    +0.000 OA
ATOM     14  H   UNL     1       8.805   8.687  17.732  0.00  0.00    +0.000 HD
ENDBRANCH   4  13
BRANCH   8  15
ATOM     15  C   UNL     1       4.724   3.568  16.835  0.00  0.00    +0.000 C 
BRANCH  15  16
ATOM     16  O   UNL     1       3.643   3.681  17.763  0.00  0.00    +0.000 OA
BRANCH  16  17
ATOM     17  C   UNL     1       2.812   2.520  17.753  0.00  0.00    +0.000 C 
BRANCH  17  18
ATOM     18  C   UNL     1       3.222   1.587  18.890  0.00  0.00    +0.000 C 
BRANCH  18  19
ATOM     19  C   UNL     1       3.807   2.373  20.057  0.00  0.00    +0.000 C 
BRANCH  19  20
ATOM     20  O   UNL     1       5.218   2.482  19.923  0.00  0.00    +0.000 OA
ATOM     21  H   UNL     1       5.413   2.757  19.013  0.00  0.00    +0.000 HD
ENDBRANCH  19  20
ENDBRANCH  18  19
ENDBRANCH  17  18
ENDBRANCH  16  17
ENDBRANCH  15  16
ENDBRANCH   8  15
TORSDOF 7
ENDMDL
MODEL 4
REMARK VINA RESULT:      -6.3      1.810      2.037
REMARK  Name = 
REMARK  7 active torsions:
REMARK  status: ('A' for Active; 'I' for Inactive)
REMARK    1  A    between atoms: C_4  and  O_5
REMARK    2  A    between atoms: N_9  and  C_10
REMARK    3  A    between atoms: C_10  and  O_11
REMARK    4  A    between atoms: O_11  and  C_12
REMARK    5  A    between atoms: C_12  and  C_13
REMARK    6  A    between atoms: C_13  and  C_14
REMARK    7  A    between atoms: C_14  and  O_15
REMARK                            x       y       z     vdW  Elec       q    Type
REMARK                         _______ _______ _______ _____ _____    ______ ____
ROOT
ATOM      1  N   UNL     1       6.415   5.377  14.089  0.00  0.00    +0.000 N 
ATOM      2  C   UNL     1       6.354   5.235  15.450  0.00  0.00    +0.000 A 
ATOM      3  N   UNL     1       7.457   4.731  16.034  0.00  0.00    +0.000 NA
ATOM      4  C   UNL     1       7.418   4.513  17.361  0.00  0.00    +0.000 A 
ATOM      5  C   UNL     1       6.283   4.797  18.108  0.00  0.00    +0.000 A 
ATOM      6  N   UNL     1       5.950   4.661  19.433  0.00  0.00    +0.000 NA
ATOM      7  C   UNL     1       4.712   5.108  19.519  0.00  0.00    +0.000 A 
ATOM      8  N   UNL     1       4.239   5.536  18.307  0.00  0.00    +0.000 N 
ATOM      9  C   UNL     1       5.225   5.332  17.377  0.00  0.00    +0.000 A 
ATOM     10  N   UNL     1       5.200   5.575  16.059  0.00  0.00    +0.000 NA
ATOM     11  H   UNL     1       7.336   5.303  13.687  0.00  0.00    +0.000 HD
ATOM     12  H   UNL     1       5.698   5.934  13.657  0.00  0.00    +0.000 HD
ENDROOT
BRANCH   4  13
ATOM     13  O   UNL     1       8.559   3.981  17.895  0.00  0.00    +0.000 OA
ATOM     14  H   UNL     1       9.236   4.530  17.467  0.00  0.00    +0.000 HD
ENDBRANCH   4  13
BRANCH   8  15
ATOM     15  C   UNL     1       2.917   6.069  18.045  0.00  0.00    +0.000 C 
BRANCH  15  16
ATOM     16  O   UNL     1       1.944   5.193  18.617  0.00  0.00    +0.000 OA
BRANCH  16  17
ATOM     17  C   UNL     1       1.558   4.162  17.708  0.00  0.00    +0.000 C 
BRANCH  17  18
ATOM     18  C   UNL     1       1.724   2.801  18.377  0.00  0.00    +0.000 C 
BRANCH  18  19
ATOM     19  C   UNL     1       1.695   2.930  19.896  0.00  0.00    +0.000 C 
BRANCH  19  20
ATOM     20  O   UNL     1       0.447   3.462  20.324  0.00  0.00    +0.000 OA
ATOM     21  H   UNL     1      -0.211   2.751  20.285  0.00  0.00    +0.000 HD
ENDBRANCH  19  20
ENDBRANCH  18  19
ENDBRANCH  17  18
ENDBRANCH  16  17
ENDBRANCH  15  16
ENDBRANCH   8  15
TORSDOF 7
ENDMDL
MODEL 5
REMARK VINA RESULT:      -6.2      1.965      2.168
REMARK  Name = 
REMARK  7 active torsions:
REMARK  status: ('A' for Active; 'I' for Inactive)
REMARK    1  A    between atoms: C_4  and  O_5
REMARK    2  A    between atoms: N_9  and  C_10
REMARK    3  A    between atoms: C_10  and  O_11
REMARK    4  A    between atoms: O_11  and  C_12
REMARK    5  A    between atoms: C_12  and  C_13
REMARK    6  A    between atoms: C_13  and  C_14
REMARK    7  A    between atoms: C_14  and  O_15
REMARK                            x       y       z     vdW  Elec       q    Type
REMARK                         _______ _______ _______ _____ _____    ______ ____
ROOT
ATOM      1  N   UNL     1       6.486   5.351  14.087  0.00  0.00    +0.000 N 
ATOM      2  C   UNL     1       6.376   5.149  15.438  0.00  0.00    +0.000 A 
ATOM      3  N   UNL     1       7.498   4.738  16.059  0.00  0.00    +0.000 NA
ATOM      4  C   UNL     1       7.420   4.463  17.374  0.00  0.00    +0.000 A 
ATOM      5  C   UNL     1       6.228   4.597  18.071  0.00  0.00    +0.000 A 
ATOM      6  N   UNL     1       5.850   4.373  19.372  0.00  0.00    +0.000 NA
ATOM      7  C   UNL     1       4.569   4.686  19.412  0.00  0.00    +0.000 A 
ATOM      8  N   UNL     1       4.111   5.112  18.193  0.00  0.00    +0.000 N 
ATOM      9  C   UNL     1       5.154   5.049  17.308  0.00  0.00    +0.000 A 
ATOM     10  N   UNL     1       5.166   5.342  15.999  0.00  0.00    +0.000 NA
ATOM     11  H   UNL     1       7.427   5.390  13.731  0.00  0.00    +0.000 HD
ATOM     12  H   UNL     1       5.735   5.849  13.640  0.00  0.00    +0.000 HD
ENDROOT
BRANCH   4  13
ATOM     13  O   UNL     1       8.585   4.030  17.945  0.00  0.00    +0.000 OA
ATOM     14  H   UNL     1       8.695   3.169  17.509  0.00  0.00    +0.000 HD
ENDBRANCH   4  13
BRANCH   8  15
ATOM     15  C   UNL     1       2.754   5.516  17.883  0.00  0.00    +0.000 C 
BRANCH  15  16
ATOM     16  O   UNL     1       1.959   4.346  17.679  0.00  0.00    +0.000 OA
BRANCH  16  17
ATOM     17  C   UNL     1       1.143   4.054  18.813  0.00  0.00    +0.000 C 
BRANCH  17  18
ATOM     18  C   UNL     1       1.014   2.542  18.975  0.00  0.00    +0.000 C 
BRANCH  18  19
ATOM     19  C   UNL     1       2.385   1.877  19.012  0.00  0.00    +0.000 C 
BRANCH  19  20
ATOM     20  O   UNL     1       2.870   1.668  17.692  0.00  0.00    +0.000 OA
ATOM     21  H   UNL     1       2.109   1.490  17.118  0.00  0.00    +0.000 HD
ENDBRANCH  19  20
ENDBRANCH  18  19
ENDBRANCH  17  18
ENDBRANCH  16  17
ENDBRANCH  15  16
ENDBRANCH   8  15
TORSDOF 7
ENDMDL
MODEL 6
REMARK VINA RESULT:      -6.2      2.008      3.143
REMARK  Name = 
REMARK  7 active torsions:
REMARK  status: ('A' for Active; 'I' for Inactive)
REMARK    1  A    between atoms: C_4  and  O_5
REMARK    2  A    between atoms: N_9  and  C_10
REMARK    3  A    between atoms: C_10  and  O_11
REMARK    4  A    between atoms: O_11  and  C_12
REMARK    5  A    between atoms: C_12  and  C_13
REMARK    6  A    between atoms: C_13  and  C_14
REMARK    7  A    between atoms: C_14  and  O_15
REMARK                            x       y       z     vdW  Elec       q    Type
REMARK                         _______ _______ _______ _____ _____    ______ ____
ROOT
ATOM      1  N   UNL     1       8.402   5.302  20.421  0.00  0.00    +0.000 N 
ATOM      2  C   UNL     1       7.761   5.681  19.271  0.00  0.00    +0.000 A 
ATOM      3  N   UNL     1       8.174   6.842  18.729  0.00  0.00    +0.000 NA
ATOM      4  C   UNL     1       7.528   7.287  17.636  0.00  0.00    +0.000 A 
ATOM      5  C   UNL     1       6.473   6.577  17.080  0.00  0.00    +0.000 A 
ATOM      6  N   UNL     1       5.634   6.789  16.015  0.00  0.00    +0.000 NA
ATOM      7  C   UNL     1       4.828   5.744  16.006  0.00  0.00    +0.000 A 
ATOM      8  N   UNL     1       5.121   4.866  17.014  0.00  0.00    +0.000 N 
ATOM      9  C   UNL     1       6.166   5.385  17.732  0.00  0.00    +0.000 A 
ATOM     10  N   UNL     1       6.770   4.886  18.820  0.00  0.00    +0.000 NA
ATOM     11  H   UNL     1       9.253   5.800  20.626  0.00  0.00    +0.000 HD
ATOM     12  H   UNL     1       8.261   4.354  20.728  0.00  0.00    +0.000 HD
ENDROOT
BRANCH   4  13
ATOM     13  O   UNL     1       7.978   8.481  17.143  0.00  0.00    +0.000 OA
ATOM     14  H   UNL     1       7.198   9.042  17.281  0.00  0.00    +0.000 HD
ENDBRANCH   4  13
BRANCH   8  15
ATOM     15  C   UNL     1       4.424   3.627  17.300  0.00  0.00    +0.000 C 
BRANCH  15  16
ATOM     16  O   UNL     1       3.634   3.804  18.478  0.00  0.00    +0.000 OA
BRANCH  16  17
ATOM     17  C   UNL     1       2.346   4.343  18.177  0.00  0.00    +0.000 C 
BRANCH  17  18
ATOM     18  C   UNL     1       1.290   3.659  19.041  0.00  0.00    +0.000 C 
BRANCH  18  19
ATOM     19  C   UNL     1       1.840   2.384  19.669  0.00  0.00    +0.000 C 
BRANCH  19  20
ATOM     20  O   UNL     1       1.923   1.348  18.698  0.00  0.00    +0.000 OA
ATOM     21  H   UNL     1       2.856   1.095  18.609  0.00  0.00    +0.000 HD
ENDBRANCH  19  20
ENDBRANCH  18  19
ENDBRANCH  17  18
ENDBRANCH  16  17
ENDBRANCH  15  16
ENDBRANCH   8  15
TORSDOF 7
ENDMDL
MODEL 7
REMARK VINA RESULT:      -6.2      1.343      2.649
REMARK  Name = 
REMARK  7 active torsions:
REMARK  status: ('A' for Active; 'I' for Inactive)
REMARK    1  A    between atoms: C_4  and  O_5
REMARK    2  A    between atoms: N_9  and  C_10
REMARK    3  A    between atoms: C_10  and  O_11
REMARK    4  A    between atoms: O_11  and  C_12
REMARK    5  A    between atoms: C_12  and  C_13
REMARK    6  A    between atoms: C_13  and  C_14
REMARK    7  A    between atoms: C_14  and  O_15
REMARK                            x       y       z     vdW  Elec       q    Type
REMARK                         _______ _______ _______ _____ _____    ______ ____
ROOT
ATOM      1  N   UNL     1       8.123   5.664  20.215  0.00  0.00    +0.000 N 
ATOM      2  C   UNL     1       7.406   5.323  19.099  0.00  0.00    +0.000 A 
ATOM      3  N   UNL     1       7.816   5.887  17.948  0.00  0.00    +0.000 NA
ATOM      4  C   UNL     1       7.100   5.633  16.837  0.00  0.00    +0.000 A 
ATOM      5  C   UNL     1       5.978   4.817  16.870  0.00  0.00    +0.000 A 
ATOM      6  N   UNL     1       5.063   4.409  15.931  0.00  0.00    +0.000 NA
ATOM      7  C   UNL     1       4.222   3.636  16.591  0.00  0.00    +0.000 A 
ATOM      8  N   UNL     1       4.564   3.522  17.912  0.00  0.00    +0.000 N 
ATOM      9  C   UNL     1       5.682   4.286  18.123  0.00  0.00    +0.000 A 
ATOM     10  N   UNL     1       6.353   4.497  19.264  0.00  0.00    +0.000 NA
ATOM     11  H   UNL     1       9.005   6.117  20.040  0.00  0.00    +0.000 HD
ATOM     12  H   UNL     1       7.973   5.107  21.039  0.00  0.00    +0.000 HD
ENDROOT
BRANCH   4  13
ATOM     13  O   UNL     1       7.552   6.250  15.703  0.00  0.00    +0.000 OA
ATOM     14  H   UNL     1       7.367   5.568  15.036  0.00  0.00    +0.000 HD
ENDBRANCH   4  13
BRANCH   8  15
ATOM     15  C   UNL     1       3.847   2.764  18.919  0.00  0.00    +0.000 C 
BRANCH  15  16
ATOM     16  O   UNL     1       2.476   3.165  18.909  0.00  0.00    +0.000 OA
BRANCH  16  17
ATOM     17  C   UNL     1       2.255   4.321  19.716  0.00  0.00    +0.000 C 
BRANCH  17  18
ATOM     18  C   UNL     1       1.074   4.075  20.651  0.00  0.00    +0.000 C 
BRANCH  18  19
ATOM     19  C   UNL     1       1.275   2.801  21.463  0.00  0.00    +0.000 C 
BRANCH  19  20
ATOM     20  O   UNL     1       2.528   2.834  22.135  0.00  0.00    +0.000 OA
ATOM     21  H   UNL     1       2.723   3.757  22.360  0.00  0.00    +0.000 HD
ENDBRANCH  19  20
ENDBRANCH  18  19
ENDBRANCH  17  18
ENDBRANCH  16  17
ENDBRANCH  15  16
ENDBRANCH   8  15
TORSDOF 7
ENDMDL
MODEL 8
REMARK VINA RESULT:      -6.1      2.035      2.327
REMARK  Name = 
REMARK  7 active torsions:
REMARK  status: ('A' for Active; 'I' for Inactive)
REMARK    1  A    between atoms: C_4  and  O_5
REMARK    2  A    between atoms: N_9  and  C_10
REMARK    3  A    between atoms: C_10  and  O_11
REMARK    4  A    between atoms: O_11  and  C_12
REMARK    5  A    between atoms: C_12  and  C_13
REMARK    6  A    between atoms: C_13  and  C_14
REMARK    7  A    between atoms: C_14  and  O_15
REMARK                            x       y       z     vdW  Elec       q    Type
REMARK                         _______ _______ _______ _____ _____    ______ ____
ROOT
ATOM      1  N   UNL     1       5.226   6.710  15.939  0.00  0.00    +0.000 N 
ATOM      2  C   UNL     1       5.205   5.838  16.995  0.00  0.00    +0.000 A 
ATOM      3  N   UNL     1       6.139   6.046  17.942  0.00  0.00    +0.000 NA
ATOM      4  C   UNL     1       6.198   5.174  18.965  0.00  0.00    +0.000 A 
ATOM      5  C   UNL     1       5.328   4.095  19.047  0.00  0.00    +0.000 A 
ATOM      6  N   UNL     1       5.172   3.058  19.932  0.00  0.00    +0.000 NA
ATOM      7  C   UNL     1       4.165   2.352  19.453  0.00  0.00    +0.000 A 
ATOM      8  N   UNL     1       3.661   2.899  18.303  0.00  0.00    +0.000 N 
ATOM      9  C   UNL     1       4.403   4.014  18.010  0.00  0.00    +0.000 A 
ATOM     10  N   UNL     1       4.290   4.848  16.967  0.00  0.00    +0.000 NA
ATOM     11  H   UNL     1       5.779   7.541  16.075  0.00  0.00    +0.000 HD
ATOM     12  H   UNL     1       4.424   6.707  15.332  0.00  0.00    +0.000 HD
ENDROOT
BRANCH   4  13
ATOM     13  O   UNL     1       7.180   5.424  19.884  0.00  0.00    +0.000 OA
ATOM     14  H   UNL     1       7.325   6.374  19.743  0.00  0.00    +0.000 HD
ENDBRANCH   4  13
BRANCH   8  15
ATOM     15  C   UNL     1       2.567   2.372  17.513  0.00  0.00    +0.000 C 
BRANCH  15  16
ATOM     16  O   UNL     1       1.372   3.080  17.848  0.00  0.00    +0.000 OA
BRANCH  16  17
ATOM     17  C   UNL     1       0.879   2.708  19.135  0.00  0.00    +0.000 C 
BRANCH  17  18
ATOM     18  C   UNL     1       0.753   3.949  20.014  0.00  0.00    +0.000 C 
BRANCH  18  19
ATOM     19  C   UNL     1       1.760   3.914  21.158  0.00  0.00    +0.000 C 
BRANCH  19  20
ATOM     20  O   UNL     1       2.663   5.008  21.057  0.00  0.00    +0.000 OA
ATOM     21  H   UNL     1       2.629   5.341  20.146  0.00  0.00    +0.000 HD
ENDBRANCH  19  20
ENDBRANCH  18  19
ENDBRANCH  17  18
ENDBRANCH  16  17
ENDBRANCH  15  16
ENDBRANCH   8  15
TORSDOF 7
ENDMDL
MODEL 9
REMARK VINA RESULT:      -6.1      1.075      1.191
REMARK  Name = 
REMARK  7 active torsions:
REMARK  status: ('A' for Active; 'I' for Inactive)
REMARK    1  A    between atoms: C_4  and  O_5
REMARK    2  A    between atoms: N_9  and  C_10
REMARK    3  A    between atoms: C_10  and  O_11
REMARK    4  A    between atoms: O_11  and  C_12
REMARK    5  A    between atoms: C_12  and  C_13
REMARK    6  A    between atoms: C_13  and  C_14
REMARK    7  A    between atoms: C_14  and  O_15
REMARK                            x       y       z     vdW  Elec       q    Type
REMARK                         _______ _______ _______ _____ _____    ______ ____
ROOT
ATOM      1  N   UNL     1       7.323   5.378  14.467  0.00  0.00    +0.000 N 
ATOM      2  C   UNL     1       6.935   5.341  15.780  0.00  0.00    +0.000 A 
ATOM      3  N   UNL     1       7.646   6.114  16.621  0.00  0.00    +0.000 NA
ATOM      4  C   UNL     1       7.343   6.058  17.931  0.00  0.00    +0.000 A 
ATOM      5  C   UNL     1       6.331   5.234  18.404  0.00  0.00    +0.000 A 
ATOM      6  N   UNL     1       5.827   4.957  19.651  0.00  0.00    +0.000 NA
ATOM      7  C   UNL     1       4.865   4.079  19.440  0.00  0.00    +0.000 A 
ATOM      8  N   UNL     1       4.723   3.788  18.110  0.00  0.00    +0.000 N 
ATOM      9  C   UNL     1       5.665   4.506  17.421  0.00  0.00    +0.000 A 
ATOM     10  N   UNL     1       5.916   4.518  16.104  0.00  0.00    +0.000 NA
ATOM     11  H   UNL     1       7.944   6.133  14.222  0.00  0.00    +0.000 HD
ATOM     12  H   UNL     1       6.690   4.980  13.795  0.00  0.00    +0.000 HD
ENDROOT
BRANCH   4  13
ATOM     13  O   UNL     1       8.113   6.848  18.739  0.00  0.00    +0.000 OA
ATOM     14  H   UNL     1       8.965   6.384  18.691  0.00  0.00    +0.000 HD
ENDBRANCH   4  13
BRANCH   8  15
ATOM     15  C   UNL     1       3.775   2.855  17.535  0.00  0.00    +0.000 C 
BRANCH  15  16
ATOM     16  O   UNL     1       2.849   2.455  18.547  0.00  0.00    +0.000 OA
BRANCH  16  17
ATOM     17  C   UNL     1       1.621   3.179  18.459  0.00  0.00    +0.000 C 
BRANCH  17  18
ATOM     18  C   UNL     1       0.731   2.823  19.646  0.00  0.00    +0.000 C 
BRANCH  18  19
ATOM     19  C   UNL     1       1.313   3.363  20.947  0.00  0.00    +0.000 C 
BRANCH  19  20
ATOM     20  O   UNL     1       2.409   2.562  21.371  0.00  0.00    +0.000 OA
ATOM     21  H   UNL     1       3.213   2.909  20.954  0.00  0.00    +0.000 HD
ENDBRANCH  19  20
ENDBRANCH  18  19
ENDBRANCH  17  18
ENDBRANCH  16  17
ENDBRANCH  15  16
ENDBRANCH   8  15
TORSDOF 7
ENDMDL
