MODEL 1
REMARK VINA RESULT:      -7.7      0.000      0.000
REMARK  Name = 
REMARK  10 active torsions:
REMARK  status: ('A' for Active; 'I' for Inactive)
REMARK    1  A    between atoms: C_1  and  C_2
REMARK    2  A    between atoms: C_2  and  N_3
REMARK    3  A    between atoms: N_3  and  C_4
REMARK    4  A    between atoms: N_3  and  C_6
REMARK    5  A    between atoms: C_4  and  C_5
REMARK    6  A    between atoms: C_6  and  C_7
REMARK    7  A    between atoms: C_7  and  C_8
REMARK    8  A    between atoms: C_8  and  C_10
REMARK    9  A    between atoms: C_13  and  O_14
REMARK   10  A    between atoms: O_14  and  C_15
REMARK                            x       y       z     vdW  Elec       q    Type
REMARK                         _______ _______ _______ _____ _____    ______ ____
ROOT
ATOM      1  C   UNL     1       5.582   5.112  15.879  0.00  0.00    +0.000 A 
ATOM      2  C   UNL     1       5.256   6.391  16.352  0.00  0.00    +0.000 A 
ATOM      3  C   UNL     1       4.190   6.560  17.237  0.00  0.00    +0.000 A 
ATOM      4  C   UNL     1       3.438   5.456  17.646  0.00  0.00    +0.000 A 
ATOM      5  C   UNL     1       3.795   4.174  17.218  0.00  0.00    +0.000 A 
ATOM      6  C   UNL     1       4.843   4.005  16.313  0.00  0.00    +0.000 A 
ENDROOT
BRANCH   1   7
ATOM      7  C   UNL     1       6.725   4.968  14.939  0.00  0.00    +0.000 C 
ATOM      8  O   UNL     1       7.697   5.712  15.063  0.00  0.00    +0.000 OA
BRANCH   7   9
ATOM      9  C   UNL     1       6.642   3.888  13.877  0.00  0.00    +0.000 C 
BRANCH   9  10
ATOM     10  C   UNL     1       5.372   4.065  13.043  0.00  0.00    +0.000 C 
BRANCH  10  11
ATOM     11  N   UNL     1       5.404   3.419  11.712  0.00  0.00    +0.000 NA
BRANCH  11  13
ATOM     12  C   UNL     1       6.090   1.077  11.042  0.00  0.00    +0.000 C 
ATOM     13  C   UNL     1       6.466   2.392  11.714  0.00  0.00    +0.000 C 
ENDBRANCH  11  13
BRANCH  11  14
ATOM     14  C   UNL     1       4.099   2.921  11.250  0.00  0.00    +0.000 C 
ATOM     15  C   UNL     1       3.388   3.760  10.194  0.00  0.00    +0.000 C 
ENDBRANCH  11  14
ENDBRANCH  10  11
ENDBRANCH   9  10
ENDBRANCH   7   9
ENDBRANCH   1   7
BRANCH   4  16
ATOM     16  O   UNL     1       2.406   5.716  18.516  0.00  0.00    +0.000 OA
BRANCH  16  17
ATOM     17  C   UNL     1       2.031   4.758  19.434  0.00  0.00    +0.000 A 
ATOM     18  C   UNL     1       2.645   4.850  20.688  0.00  0.00    +0.000 A 
ATOM     19  C   UNL     1       2.336   3.925  21.687  0.00  0.00    +0.000 A 
ATOM     20  C   UNL     1       1.416   2.915  21.424  0.00  0.00    +0.000 A 
ATOM     21  F   UNL     1       1.137   2.013  22.373  0.00  0.00    +0.000 F 
ATOM     22  C   UNL     1       0.776   2.833  20.194  0.00  0.00    +0.000 A 
ATOM     23  C   UNL     1       1.064   3.775  19.204  0.00  0.00    +0.000 A 
ENDBRANCH  16  17
ENDBRANCH   4  16
TORSDOF 8
ENDMDL
MODEL 2
REMARK VINA RESULT:      -7.6      0.333      1.057
REMARK  Name = 
REMARK  10 active torsions:
REMARK  status: ('A' for Active; 'I' for Inactive)
REMARK    1  A    between atoms: C_1  and  C_2
REMARK    2  A    between atoms: C_2  and  N_3
REMARK    3  A    between atoms: N_3  and  C_4
REMARK    4  A    between atoms: N_3  and  C_6
REMARK    5  A    between atoms: C_4  and  C_5
REMARK    6  A    between atoms: C_6  and  C_7
REMARK    7  A    between atoms: C_7  and  C_8
REMARK    8  A    between atoms: C_8  and  C_10
REMARK    9  A    between atoms: C_13  and  O_14
REMARK   10  A    between atoms: O_14  and  C_15
REMARK                            x       y       z     vdW  Elec       q    Type
REMARK                         _______ _______ _______ _____ _____    ______ ____
ROOT
ATOM      1  C   UNL     1       5.509   5.167  15.840  0.00  0.00    +0.000 A 
ATOM      2  C   UNL     1       4.814   4.117  16.455  0.00  0.00    +0.000 A 
ATOM      3  C   UNL     1       3.780   4.392  17.350  0.00  0.00    +0.000 A 
ATOM      4  C   UNL     1       3.442   5.714  17.647  0.00  0.00    +0.000 A 
ATOM      5  C   UNL     1       4.099   6.762  16.995  0.00  0.00    +0.000 A 
ATOM      6  C   UNL     1       5.151   6.492  16.118  0.00  0.00    +0.000 A 
ENDROOT
BRANCH   1   7
ATOM      7  C   UNL     1       6.604   4.839  14.888  0.00  0.00    +0.000 C 
ATOM      8  O   UNL     1       7.651   5.481  14.939  0.00  0.00    +0.000 OA
BRANCH   7   9
ATOM      9  C   UNL     1       6.376   3.707  13.904  0.00  0.00    +0.000 C 
BRANCH   9  10
ATOM     10  C   UNL     1       5.208   4.043  12.974  0.00  0.00    +0.000 C 
BRANCH  10  11
ATOM     11  N   UNL     1       5.166   3.263  11.718  0.00  0.00    +0.000 NA
BRANCH  11  13
ATOM     12  C   UNL     1       6.862   1.633  10.781  0.00  0.00    +0.000 C 
ATOM     13  C   UNL     1       5.920   2.008  11.919  0.00  0.00    +0.000 C 
ENDBRANCH  11  13
BRANCH  11  14
ATOM     14  C   UNL     1       3.814   3.060  11.176  0.00  0.00    +0.000 C 
ATOM     15  C   UNL     1       3.401   3.971  10.024  0.00  0.00    +0.000 C 
ENDBRANCH  11  14
ENDBRANCH  10  11
ENDBRANCH   9  10
ENDBRANCH   7   9
ENDBRANCH   1   7
BRANCH   4  16
ATOM     16  O   UNL     1       2.414   5.892  18.542  0.00  0.00    +0.000 OA
BRANCH  16  17
ATOM     17  C   UNL     1       2.078   4.871  19.405  0.00  0.00    +0.000 A 
ATOM     18  C   UNL     1       2.663   4.935  20.674  0.00  0.00    +0.000 A 
ATOM     19  C   UNL     1       2.388   3.947  21.621  0.00  0.00    +0.000 A 
ATOM     20  C   UNL     1       1.533   2.901  21.290  0.00  0.00    +0.000 A 
ATOM     21  F   UNL     1       1.288   1.939  22.190  0.00  0.00    +0.000 F 
ATOM     22  C   UNL     1       0.920   2.844  20.045  0.00  0.00    +0.000 A 
ATOM     23  C   UNL     1       1.173   3.847  19.108  0.00  0.00    +0.000 A 
ENDBRANCH  16  17
ENDBRANCH   4  16
TORSDOF 8
ENDMDL
MODEL 3
REMARK VINA RESULT:      -7.4      1.328      1.557
REMARK  Name = 
REMARK  10 active torsions:
REMARK  status: ('A' for Active; 'I' for Inactive)
REMARK    1  A    between atoms: C_1  and  C_2
REMARK    2  A    between atoms: C_2  and  N_3
REMARK    3  A    between atoms: N_3  and  C_4
REMARK    4  A    between atoms: N_3  and  C_6
REMARK    5  A    between atoms: C_4  and  C_5
REMARK    6  A    between atoms: C_6  and  C_7
REMARK    7  A    between atoms: C_7  and  C_8
REMARK    8  A    between atoms: C_8  and  C_10
REMARK    9  A    between atoms: C_13  and  O_14
REMARK   10  A    between atoms: O_14  and  C_15
REMARK                            x       y       z     vdW  Elec       q    Type
REMARK                         _______ _______ _______ _____ _____    ______ ____
ROOT
ATOM      1  C   UNL     1       6.410   4.973  15.665  0.00  0.00    +0.000 A 
ATOM      2  C   UNL     1       5.109   5.471  15.819  0.00  0.00    +0.000 A 
ATOM      3  C   UNL     1       4.590   5.690  17.095  0.00  0.00    +0.000 A 
ATOM      4  C   UNL     1       5.361   5.402  18.224  0.00  0.00    +0.000 A 
ATOM      5  C   UNL     1       6.677   4.955  18.072  0.00  0.00    +0.000 A 
ATOM      6  C   UNL     1       7.190   4.711  16.797  0.00  0.00    +0.000 A 
ENDROOT
BRANCH   1   7
ATOM      7  C   UNL     1       6.934   4.754  14.289  0.00  0.00    +0.000 C 
ATOM      8  O   UNL     1       7.786   5.522  13.847  0.00  0.00    +0.000 OA
BRANCH   7   9
ATOM      9  C   UNL     1       6.397   3.574  13.502  0.00  0.00    +0.000 C 
BRANCH   9  10
ATOM     10  C   UNL     1       5.344   4.045  12.497  0.00  0.00    +0.000 C 
BRANCH  10  11
ATOM     11  N   UNL     1       5.117   3.130  11.356  0.00  0.00    +0.000 NA
BRANCH  11  13
ATOM     12  C   UNL     1       7.033   1.563  10.828  0.00  0.00    +0.000 C 
ATOM     13  C   UNL     1       5.780   1.842  11.648  0.00  0.00    +0.000 C 
ENDBRANCH  11  13
BRANCH  11  14
ATOM     14  C   UNL     1       3.707   2.994  10.961  0.00  0.00    +0.000 C 
ATOM     15  C   UNL     1       3.152   4.077  10.043  0.00  0.00    +0.000 C 
ENDBRANCH  11  14
ENDBRANCH  10  11
ENDBRANCH   9  10
ENDBRANCH   7   9
ENDBRANCH   1   7
BRANCH   4  16
ATOM     16  O   UNL     1       4.769   5.645  19.441  0.00  0.00    +0.000 OA
BRANCH  16  17
ATOM     17  C   UNL     1       3.730   4.844  19.865  0.00  0.00    +0.000 A 
ATOM     18  C   UNL     1       2.541   5.513  20.179  0.00  0.00    +0.000 A 
ATOM     19  C   UNL     1       1.431   4.792  20.621  0.00  0.00    +0.000 A 
ATOM     20  C   UNL     1       1.517   3.410  20.748  0.00  0.00    +0.000 A 
ATOM     21  F   UNL     1       0.460   2.720  21.196  0.00  0.00    +0.000 F 
ATOM     22  C   UNL     1       2.681   2.732  20.409  0.00  0.00    +0.000 A 
ATOM     23  C   UNL     1       3.783   3.449  19.940  0.00  0.00    +0.000 A 
ENDBRANCH  16  17
ENDBRANCH   4  16
TORSDOF 8
ENDMDL
MODEL 4
REMARK VINA RESULT:      -7.4      5.921      8.419
REMARK  Name = 
REMARK  10 active torsions:
REMARK  status: ('A' for Active; 'I' for Inactive)
REMARK    1  A    between atoms: C_1  and  C_2
REMARK    2  A    between atoms: C_2  and  N_3
REMARK    3  A    between atoms: N_3  and  C_4
REMARK    4  A    between atoms: N_3  and  C_6
REMARK    5  A    between atoms: C_4  and  C_5
REMARK    6  A    between atoms: C_6  and  C_7
REMARK    7  A    between atoms: C_7  and  C_8
REMARK    8  A    between atoms: C_8  and  C_10
REMARK    9  A    between atoms: C_13  and  O_14
REMARK   10  A    between atoms: O_14  and  C_15
REMARK                            x       y       z     vdW  Elec       q    Type
REMARK                         _______ _______ _______ _____ _____    ______ ____
ROOT
ATOM      1  C   UNL     1       0.632  10.193  19.061  0.00  0.00    +0.000 A 
ATOM      2  C   UNL     1       1.408   9.637  18.035  0.00  0.00    +0.000 A 
ATOM      3  C   UNL     1       2.124   8.461  18.258  0.00  0.00    +0.000 A 
ATOM      4  C   UNL     1       2.081   7.840  19.508  0.00  0.00    +0.000 A 
ATOM      5  C   UNL     1       1.265   8.364  20.516  0.00  0.00    +0.000 A 
ATOM      6  C   UNL     1       0.568   9.554  20.305  0.00  0.00    +0.000 A 
ENDROOT
BRANCH   1   7
ATOM      7  C   UNL     1      -0.123  11.446  18.788  0.00  0.00    +0.000 C 
ATOM      8  O   UNL     1       0.502  12.476  18.540  0.00  0.00    +0.000 OA
BRANCH   7   9
ATOM      9  C   UNL     1      -1.638  11.384  18.812  0.00  0.00    +0.000 C 
BRANCH   9  10
ATOM     10  C   UNL     1      -2.129  10.161  18.035  0.00  0.00    +0.000 C 
BRANCH  10  11
ATOM     11  N   UNL     1      -3.183  10.438  17.035  0.00  0.00    +0.000 NA
BRANCH  11  13
ATOM     12  C   UNL     1      -5.384  10.912  18.192  0.00  0.00    +0.000 C 
ATOM     13  C   UNL     1      -4.097  11.460  17.587  0.00  0.00    +0.000 C 
ENDBRANCH  11  13
BRANCH  11  14
ATOM     14  C   UNL     1      -2.674  10.763  15.693  0.00  0.00    +0.000 C 
ATOM     15  C   UNL     1      -3.440  10.169  14.515  0.00  0.00    +0.000 C 
ENDBRANCH  11  14
ENDBRANCH  10  11
ENDBRANCH   9  10
ENDBRANCH   7   9
ENDBRANCH   1   7
BRANCH   4  16
ATOM     16  O   UNL     1       2.819   6.688  19.640  0.00  0.00    +0.000 OA
BRANCH  16  17
ATOM     17  C   UNL     1       2.211   5.464  19.466  0.00  0.00    +0.000 A 
ATOM     18  C   UNL     1       2.304   4.920  18.180  0.00  0.00    +0.000 A 
ATOM     19  C   UNL     1       1.718   3.685  17.901  0.00  0.00    +0.000 A 
ATOM     20  C   UNL     1       1.041   3.004  18.907  0.00  0.00    +0.000 A 
ATOM     21  F   UNL     1       0.457   1.830  18.633  0.00  0.00    +0.000 F 
ATOM     22  C   UNL     1       0.970   3.518  20.196  0.00  0.00    +0.000 A 
ATOM     23  C   UNL     1       1.580   4.740  20.483  0.00  0.00    +0.000 A 
ENDBRANCH  16  17
ENDBRANCH   4  16
TORSDOF 8
ENDMDL
MODEL 5
REMARK VINA RESULT:      -7.3      6.114      8.563
REMARK  Name = 
REMARK  10 active torsions:
REMARK  status: ('A' for Active; 'I' for Inactive)
REMARK    1  A    between atoms: C_1  and  C_2
REMARK    2  A    between atoms: C_2  and  N_3
REMARK    3  A    between atoms: N_3  and  C_4
REMARK    4  A    between atoms: N_3  and  C_6
REMARK    5  A    between atoms: C_4  and  C_5
REMARK    6  A    between atoms: C_6  and  C_7
REMARK    7  A    between atoms: C_7  and  C_8
REMARK    8  A    between atoms: C_8  and  C_10
REMARK    9  A    between atoms: C_13  and  O_14
REMARK   10  A    between atoms: O_14  and  C_15
REMARK                            x       y       z     vdW  Elec       q    Type
REMARK                         _______ _______ _______ _____ _____    ______ ____
ROOT
ATOM      1  C   UNL     1       0.652  10.127  19.111  0.00  0.00    +0.000 A 
ATOM      2  C   UNL     1       0.662   9.486  20.357  0.00  0.00    +0.000 A 
ATOM      3  C   UNL     1       1.386   8.306  20.530  0.00  0.00    +0.000 A 
ATOM      4  C   UNL     1       2.092   7.753  19.460  0.00  0.00    +0.000 A 
ATOM      5  C   UNL     1       2.127   8.420  18.231  0.00  0.00    +0.000 A 
ATOM      6  C   UNL     1       1.383   9.586  18.047  0.00  0.00    +0.000 A 
ENDROOT
BRANCH   1   7
ATOM      7  C   UNL     1      -0.127  11.386  18.961  0.00  0.00    +0.000 C 
ATOM      8  O   UNL     1       0.475  12.457  18.905  0.00  0.00    +0.000 OA
BRANCH   7   9
ATOM      9  C   UNL     1      -1.638  11.282  18.866  0.00  0.00    +0.000 C 
BRANCH   9  10
ATOM     10  C   UNL     1      -2.075  11.274  17.400  0.00  0.00    +0.000 C 
BRANCH  10  11
ATOM     11  N   UNL     1      -3.448  10.777  17.161  0.00  0.00    +0.000 NA
BRANCH  11  13
ATOM     12  C   UNL     1      -5.567  12.142  17.384  0.00  0.00    +0.000 C 
ATOM     13  C   UNL     1      -4.371  11.491  18.067  0.00  0.00    +0.000 C 
ENDBRANCH  11  13
BRANCH  11  14
ATOM     14  C   UNL     1      -3.864  10.804  15.751  0.00  0.00    +0.000 C 
ATOM     15  C   UNL     1      -2.948  10.096  14.758  0.00  0.00    +0.000 C 
ENDBRANCH  11  14
ENDBRANCH  10  11
ENDBRANCH   9  10
ENDBRANCH   7   9
ENDBRANCH   1   7
BRANCH   4  16
ATOM     16  O   UNL     1       2.774   6.588  19.720  0.00  0.00    +0.000 OA
BRANCH  16  17
ATOM     17  C   UNL     1       2.211   5.378  19.377  0.00  0.00    +0.000 A 
ATOM     18  C   UNL     1       1.526   4.717  20.404  0.00  0.00    +0.000 A 
ATOM     19  C   UNL     1       0.922   3.483  20.159  0.00  0.00    +0.000 A 
ATOM     20  C   UNL     1       1.010   2.917  18.891  0.00  0.00    +0.000 A 
ATOM     21  F   UNL     1       0.452   1.721  18.662  0.00  0.00    +0.000 F 
ATOM     22  C   UNL     1       1.659   3.578  17.856  0.00  0.00    +0.000 A 
ATOM     23  C   UNL     1       2.239   4.825  18.093  0.00  0.00    +0.000 A 
ENDBRANCH  16  17
ENDBRANCH   4  16
TORSDOF 8
ENDMDL
MODEL 6
REMARK VINA RESULT:      -7.2      6.268      8.846
REMARK  Name = 
REMARK  10 active torsions:
REMARK  status: ('A' for Active; 'I' for Inactive)
REMARK    1  A    between atoms: C_1  and  C_2
REMARK    2  A    between atoms: C_2  and  N_3
REMARK    3  A    between atoms: N_3  and  C_4
REMARK    4  A    between atoms: N_3  and  C_6
REMARK    5  A    between atoms: C_4  and  C_5
REMARK    6  A    between atoms: C_6  and  C_7
REMARK    7  A    between atoms: C_7  and  C_8
REMARK    8  A    between atoms: C_8  and  C_10
REMARK    9  A    between atoms: C_13  and  O_14
REMARK   10  A    between atoms: O_14  and  C_15
REMARK                            x       y       z     vdW  Elec       q    Type
REMARK                         _______ _______ _______ _____ _____    ______ ____
ROOT
ATOM      1  C   UNL     1       0.273  10.222  19.464  0.00  0.00    +0.000 A 
ATOM      2  C   UNL     1       0.421   9.500  20.656  0.00  0.00    +0.000 A 
ATOM      3  C   UNL     1       1.241   8.372  20.694  0.00  0.00    +0.000 A 
ATOM      4  C   UNL     1       1.908   7.951  19.541  0.00  0.00    +0.000 A 
ATOM      5  C   UNL     1       1.804   8.700  18.365  0.00  0.00    +0.000 A 
ATOM      6  C   UNL     1       0.964   9.814  18.317  0.00  0.00    +0.000 A 
ENDROOT
BRANCH   1   7
ATOM      7  C   UNL     1      -0.606  11.422  19.460  0.00  0.00    +0.000 C 
ATOM      8  O   UNL     1      -0.656  12.128  20.465  0.00  0.00    +0.000 OA
BRANCH   7   9
ATOM      9  C   UNL     1      -1.390  11.726  18.197  0.00  0.00    +0.000 C 
BRANCH   9  10
ATOM     10  C   UNL     1      -2.892  11.610  18.468  0.00  0.00    +0.000 C 
BRANCH  10  11
ATOM     11  N   UNL     1      -3.646  10.821  17.470  0.00  0.00    +0.000 NA
BRANCH  11  13
ATOM     12  C   UNL     1      -5.666  12.326  17.219  0.00  0.00    +0.000 C 
ATOM     13  C   UNL     1      -5.091  11.007  17.720  0.00  0.00    +0.000 C 
ENDBRANCH  11  13
BRANCH  11  14
ATOM     14  C   UNL     1      -3.251  11.070  16.076  0.00  0.00    +0.000 C 
ATOM     15  C   UNL     1      -2.872   9.846  15.249  0.00  0.00    +0.000 C 
ENDBRANCH  11  14
ENDBRANCH  10  11
ENDBRANCH   9  10
ENDBRANCH   7   9
ENDBRANCH   1   7
BRANCH   4  16
ATOM     16  O   UNL     1       2.691   6.829  19.669  0.00  0.00    +0.000 OA
BRANCH  16  17
ATOM     17  C   UNL     1       2.132   5.582  19.485  0.00  0.00    +0.000 A 
ATOM     18  C   UNL     1       2.197   5.077  18.182  0.00  0.00    +0.000 A 
ATOM     19  C   UNL     1       1.656   3.824  17.891  0.00  0.00    +0.000 A 
ATOM     20  C   UNL     1       1.053   3.086  18.904  0.00  0.00    +0.000 A 
ATOM     21  F   UNL     1       0.512   1.894  18.621  0.00  0.00    +0.000 F 
ATOM     22  C   UNL     1       1.012   3.562  20.208  0.00  0.00    +0.000 A 
ATOM     23  C   UNL     1       1.578   4.803  20.506  0.00  0.00    +0.000 A 
ENDBRANCH  16  17
ENDBRANCH   4  16
TORSDOF 8
ENDMDL
MODEL 7
REMARK VINA RESULT:      -7.2      5.357      7.315
REMARK  Name = 
REMARK  10 active torsions:
REMARK  status: ('A' for Active; 'I' for Inactive)
REMARK    1  A    between atoms: C_1  and  C_2
REMARK    2  A    between atoms: C_2  and  N_3
REMARK    3  A    between atoms: N_3  and  C_4
REMARK    4  A    between atoms: N_3  and  C_6
REMARK    5  A    between atoms: C_4  and  C_5
REMARK    6  A    between atoms: C_6  and  C_7
REMARK    7  A    between atoms: C_7  and  C_8
REMARK    8  A    between atoms: C_8  and  C_10
REMARK    9  A    between atoms: C_13  and  O_14
REMARK   10  A    between atoms: O_14  and  C_15
REMARK                            x       y       z     vdW  Elec       q    Type
REMARK                         _______ _______ _______ _____ _____    ______ ____
ROOT
ATOM      1  C   UNL     1       2.644   7.216  18.861  0.00  0.00    +0.000 A 
ATOM      2  C   UNL     1       1.936   7.547  20.024  0.00  0.00    +0.000 A 
ATOM      3  C   UNL     1       1.242   8.755  20.101  0.00  0.00    +0.000 A 
ATOM      4  C   UNL     1       1.259   9.643  19.023  0.00  0.00    +0.000 A 
ATOM      5  C   UNL     1       1.921   9.290  17.842  0.00  0.00    +0.000 A 
ATOM      6  C   UNL     1       2.638   8.095  17.772  0.00  0.00    +0.000 A 
ENDROOT
BRANCH   1   7
ATOM      7  C   UNL     1       3.371   5.918  18.811  0.00  0.00    +0.000 C 
ATOM      8  O   UNL     1       4.182   5.655  19.698  0.00  0.00    +0.000 OA
BRANCH   7   9
ATOM      9  C   UNL     1       3.060   4.971  17.669  0.00  0.00    +0.000 C 
BRANCH   9  10
ATOM     10  C   UNL     1       1.631   4.439  17.799  0.00  0.00    +0.000 C 
BRANCH  10  11
ATOM     11  N   UNL     1       1.525   2.983  18.032  0.00  0.00    +0.000 NA
BRANCH  11  13
ATOM     12  C   UNL     1       3.473   1.450  18.546  0.00  0.00    +0.000 C 
ATOM     13  C   UNL     1       2.758   2.336  17.534  0.00  0.00    +0.000 C 
ENDBRANCH  11  13
BRANCH  11  14
ATOM     14  C   UNL     1       1.181   2.614  19.413  0.00  0.00    +0.000 C 
ATOM     15  C   UNL     1       0.938   3.766  20.383  0.00  0.00    +0.000 C 
ENDBRANCH  11  14
ENDBRANCH  10  11
ENDBRANCH   9  10
ENDBRANCH   7   9
ENDBRANCH   1   7
BRANCH   4  16
ATOM     16  O   UNL     1       0.551  10.809  19.187  0.00  0.00    +0.000 OA
BRANCH  16  17
ATOM     17  C   UNL     1      -0.760  10.876  18.766  0.00  0.00    +0.000 A 
ATOM     18  C   UNL     1      -1.116   9.977  17.754  0.00  0.00    +0.000 A 
ATOM     19  C   UNL     1      -2.420   9.967  17.257  0.00  0.00    +0.000 A 
ATOM     20  C   UNL     1      -3.358  10.855  17.773  0.00  0.00    +0.000 A 
ATOM     21  F   UNL     1      -4.602  10.863  17.279  0.00  0.00    +0.000 F 
ATOM     22  C   UNL     1      -3.025  11.729  18.800  0.00  0.00    +0.000 A 
ATOM     23  C   UNL     1      -1.728  11.721  19.317  0.00  0.00    +0.000 A 
ENDBRANCH  16  17
ENDBRANCH   4  16
TORSDOF 8
ENDMDL
MODEL 8
REMARK VINA RESULT:      -7.2      3.482      7.440
REMARK  Name = 
REMARK  10 active torsions:
REMARK  status: ('A' for Active; 'I' for Inactive)
REMARK    1  A    between atoms: C_1  and  C_2
REMARK    2  A    between atoms: C_2  and  N_3
REMARK    3  A    between atoms: N_3  and  C_4
REMARK    4  A    between atoms: N_3  and  C_6
REMARK    5  A    between atoms: C_4  and  C_5
REMARK    6  A    between atoms: C_6  and  C_7
REMARK    7  A    between atoms: C_7  and  C_8
REMARK    8  A    between atoms: C_8  and  C_10
REMARK    9  A    between atoms: C_13  and  O_14
REMARK   10  A    between atoms: O_14  and  C_15
REMARK                            x       y       z     vdW  Elec       q    Type
REMARK                         _______ _______ _______ _____ _____    ______ ____
ROOT
ATOM      1  C   UNL     1       4.030   6.216  18.475  0.00  0.00    +0.000 A 
ATOM      2  C   UNL     1       4.020   6.786  17.195  0.00  0.00    +0.000 A 
ATOM      3  C   UNL     1       5.098   6.588  16.332  0.00  0.00    +0.000 A 
ATOM      4  C   UNL     1       6.196   5.830  16.745  0.00  0.00    +0.000 A 
ATOM      5  C   UNL     1       6.184   5.216  18.001  0.00  0.00    +0.000 A 
ATOM      6  C   UNL     1       5.119   5.434  18.877  0.00  0.00    +0.000 A 
ENDROOT
BRANCH   1   7
ATOM      7  C   UNL     1       2.862   6.444  19.369  0.00  0.00    +0.000 C 
ATOM      8  O   UNL     1       2.258   7.513  19.298  0.00  0.00    +0.000 OA
BRANCH   7   9
ATOM      9  C   UNL     1       2.463   5.331  20.318  0.00  0.00    +0.000 C 
BRANCH   9  10
ATOM     10  C   UNL     1       1.638   4.276  19.576  0.00  0.00    +0.000 C 
BRANCH  10  11
ATOM     11  N   UNL     1       2.206   2.911  19.599  0.00  0.00    +0.000 NA
BRANCH  11  13
ATOM     12  C   UNL     1       2.241   3.461  17.128  0.00  0.00    +0.000 C 
ATOM     13  C   UNL     1       2.798   2.626  18.275  0.00  0.00    +0.000 C 
ENDBRANCH  11  13
BRANCH  11  14
ATOM     14  C   UNL     1       3.118   2.653  20.723  0.00  0.00    +0.000 C 
ATOM     15  C   UNL     1       4.522   2.178  20.362  0.00  0.00    +0.000 C 
ENDBRANCH  11  14
ENDBRANCH  10  11
ENDBRANCH   9  10
ENDBRANCH   7   9
ENDBRANCH   1   7
BRANCH   4  16
ATOM     16  O   UNL     1       7.214   5.690  15.832  0.00  0.00    +0.000 OA
BRANCH  16  17
ATOM     17  C   UNL     1       6.986   5.008  14.656  0.00  0.00    +0.000 A 
ATOM     18  C   UNL     1       5.904   4.120  14.673  0.00  0.00    +0.000 A 
ATOM     19  C   UNL     1       5.592   3.379  13.532  0.00  0.00    +0.000 A 
ATOM     20  C   UNL     1       6.364   3.529  12.385  0.00  0.00    +0.000 A 
ATOM     21  F   UNL     1       6.080   2.800  11.298  0.00  0.00    +0.000 F 
ATOM     22  C   UNL     1       7.420   4.430  12.346  0.00  0.00    +0.000 A 
ATOM     23  C   UNL     1       7.715   5.192  13.478  0.00  0.00    +0.000 A 
ENDBRANCH  16  17
ENDBRANCH   4  16
TORSDOF 8
ENDMDL
MODEL 9
REMARK VINA RESULT:      -7.1      0.455      1.447
REMARK  Name = 
REMARK  10 active torsions:
REMARK  status: ('A' for Active; 'I' for Inactive)
REMARK    1  A    between atoms: C_1  and  C_2
REMARK    2  A    between atoms: C_2  and  N_3
REMARK    3  A    between atoms: N_3  and  C_4
REMARK    4  A    between atoms: N_3  and  C_6
REMARK    5  A    between atoms: C_4  and  C_5
REMARK    6  A    between atoms: C_6  and  C_7
REMARK    7  A    between atoms: C_7  and  C_8
REMARK    8  A    between atoms: C_8  and  C_10
REMARK    9  A    between atoms: C_13  and  O_14
REMARK   10  A    between atoms: O_14  and  C_15
REMARK                            x       y       z     vdW  Elec       q    Type
REMARK                         _______ _______ _______ _____ _____    ______ ____
ROOT
ATOM      1  C   UNL     1       5.611   5.026  15.607  0.00  0.00    +0.000 A 
ATOM      2  C   UNL     1       5.344   6.336  16.026  0.00  0.00    +0.000 A 
ATOM      3  C   UNL     1       4.341   6.580  16.965  0.00  0.00    +0.000 A 
ATOM      4  C   UNL     1       3.592   5.521  17.481  0.00  0.00    +0.000 A 
ATOM      5  C   UNL     1       3.892   4.208  17.105  0.00  0.00    +0.000 A 
ATOM      6  C   UNL     1       4.877   3.963  16.147  0.00  0.00    +0.000 A 
ENDROOT
BRANCH   1   7
ATOM      7  C   UNL     1       6.690   4.800  14.607  0.00  0.00    +0.000 C 
ATOM      8  O   UNL     1       7.606   5.616  14.525  0.00  0.00    +0.000 OA
BRANCH   7   9
ATOM      9  C   UNL     1       6.613   3.555  13.745  0.00  0.00    +0.000 C 
BRANCH   9  10
ATOM     10  C   UNL     1       5.805   3.840  12.477  0.00  0.00    +0.000 C 
BRANCH  10  11
ATOM     11  N   UNL     1       5.089   2.673  11.917  0.00  0.00    +0.000 NA
BRANCH  11  13
ATOM     12  C   UNL     1       3.707   3.778  10.107  0.00  0.00    +0.000 C 
ATOM     13  C   UNL     1       3.748   3.112  11.477  0.00  0.00    +0.000 C 
ENDBRANCH  11  13
BRANCH  11  14
ATOM     14  C   UNL     1       5.839   1.939  10.887  0.00  0.00    +0.000 C 
ATOM     15  C   UNL     1       6.159   0.480  11.191  0.00  0.00    +0.000 C 
ENDBRANCH  11  14
ENDBRANCH  10  11
ENDBRANCH   9  10
ENDBRANCH   7   9
ENDBRANCH   1   7
BRANCH   4  16
ATOM     16  O   UNL     1       2.623   5.854  18.398  0.00  0.00    +0.000 OA
BRANCH  16  17
ATOM     17  C   UNL     1       2.169   4.903  19.286  0.00  0.00    +0.000 A 
ATOM     18  C   UNL     1       2.704   4.978  20.577  0.00  0.00    +0.000 A 
ATOM     19  C   UNL     1       2.310   4.059  21.551  0.00  0.00    +0.000 A 
ATOM     20  C   UNL     1       1.388   3.069  21.226  0.00  0.00    +0.000 A 
ATOM     21  F   UNL     1       1.029   2.171  22.153  0.00  0.00    +0.000 F 
ATOM     22  C   UNL     1       0.826   3.004  19.957  0.00  0.00    +0.000 A 
ATOM     23  C   UNL     1       1.198   3.941  18.992  0.00  0.00    +0.000 A 
ENDBRANCH  16  17
ENDBRANCH   4  16
TORSDOF 8
ENDMDL
