MODEL 1
REMARK VINA RESULT:      -7.5      0.000      0.000
REMARK  Name = 
REMARK  14 active torsions:
REMARK  status: ('A' for Active; 'I' for Inactive)
REMARK    1  A    between atoms: C_2  and  C_3
REMARK    2  A    between atoms: C_3  and  N_4
REMARK    3  A    between atoms: N_4  and  C_5
REMARK    4  A    between atoms: C_5  and  S_6
REMARK    5  A    between atoms: S_6  and  C_7
REMARK    6  A    between atoms: C_7  and  C_8
REMARK    7  A    between atoms: C_9  and  C_10
REMARK    8  A    between atoms: C_9  and  C_12
REMARK    9  A    between atoms: N_14  and  C_15
REMARK   10  A    between atoms: C_18  and  S_19
REMARK   11  A    between atoms: S_19  and  N_22
REMARK   12  A    between atoms: N_22  and  C_23
REMARK   13  A    between atoms: C_26  and  C_27
REMARK   14  A    between atoms: C_28  and  C_29
REMARK                            x       y       z     vdW  Elec       q    Type
REMARK                         _______ _______ _______ _____ _____    ______ ____
ROOT
ATOM      1  C   UNL     1       2.045   7.591  19.139  0.00  0.00    +0.000 A 
ATOM      2  C   UNL     1       2.210   6.802  20.288  0.00  0.00    +0.000 A 
ATOM      3  C   UNL     1       2.612   5.470  20.211  0.00  0.00    +0.000 A 
ATOM      4  C   UNL     1       2.829   4.889  18.968  0.00  0.00    +0.000 A 
ATOM      5  C   UNL     1       2.679   5.648  17.804  0.00  0.00    +0.000 A 
ATOM      6  C   UNL     1       2.273   6.993  17.892  0.00  0.00    +0.000 A 
ENDROOT
BRANCH   1   9
ATOM      7  C   UNL     1       0.679   9.453  20.042  0.00  0.00    +0.000 C 
ATOM      8  O   UNL     1       0.124   8.748  20.883  0.00  0.00    +0.000 OA
ATOM      9  N   UNL     1       1.652   8.970  19.188  0.00  0.00    +0.000 N 
ATOM     10  H   UNL     1       2.199   9.614  18.637  0.00  0.00    +0.000 HD
BRANCH   7  12
ATOM     11  C   UNL     1      -0.774  11.324  19.268  0.00  0.00    +0.000 C 
ATOM     12  C   UNL     1       0.323  10.905  19.992  0.00  0.00    +0.000 C 
BRANCH  11  13
ATOM     13  N   UNL     1      -1.736  10.473  18.681  0.00  0.00    +0.000 N 
ATOM     14  H   UNL     1      -1.758   9.599  19.210  0.00  0.00    +0.000 HD
BRANCH  13  15
ATOM     15  C   UNL     1      -1.619  10.087  17.263  0.00  0.00    +0.000 C 
BRANCH  15  17
ATOM     16  C   UNL     1      -2.987  10.574  15.185  0.00  0.00    +0.000 C 
ATOM     17  C   UNL     1      -2.804  10.632  16.517  0.00  0.00    +0.000 C 
ENDBRANCH  15  17
ENDBRANCH  13  15
ENDBRANCH  11  13
BRANCH  12  18
ATOM     18  C   UNL     1       1.197  11.954  20.657  0.00  0.00    +0.000 C 
ATOM     19  N   UNL     1       1.922  12.826  21.210  0.00  0.00    +0.000 NA
ENDBRANCH  12  18
BRANCH  11  20
ATOM     20  S   UNL     1      -1.030  13.097  19.164  0.00  0.00    +0.000 S 
BRANCH  20  21
ATOM     21  C   UNL     1      -2.046  13.506  20.604  0.00  0.00    +0.000 C 
ATOM     22  C   UNL     1      -3.455  12.969  20.389  0.00  0.00    +0.000 C 
ENDBRANCH  20  21
ENDBRANCH  11  20
ENDBRANCH   7  12
ENDBRANCH   1   9
BRANCH   4  23
ATOM     23  S   UNL     1       3.399   3.213  18.917  0.00  0.00    +0.000 S 
ATOM     24  O   UNL     1       3.803   2.842  20.258  0.00  0.00    +0.000 OA
ATOM     25  O   UNL     1       2.432   2.408  18.201  0.00  0.00    +0.000 OA
BRANCH  23  26
ATOM     26  N   UNL     1       4.837   3.307  18.029  0.00  0.00    +0.000 N 
ATOM     27  H   UNL     1       4.569   3.337  17.047  0.00  0.00    +0.000 HD
BRANCH  26  28
ATOM     28  C   UNL     1       5.710   4.340  18.459  0.00  0.00    +0.000 A 
ATOM     29  O   UNL     1       6.174   4.463  19.731  0.00  0.00    +0.000 OA
ATOM     30  N   UNL     1       7.088   5.499  19.795  0.00  0.00    +0.000 NA
ATOM     31  C   UNL     1       7.141   6.011  18.560  0.00  0.00    +0.000 A 
ATOM     32  C   UNL     1       8.024   7.169  18.270  0.00  0.00    +0.000 C 
ATOM     33  C   UNL     1       6.271   5.321  17.670  0.00  0.00    +0.000 A 
ATOM     34  C   UNL     1       5.987   5.627  16.251  0.00  0.00    +0.000 C 
ENDBRANCH  26  28
ENDBRANCH  23  26
ENDBRANCH   4  23
TORSDOF 11
ENDMDL
MODEL 2
REMARK VINA RESULT:      -7.5      2.010      2.546
REMARK  Name = 
REMARK  14 active torsions:
REMARK  status: ('A' for Active; 'I' for Inactive)
REMARK    1  A    between atoms: C_2  and  C_3
REMARK    2  A    between atoms: C_3  and  N_4
REMARK    3  A    between atoms: N_4  and  C_5
REMARK    4  A    between atoms: C_5  and  S_6
REMARK    5  A    between atoms: S_6  and  C_7
REMARK    6  A    between atoms: C_7  and  C_8
REMARK    7  A    between atoms: C_9  and  C_10
REMARK    8  A    between atoms: C_9  and  C_12
REMARK    9  A    between atoms: N_14  and  C_15
REMARK   10  A    between atoms: C_18  and  S_19
REMARK   11  A    between atoms: S_19  and  N_22
REMARK   12  A    between atoms: N_22  and  C_23
REMARK   13  A    between atoms: C_26  and  C_27
REMARK   14  A    between atoms: C_28  and  C_29
REMARK                            x       y       z     vdW  Elec       q    Type
REMARK                         _______ _______ _______ _____ _____    ______ ____
ROOT
ATOM      1  C   UNL     1       2.518   7.095  19.234  0.00  0.00    +0.000 A 
ATOM      2  C   UNL     1       3.100   7.417  17.998  0.00  0.00    +0.000 A 
ATOM      3  C   UNL     1       3.839   6.485  17.271  0.00  0.00    +0.000 A 
ATOM      4  C   UNL     1       4.036   5.212  17.787  0.00  0.00    +0.000 A 
ATOM      5  C   UNL     1       3.466   4.857  19.013  0.00  0.00    +0.000 A 
ATOM      6  C   UNL     1       2.720   5.804  19.740  0.00  0.00    +0.000 A 
ENDROOT
BRANCH   1   9
ATOM      7  C   UNL     1       1.268   9.222  19.484  0.00  0.00    +0.000 C 
ATOM      8  O   UNL     1       1.426   9.549  18.308  0.00  0.00    +0.000 OA
ATOM      9  N   UNL     1       1.735   8.026  19.995  0.00  0.00    +0.000 N 
ATOM     10  H   UNL     1       1.438   7.722  20.910  0.00  0.00    +0.000 HD
BRANCH   7  12
ATOM     11  C   UNL     1      -0.211  11.197  19.832  0.00  0.00    +0.000 C 
ATOM     12  C   UNL     1       0.485  10.136  20.372  0.00  0.00    +0.000 C 
BRANCH  11  13
ATOM     13  N   UNL     1      -0.407  11.424  18.452  0.00  0.00    +0.000 N 
ATOM     14  H   UNL     1       0.209  12.186  18.160  0.00  0.00    +0.000 HD
BRANCH  13  15
ATOM     15  C   UNL     1      -1.746  11.766  17.939  0.00  0.00    +0.000 C 
BRANCH  15  17
ATOM     16  C   UNL     1      -2.623   9.964  16.386  0.00  0.00    +0.000 C 
ATOM     17  C   UNL     1      -2.476  10.492  17.614  0.00  0.00    +0.000 C 
ENDBRANCH  15  17
ENDBRANCH  13  15
ENDBRANCH  11  13
BRANCH  12  18
ATOM     18  C   UNL     1       0.503   9.974  21.883  0.00  0.00    +0.000 C 
ATOM     19  N   UNL     1       0.518   9.839  23.136  0.00  0.00    +0.000 NA
ENDBRANCH  12  18
BRANCH  11  20
ATOM     20  S   UNL     1      -1.001  12.308  20.999  0.00  0.00    +0.000 S 
BRANCH  20  21
ATOM     21  C   UNL     1      -0.123  13.879  20.814  0.00  0.00    +0.000 C 
ATOM     22  C   UNL     1       1.373  13.635  20.964  0.00  0.00    +0.000 C 
ENDBRANCH  20  21
ENDBRANCH  11  20
ENDBRANCH   7  12
ENDBRANCH   1   9
BRANCH   4  23
ATOM     23  S   UNL     1       4.928   4.040  16.804  0.00  0.00    +0.000 S 
ATOM     24  O   UNL     1       4.417   2.721  17.115  0.00  0.00    +0.000 OA
ATOM     25  O   UNL     1       4.959   4.503  15.432  0.00  0.00    +0.000 OA
BRANCH  23  26
ATOM     26  N   UNL     1       6.490   4.077  17.456  0.00  0.00    +0.000 N 
ATOM     27  H   UNL     1       7.009   3.324  17.006  0.00  0.00    +0.000 HD
BRANCH  26  28
ATOM     28  C   UNL     1       7.100   5.357  17.408  0.00  0.00    +0.000 A 
ATOM     29  O   UNL     1       7.307   6.058  16.262  0.00  0.00    +0.000 OA
ATOM     30  N   UNL     1       7.813   7.309  16.566  0.00  0.00    +0.000 NA
ATOM     31  C   UNL     1       7.936   7.336  17.898  0.00  0.00    +0.000 A 
ATOM     32  C   UNL     1       8.476   8.542  18.574  0.00  0.00    +0.000 C 
ATOM     33  C   UNL     1       7.510   6.111  18.487  0.00  0.00    +0.000 A 
ATOM     34  C   UNL     1       7.559   5.718  19.912  0.00  0.00    +0.000 C 
ENDBRANCH  26  28
ENDBRANCH  23  26
ENDBRANCH   4  23
TORSDOF 11
ENDMDL
MODEL 3
REMARK VINA RESULT:      -7.4      2.030      2.360
REMARK  Name = 
REMARK  14 active torsions:
REMARK  status: ('A' for Active; 'I' for Inactive)
REMARK    1  A    between atoms: C_2  and  C_3
REMARK    2  A    between atoms: C_3  and  N_4
REMARK    3  A    between atoms: N_4  and  C_5
REMARK    4  A    between atoms: C_5  and  S_6
REMARK    5  A    between atoms: S_6  and  C_7
REMARK    6  A    between atoms: C_7  and  C_8
REMARK    7  A    between atoms: C_9  and  C_10
REMARK    8  A    between atoms: C_9  and  C_12
REMARK    9  A    between atoms: N_14  and  C_15
REMARK   10  A    between atoms: C_18  and  S_19
REMARK   11  A    between atoms: S_19  and  N_22
REMARK   12  A    between atoms: N_22  and  C_23
REMARK   13  A    between atoms: C_26  and  C_27
REMARK   14  A    between atoms: C_28  and  C_29
REMARK                            x       y       z     vdW  Elec       q    Type
REMARK                         _______ _______ _______ _____ _____    ______ ____
ROOT
ATOM      1  C   UNL     1       2.521   7.235  18.763  0.00  0.00    +0.000 A 
ATOM      2  C   UNL     1       2.404   5.863  19.038  0.00  0.00    +0.000 A 
ATOM      3  C   UNL     1       3.158   4.912  18.353  0.00  0.00    +0.000 A 
ATOM      4  C   UNL     1       4.028   5.317  17.350  0.00  0.00    +0.000 A 
ATOM      5  C   UNL     1       4.173   6.676  17.055  0.00  0.00    +0.000 A 
ATOM      6  C   UNL     1       3.408   7.630  17.752  0.00  0.00    +0.000 A 
ENDROOT
BRANCH   1   9
ATOM      7  C   UNL     1       1.005   9.195  18.831  0.00  0.00    +0.000 C 
ATOM      8  O   UNL     1       0.840   9.215  17.611  0.00  0.00    +0.000 OA
ATOM      9  N   UNL     1       1.774   8.239  19.464  0.00  0.00    +0.000 N 
ATOM     10  H   UNL     1       1.743   8.156  20.469  0.00  0.00    +0.000 HD
BRANCH   7  12
ATOM     11  C   UNL     1      -0.567  11.117  19.054  0.00  0.00    +0.000 C 
ATOM     12  C   UNL     1       0.289  10.217  19.655  0.00  0.00    +0.000 C 
BRANCH  11  13
ATOM     13  N   UNL     1      -0.984  11.067  17.706  0.00  0.00    +0.000 N 
ATOM     14  H   UNL     1      -0.894  12.003  17.306  0.00  0.00    +0.000 HD
BRANCH  13  15
ATOM     15  C   UNL     1      -2.344  10.609  17.366  0.00  0.00    +0.000 C 
BRANCH  15  17
ATOM     16  C   UNL     1      -2.952  10.169  14.945  0.00  0.00    +0.000 C 
ATOM     17  C   UNL     1      -2.646  11.010  15.949  0.00  0.00    +0.000 C 
ENDBRANCH  15  17
ENDBRANCH  13  15
ENDBRANCH  11  13
BRANCH  12  18
ATOM     18  C   UNL     1       0.544  10.345  21.148  0.00  0.00    +0.000 C 
ATOM     19  N   UNL     1       0.757  10.451  22.386  0.00  0.00    +0.000 NA
ENDBRANCH  12  18
BRANCH  11  20
ATOM     20  S   UNL     1      -1.266  12.383  20.116  0.00  0.00    +0.000 S 
BRANCH  20  21
ATOM     21  C   UNL     1      -0.075  13.744  20.062  0.00  0.00    +0.000 C 
ATOM     22  C   UNL     1      -0.169  14.436  18.708  0.00  0.00    +0.000 C 
ENDBRANCH  20  21
ENDBRANCH  11  20
ENDBRANCH   7  12
ENDBRANCH   1   9
BRANCH   4  23
ATOM     23  S   UNL     1       5.012   4.082  16.548  0.00  0.00    +0.000 S 
ATOM     24  O   UNL     1       4.444   2.788  16.866  0.00  0.00    +0.000 OA
ATOM     25  O   UNL     1       5.217   4.467  15.167  0.00  0.00    +0.000 OA
BRANCH  23  26
ATOM     26  N   UNL     1       6.484   4.139  17.383  0.00  0.00    +0.000 N 
ATOM     27  H   UNL     1       7.049   3.369  17.027  0.00  0.00    +0.000 HD
BRANCH  26  28
ATOM     28  C   UNL     1       7.105   5.415  17.362  0.00  0.00    +0.000 A 
ATOM     29  O   UNL     1       7.335   6.130  16.229  0.00  0.00    +0.000 OA
ATOM     30  N   UNL     1       7.846   7.373  16.558  0.00  0.00    +0.000 NA
ATOM     31  C   UNL     1       7.949   7.380  17.893  0.00  0.00    +0.000 A 
ATOM     32  C   UNL     1       8.487   8.572  18.593  0.00  0.00    +0.000 C 
ATOM     33  C   UNL     1       7.504   6.151  18.458  0.00  0.00    +0.000 A 
ATOM     34  C   UNL     1       7.529   5.738  19.878  0.00  0.00    +0.000 C 
ENDBRANCH  26  28
ENDBRANCH  23  26
ENDBRANCH   4  23
TORSDOF 11
ENDMDL
MODEL 4
REMARK VINA RESULT:      -7.4      1.637      2.076
REMARK  Name = 
REMARK  14 active torsions:
REMARK  status: ('A' for Active; 'I' for Inactive)
REMARK    1  A    between atoms: C_2  and  C_3
REMARK    2  A    between atoms: C_3  and  N_4
REMARK    3  A    between atoms: N_4  and  C_5
REMARK    4  A    between atoms: C_5  and  S_6
REMARK    5  A    between atoms: S_6  and  C_7
REMARK    6  A    between atoms: C_7  and  C_8
REMARK    7  A    between atoms: C_9  and  C_10
REMARK    8  A    between atoms: C_9  and  C_12
REMARK    9  A    between atoms: N_14  and  C_15
REMARK   10  A    between atoms: C_18  and  S_19
REMARK   11  A    between atoms: S_19  and  N_22
REMARK   12  A    between atoms: N_22  and  C_23
REMARK   13  A    between atoms: C_26  and  C_27
REMARK   14  A    between atoms: C_28  and  C_29
REMARK                            x       y       z     vdW  Elec       q    Type
REMARK                         _______ _______ _______ _____ _____    ______ ____
ROOT
ATOM      1  C   UNL     1       2.210   7.293  19.161  0.00  0.00    +0.000 A 
ATOM      2  C   UNL     1       2.450   6.907  17.832  0.00  0.00    +0.000 A 
ATOM      3  C   UNL     1       3.148   5.741  17.523  0.00  0.00    +0.000 A 
ATOM      4  C   UNL     1       3.648   4.948  18.547  0.00  0.00    +0.000 A 
ATOM      5  C   UNL     1       3.423   5.300  19.880  0.00  0.00    +0.000 A 
ATOM      6  C   UNL     1       2.716   6.480  20.183  0.00  0.00    +0.000 A 
ENDROOT
BRANCH   1   9
ATOM      7  C   UNL     1       1.390   9.585  18.690  0.00  0.00    +0.000 C 
ATOM      8  O   UNL     1       1.874   9.615  17.559  0.00  0.00    +0.000 OA
ATOM      9  N   UNL     1       1.478   8.477  19.510  0.00  0.00    +0.000 N 
ATOM     10  H   UNL     1       0.926   8.431  20.352  0.00  0.00    +0.000 HD
BRANCH   7  12
ATOM     11  C   UNL     1      -0.491  11.206  18.473  0.00  0.00    +0.000 C 
ATOM     12  C   UNL     1       0.626  10.781  19.163  0.00  0.00    +0.000 C 
BRANCH  11  13
ATOM     13  N   UNL     1      -1.113  10.502  17.419  0.00  0.00    +0.000 N 
ATOM     14  H   UNL     1      -1.201  11.132  16.619  0.00  0.00    +0.000 HD
BRANCH  13  15
ATOM     15  C   UNL     1      -2.445   9.900  17.611  0.00  0.00    +0.000 C 
BRANCH  15  17
ATOM     16  C   UNL     1      -2.900  10.364  15.161  0.00  0.00    +0.000 C 
ATOM     17  C   UNL     1      -3.311  10.264  16.437  0.00  0.00    +0.000 C 
ENDBRANCH  15  17
ENDBRANCH  13  15
ENDBRANCH  11  13
BRANCH  12  18
ATOM     18  C   UNL     1       1.101  11.600  20.351  0.00  0.00    +0.000 C 
ATOM     19  N   UNL     1       1.494  12.281  21.337  0.00  0.00    +0.000 NA
ENDBRANCH  12  18
BRANCH  11  20
ATOM     20  S   UNL     1      -1.250  12.727  19.046  0.00  0.00    +0.000 S 
BRANCH  20  21
ATOM     21  C   UNL     1      -0.234  14.048  18.342  0.00  0.00    +0.000 C 
ATOM     22  C   UNL     1      -0.324  15.278  19.237  0.00  0.00    +0.000 C 
ENDBRANCH  20  21
ENDBRANCH  11  20
ENDBRANCH   7  12
ENDBRANCH   1   9
BRANCH   4  23
ATOM     23  S   UNL     1       4.474   3.443  18.111  0.00  0.00    +0.000 S 
ATOM     24  O   UNL     1       4.098   2.435  19.081  0.00  0.00    +0.000 OA
ATOM     25  O   UNL     1       4.287   3.196  16.696  0.00  0.00    +0.000 OA
BRANCH  23  26
ATOM     26  N   UNL     1       6.104   3.776  18.424  0.00  0.00    +0.000 N 
ATOM     27  H   UNL     1       6.627   2.945  18.152  0.00  0.00    +0.000 HD
BRANCH  26  28
ATOM     28  C   UNL     1       6.558   4.998  17.861  0.00  0.00    +0.000 A 
ATOM     29  O   UNL     1       6.254   5.414  16.603  0.00  0.00    +0.000 OA
ATOM     30  N   UNL     1       6.749   6.689  16.402  0.00  0.00    +0.000 NA
ATOM     31  C   UNL     1       7.378   7.017  17.538  0.00  0.00    +0.000 A 
ATOM     32  C   UNL     1       8.052   8.332  17.665  0.00  0.00    +0.000 C 
ATOM     33  C   UNL     1       7.300   5.969  18.499  0.00  0.00    +0.000 A 
ATOM     34  C   UNL     1       7.926   5.910  19.838  0.00  0.00    +0.000 C 
ENDBRANCH  26  28
ENDBRANCH  23  26
ENDBRANCH   4  23
TORSDOF 11
ENDMDL
MODEL 5
REMARK VINA RESULT:      -7.4      1.079      1.241
REMARK  Name = 
REMARK  14 active torsions:
REMARK  status: ('A' for Active; 'I' for Inactive)
REMARK    1  A    between atoms: C_2  and  C_3
REMARK    2  A    between atoms: C_3  and  N_4
REMARK    3  A    between atoms: N_4  and  C_5
REMARK    4  A    between atoms: C_5  and  S_6
REMARK    5  A    between atoms: S_6  and  C_7
REMARK    6  A    between atoms: C_7  and  C_8
REMARK    7  A    between atoms: C_9  and  C_10
REMARK    8  A    between atoms: C_9  and  C_12
REMARK    9  A    between atoms: N_14  and  C_15
REMARK   10  A    between atoms: C_18  and  S_19
REMARK   11  A    between atoms: S_19  and  N_22
REMARK   12  A    between atoms: N_22  and  C_23
REMARK   13  A    between atoms: C_26  and  C_27
REMARK   14  A    between atoms: C_28  and  C_29
REMARK                            x       y       z     vdW  Elec       q    Type
REMARK                         _______ _______ _______ _____ _____    ______ ____
ROOT
ATOM      1  C   UNL     1       1.871   7.470  19.733  0.00  0.00    +0.000 A 
ATOM      2  C   UNL     1       1.855   6.398  20.639  0.00  0.00    +0.000 A 
ATOM      3  C   UNL     1       2.334   5.136  20.289  0.00  0.00    +0.000 A 
ATOM      4  C   UNL     1       2.813   4.915  19.005  0.00  0.00    +0.000 A 
ATOM      5  C   UNL     1       2.848   5.962  18.080  0.00  0.00    +0.000 A 
ATOM      6  C   UNL     1       2.364   7.234  18.442  0.00  0.00    +0.000 A 
ENDROOT
BRANCH   1   9
ATOM      7  C   UNL     1       0.845   9.651  19.151  0.00  0.00    +0.000 C 
ATOM      8  O   UNL     1       0.634   9.333  17.981  0.00  0.00    +0.000 OA
ATOM      9  N   UNL     1       1.405   8.784  20.070  0.00  0.00    +0.000 N 
ATOM     10  H   UNL     1       1.402   9.023  21.050  0.00  0.00    +0.000 HD
BRANCH   7  12
ATOM     11  C   UNL     1      -0.805  11.517  19.212  0.00  0.00    +0.000 C 
ATOM     12  C   UNL     1       0.419  11.012  19.600  0.00  0.00    +0.000 C 
BRANCH  11  13
ATOM     13  N   UNL     1      -1.812  10.788  18.544  0.00  0.00    +0.000 N 
ATOM     14  H   UNL     1      -1.422   9.888  18.258  0.00  0.00    +0.000 HD
BRANCH  13  15
ATOM     15  C   UNL     1      -2.465  11.348  17.347  0.00  0.00    +0.000 C 
BRANCH  15  17
ATOM     16  C   UNL     1      -3.092  10.367  15.095  0.00  0.00    +0.000 C 
ATOM     17  C   UNL     1      -2.384  10.336  16.237  0.00  0.00    +0.000 C 
ENDBRANCH  15  17
ENDBRANCH  13  15
ENDBRANCH  11  13
BRANCH  12  18
ATOM     18  C   UNL     1       1.344  11.899  20.416  0.00  0.00    +0.000 C 
ATOM     19  N   UNL     1       2.113  12.635  21.092  0.00  0.00    +0.000 NA
ENDBRANCH  12  18
BRANCH  11  20
ATOM     20  S   UNL     1      -1.157  13.210  19.694  0.00  0.00    +0.000 S 
BRANCH  20  21
ATOM     21  C   UNL     1      -0.292  14.230  18.475  0.00  0.00    +0.000 C 
ATOM     22  C   UNL     1       0.436  15.358  19.195  0.00  0.00    +0.000 C 
ENDBRANCH  20  21
ENDBRANCH  11  20
ENDBRANCH   7  12
ENDBRANCH   1   9
BRANCH   4  23
ATOM     23  S   UNL     1       3.468   3.315  18.621  0.00  0.00    +0.000 S 
ATOM     24  O   UNL     1       4.020   2.759  19.840  0.00  0.00    +0.000 OA
ATOM     25  O   UNL     1       2.483   2.571  17.864  0.00  0.00    +0.000 OA
BRANCH  23  26
ATOM     26  N   UNL     1       4.807   3.655  17.642  0.00  0.00    +0.000 N 
ATOM     27  H   UNL     1       4.438   3.934  16.734  0.00  0.00    +0.000 HD
BRANCH  26  28
ATOM     28  C   UNL     1       5.733   4.555  18.230  0.00  0.00    +0.000 A 
ATOM     29  O   UNL     1       6.219   4.427  19.494  0.00  0.00    +0.000 OA
ATOM     30  N   UNL     1       7.183   5.393  19.721  0.00  0.00    +0.000 NA
ATOM     31  C   UNL     1       7.244   6.116  18.596  0.00  0.00    +0.000 A 
ATOM     32  C   UNL     1       8.178   7.265  18.499  0.00  0.00    +0.000 C 
ATOM     33  C   UNL     1       6.331   5.635  17.616  0.00  0.00    +0.000 A 
ATOM     34  C   UNL     1       6.043   6.202  16.280  0.00  0.00    +0.000 C 
ENDBRANCH  26  28
ENDBRANCH  23  26
ENDBRANCH   4  23
TORSDOF 11
ENDMDL
MODEL 6
REMARK VINA RESULT:      -7.3      2.097      2.758
REMARK  Name = 
REMARK  14 active torsions:
REMARK  status: ('A' for Active; 'I' for Inactive)
REMARK    1  A    between atoms: C_2  and  C_3
REMARK    2  A    between atoms: C_3  and  N_4
REMARK    3  A    between atoms: N_4  and  C_5
REMARK    4  A    between atoms: C_5  and  S_6
REMARK    5  A    between atoms: S_6  and  C_7
REMARK    6  A    between atoms: C_7  and  C_8
REMARK    7  A    between atoms: C_9  and  C_10
REMARK    8  A    between atoms: C_9  and  C_12
REMARK    9  A    between atoms: N_14  and  C_15
REMARK   10  A    between atoms: C_18  and  S_19
REMARK   11  A    between atoms: S_19  and  N_22
REMARK   12  A    between atoms: N_22  and  C_23
REMARK   13  A    between atoms: C_26  and  C_27
REMARK   14  A    between atoms: C_28  and  C_29
REMARK                            x       y       z     vdW  Elec       q    Type
REMARK                         _______ _______ _______ _____ _____    ______ ____
ROOT
ATOM      1  C   UNL     1       1.999   7.113  19.891  0.00  0.00    +0.000 A 
ATOM      2  C   UNL     1       2.424   7.002  18.558  0.00  0.00    +0.000 A 
ATOM      3  C   UNL     1       2.804   5.778  18.009  0.00  0.00    +0.000 A 
ATOM      4  C   UNL     1       2.794   4.638  18.801  0.00  0.00    +0.000 A 
ATOM      5  C   UNL     1       2.371   4.712  20.131  0.00  0.00    +0.000 A 
ATOM      6  C   UNL     1       1.988   5.953  20.677  0.00  0.00    +0.000 A 
ENDROOT
BRANCH   1   9
ATOM      7  C   UNL     1       1.005   9.380  19.755  0.00  0.00    +0.000 C 
ATOM      8  O   UNL     1       0.735   9.280  18.558  0.00  0.00    +0.000 OA
ATOM      9  N   UNL     1       1.582   8.354  20.478  0.00  0.00    +0.000 N 
ATOM     10  H   UNL     1       1.628   8.414  21.484  0.00  0.00    +0.000 HD
BRANCH   7  12
ATOM     11  C   UNL     1       0.837  11.865  19.843  0.00  0.00    +0.000 C 
ATOM     12  C   UNL     1       0.635  10.647  20.458  0.00  0.00    +0.000 C 
BRANCH  11  13
ATOM     13  N   UNL     1       1.219  12.043  18.496  0.00  0.00    +0.000 N 
ATOM     14  H   UNL     1       1.052  11.168  17.995  0.00  0.00    +0.000 HD
BRANCH  13  15
ATOM     15  C   UNL     1       2.597  12.447  18.161  0.00  0.00    +0.000 C 
BRANCH  15  17
ATOM     16  C   UNL     1       3.775  14.686  18.000  0.00  0.00    +0.000 C 
ATOM     17  C   UNL     1       2.654  13.948  18.086  0.00  0.00    +0.000 C 
ENDBRANCH  15  17
ENDBRANCH  13  15
ENDBRANCH  11  13
BRANCH  12  18
ATOM     18  C   UNL     1       0.111  10.632  21.884  0.00  0.00    +0.000 C 
ATOM     19  N   UNL     1      -0.324  10.620  23.068  0.00  0.00    +0.000 NA
ENDBRANCH  12  18
BRANCH  11  20
ATOM     20  S   UNL     1       0.486  13.323  20.828  0.00  0.00    +0.000 S 
BRANCH  20  21
ATOM     21  C   UNL     1      -0.679  14.287  19.834  0.00  0.00    +0.000 C 
ATOM     22  C   UNL     1      -0.255  15.751  19.849  0.00  0.00    +0.000 C 
ENDBRANCH  20  21
ENDBRANCH  11  20
ENDBRANCH   7  12
ENDBRANCH   1   9
BRANCH   4  23
ATOM     23  S   UNL     1       3.224   3.094  18.049  0.00  0.00    +0.000 S 
ATOM     24  O   UNL     1       3.575   2.168  19.106  0.00  0.00    +0.000 OA
ATOM     25  O   UNL     1       2.205   2.741  17.082  0.00  0.00    +0.000 OA
BRANCH  23  26
ATOM     26  N   UNL     1       4.679   3.429  17.251  0.00  0.00    +0.000 N 
ATOM     27  H   UNL     1       4.429   3.748  16.315  0.00  0.00    +0.000 HD
BRANCH  26  28
ATOM     28  C   UNL     1       5.547   4.284  17.979  0.00  0.00    +0.000 A 
ATOM     29  O   UNL     1       5.870   4.103  19.287  0.00  0.00    +0.000 OA
ATOM     30  N   UNL     1       6.822   5.033  19.664  0.00  0.00    +0.000 NA
ATOM     31  C   UNL     1       7.040   5.788  18.581  0.00  0.00    +0.000 A 
ATOM     32  C   UNL     1       8.006   6.913  18.637  0.00  0.00    +0.000 C 
ATOM     33  C   UNL     1       6.243   5.364  17.479  0.00  0.00    +0.000 A 
ATOM     34  C   UNL     1       6.137   5.980  16.139  0.00  0.00    +0.000 C 
ENDBRANCH  26  28
ENDBRANCH  23  26
ENDBRANCH   4  23
TORSDOF 11
ENDMDL
MODEL 7
REMARK VINA RESULT:      -7.3      1.082      1.510
REMARK  Name = 
REMARK  14 active torsions:
REMARK  status: ('A' for Active; 'I' for Inactive)
REMARK    1  A    between atoms: C_2  and  C_3
REMARK    2  A    between atoms: C_3  and  N_4
REMARK    3  A    between atoms: N_4  and  C_5
REMARK    4  A    between atoms: C_5  and  S_6
REMARK    5  A    between atoms: S_6  and  C_7
REMARK    6  A    between atoms: C_7  and  C_8
REMARK    7  A    between atoms: C_9  and  C_10
REMARK    8  A    between atoms: C_9  and  C_12
REMARK    9  A    between atoms: N_14  and  C_15
REMARK   10  A    between atoms: C_18  and  S_19
REMARK   11  A    between atoms: S_19  and  N_22
REMARK   12  A    between atoms: N_22  and  C_23
REMARK   13  A    between atoms: C_26  and  C_27
REMARK   14  A    between atoms: C_28  and  C_29
REMARK                            x       y       z     vdW  Elec       q    Type
REMARK                         _______ _______ _______ _____ _____    ______ ____
ROOT
ATOM      1  C   UNL     1       1.899   8.344  19.213  0.00  0.00    +0.000 A 
ATOM      2  C   UNL     1       2.059   7.831  17.916  0.00  0.00    +0.000 A 
ATOM      3  C   UNL     1       2.284   6.475  17.687  0.00  0.00    +0.000 A 
ATOM      4  C   UNL     1       2.386   5.604  18.763  0.00  0.00    +0.000 A 
ATOM      5  C   UNL     1       2.227   6.081  20.068  0.00  0.00    +0.000 A 
ATOM      6  C   UNL     1       1.998   7.452  20.289  0.00  0.00    +0.000 A 
ENDROOT
BRANCH   1   9
ATOM      7  C   UNL     1       0.494  10.189  20.091  0.00  0.00    +0.000 C 
ATOM      8  O   UNL     1      -0.375   9.432  20.523  0.00  0.00    +0.000 OA
ATOM      9  N   UNL     1       1.645   9.731  19.479  0.00  0.00    +0.000 N 
ATOM     10  H   UNL     1       2.404  10.370  19.297  0.00  0.00    +0.000 HD
BRANCH   7  12
ATOM     11  C   UNL     1      -0.906  12.250  20.041  0.00  0.00    +0.000 C 
ATOM     12  C   UNL     1       0.315  11.659  20.295  0.00  0.00    +0.000 C 
BRANCH  11  13
ATOM     13  N   UNL     1      -2.102  11.556  19.756  0.00  0.00    +0.000 N 
ATOM     14  H   UNL     1      -1.919  10.553  19.831  0.00  0.00    +0.000 HD
BRANCH  13  15
ATOM     15  C   UNL     1      -2.784  11.749  18.463  0.00  0.00    +0.000 C 
BRANCH  15  17
ATOM     16  C   UNL     1      -1.697   9.855  17.175  0.00  0.00    +0.000 C 
ATOM     17  C   UNL     1      -2.778  10.444  17.717  0.00  0.00    +0.000 C 
ENDBRANCH  15  17
ENDBRANCH  13  15
ENDBRANCH  11  13
BRANCH  12  18
ATOM     18  C   UNL     1       1.479  12.547  20.700  0.00  0.00    +0.000 C 
ATOM     19  N   UNL     1       2.446  13.283  21.037  0.00  0.00    +0.000 NA
ENDBRANCH  12  18
BRANCH  11  20
ATOM     20  S   UNL     1      -0.972  14.037  20.186  0.00  0.00    +0.000 S 
BRANCH  20  21
ATOM     21  C   UNL     1      -2.002  14.347  21.642  0.00  0.00    +0.000 C 
ATOM     22  C   UNL     1      -1.377  13.660  22.850  0.00  0.00    +0.000 C 
ENDBRANCH  20  21
ENDBRANCH  11  20
ENDBRANCH   7  12
ENDBRANCH   1   9
BRANCH   4  23
ATOM     23  S   UNL     1       2.611   3.881  18.425  0.00  0.00    +0.000 S 
ATOM     24  O   UNL     1       2.911   3.220  19.679  0.00  0.00    +0.000 OA
ATOM     25  O   UNL     1       1.514   3.415  17.602  0.00  0.00    +0.000 OA
BRANCH  23  26
ATOM     26  N   UNL     1       4.053   3.832  17.540  0.00  0.00    +0.000 N 
ATOM     27  H   UNL     1       3.818   4.106  16.587  0.00  0.00    +0.000 HD
BRANCH  26  28
ATOM     28  C   UNL     1       5.118   4.553  18.140  0.00  0.00    +0.000 A 
ATOM     29  O   UNL     1       5.620   4.281  19.374  0.00  0.00    +0.000 OA
ATOM     30  N   UNL     1       6.720   5.083  19.617  0.00  0.00    +0.000 NA
ATOM     31  C   UNL     1       6.850   5.856  18.532  0.00  0.00    +0.000 A 
ATOM     32  C   UNL     1       7.937   6.865  18.461  0.00  0.00    +0.000 C 
ATOM     33  C   UNL     1       5.846   5.571  17.563  0.00  0.00    +0.000 A 
ATOM     34  C   UNL     1       5.603   6.254  16.274  0.00  0.00    +0.000 C 
ENDBRANCH  26  28
ENDBRANCH  23  26
ENDBRANCH   4  23
TORSDOF 11
ENDMDL
MODEL 8
REMARK VINA RESULT:      -7.3      0.862      1.374
REMARK  Name = 
REMARK  14 active torsions:
REMARK  status: ('A' for Active; 'I' for Inactive)
REMARK    1  A    between atoms: C_2  and  C_3
REMARK    2  A    between atoms: C_3  and  N_4
REMARK    3  A    between atoms: N_4  and  C_5
REMARK    4  A    between atoms: C_5  and  S_6
REMARK    5  A    between atoms: S_6  and  C_7
REMARK    6  A    between atoms: C_7  and  C_8
REMARK    7  A    between atoms: C_9  and  C_10
REMARK    8  A    between atoms: C_9  and  C_12
REMARK    9  A    between atoms: N_14  and  C_15
REMARK   10  A    between atoms: C_18  and  S_19
REMARK   11  A    between atoms: S_19  and  N_22
REMARK   12  A    between atoms: N_22  and  C_23
REMARK   13  A    between atoms: C_26  and  C_27
REMARK   14  A    between atoms: C_28  and  C_29
REMARK                            x       y       z     vdW  Elec       q    Type
REMARK                         _______ _______ _______ _____ _____    ______ ____
ROOT
ATOM      1  C   UNL     1       1.999   7.667  19.143  0.00  0.00    +0.000 A 
ATOM      2  C   UNL     1       2.076   7.010  17.904  0.00  0.00    +0.000 A 
ATOM      3  C   UNL     1       2.463   5.674  17.806  0.00  0.00    +0.000 A 
ATOM      4  C   UNL     1       2.812   4.974  18.953  0.00  0.00    +0.000 A 
ATOM      5  C   UNL     1       2.741   5.597  20.203  0.00  0.00    +0.000 A 
ATOM      6  C   UNL     1       2.348   6.946  20.292  0.00  0.00    +0.000 A 
ENDROOT
BRANCH   1   9
ATOM      7  C   UNL     1       0.567   9.439  20.120  0.00  0.00    +0.000 C 
ATOM      8  O   UNL     1      -0.016   8.666  20.879  0.00  0.00    +0.000 OA
ATOM      9  N   UNL     1       1.584   9.033  19.277  0.00  0.00    +0.000 N 
ATOM     10  H   UNL     1       2.146   9.723  18.802  0.00  0.00    +0.000 HD
BRANCH   7  12
ATOM     11  C   UNL     1      -0.972  11.318  19.564  0.00  0.00    +0.000 C 
ATOM     12  C   UNL     1       0.193  10.886  20.163  0.00  0.00    +0.000 C 
BRANCH  11  13
ATOM     13  N   UNL     1      -1.976  10.478  19.035  0.00  0.00    +0.000 N 
ATOM     14  H   UNL     1      -1.541   9.600  18.745  0.00  0.00    +0.000 HD
BRANCH  13  15
ATOM     15  C   UNL     1      -2.793  10.924  17.892  0.00  0.00    +0.000 C 
BRANCH  15  17
ATOM     16  C   UNL     1      -2.774  10.428  15.406  0.00  0.00    +0.000 C 
ATOM     17  C   UNL     1      -2.260  10.284  16.640  0.00  0.00    +0.000 C 
ENDBRANCH  15  17
ENDBRANCH  13  15
ENDBRANCH  11  13
BRANCH  12  18
ATOM     18  C   UNL     1       1.114  11.921  20.786  0.00  0.00    +0.000 C 
ATOM     19  N   UNL     1       1.879  12.780  21.303  0.00  0.00    +0.000 NA
ENDBRANCH  12  18
BRANCH  11  20
ATOM     20  S   UNL     1      -1.255  13.090  19.556  0.00  0.00    +0.000 S 
BRANCH  20  21
ATOM     21  C   UNL     1      -0.156  13.732  18.270  0.00  0.00    +0.000 C 
ATOM     22  C   UNL     1       0.431  15.059  18.732  0.00  0.00    +0.000 C 
ENDBRANCH  20  21
ENDBRANCH  11  20
ENDBRANCH   7  12
ENDBRANCH   1   9
BRANCH   4  23
ATOM     23  S   UNL     1       3.238   3.263  18.791  0.00  0.00    +0.000 S 
ATOM     24  O   UNL     1       3.584   2.767  20.107  0.00  0.00    +0.000 OA
ATOM     25  O   UNL     1       2.219   2.596  18.007  0.00  0.00    +0.000 OA
BRANCH  23  26
ATOM     26  N   UNL     1       4.695   3.293  17.929  0.00  0.00    +0.000 N 
ATOM     27  H   UNL     1       4.447   3.321  16.941  0.00  0.00    +0.000 HD
BRANCH  26  28
ATOM     28  C   UNL     1       5.596   4.300  18.363  0.00  0.00    +0.000 A 
ATOM     29  O   UNL     1       6.115   4.366  19.618  0.00  0.00    +0.000 OA
ATOM     30  N   UNL     1       7.043   5.390  19.685  0.00  0.00    +0.000 NA
ATOM     31  C   UNL     1       7.049   5.953  18.470  0.00  0.00    +0.000 A 
ATOM     32  C   UNL     1       7.931   7.113  18.190  0.00  0.00    +0.000 C 
ATOM     33  C   UNL     1       6.134   5.308  17.590  0.00  0.00    +0.000 A 
ATOM     34  C   UNL     1       5.794   5.674  16.199  0.00  0.00    +0.000 C 
ENDBRANCH  26  28
ENDBRANCH  23  26
ENDBRANCH   4  23
TORSDOF 11
ENDMDL
MODEL 9
REMARK VINA RESULT:      -7.2      1.570      1.872
REMARK  Name = 
REMARK  14 active torsions:
REMARK  status: ('A' for Active; 'I' for Inactive)
REMARK    1  A    between atoms: C_2  and  C_3
REMARK    2  A    between atoms: C_3  and  N_4
REMARK    3  A    between atoms: N_4  and  C_5
REMARK    4  A    between atoms: C_5  and  S_6
REMARK    5  A    between atoms: S_6  and  C_7
REMARK    6  A    between atoms: C_7  and  C_8
REMARK    7  A    between atoms: C_9  and  C_10
REMARK    8  A    between atoms: C_9  and  C_12
REMARK    9  A    between atoms: N_14  and  C_15
REMARK   10  A    between atoms: C_18  and  S_19
REMARK   11  A    between atoms: S_19  and  N_22
REMARK   12  A    between atoms: N_22  and  C_23
REMARK   13  A    between atoms: C_26  and  C_27
REMARK   14  A    between atoms: C_28  and  C_29
REMARK                            x       y       z     vdW  Elec       q    Type
REMARK                         _______ _______ _______ _____ _____    ______ ____
ROOT
ATOM      1  C   UNL     1       1.843   6.248  20.393  0.00  0.00    +0.000 A 
ATOM      2  C   UNL     1       2.133   5.064  21.090  0.00  0.00    +0.000 A 
ATOM      3  C   UNL     1       2.695   3.959  20.454  0.00  0.00    +0.000 A 
ATOM      4  C   UNL     1       2.953   4.008  19.091  0.00  0.00    +0.000 A 
ATOM      5  C   UNL     1       2.682   5.173  18.368  0.00  0.00    +0.000 A 
ATOM      6  C   UNL     1       2.114   6.285  19.018  0.00  0.00    +0.000 A 
ENDROOT
BRANCH   1   9
ATOM      7  C   UNL     1       1.181   8.637  20.399  0.00  0.00    +0.000 C 
ATOM      8  O   UNL     1       1.496   8.813  19.222  0.00  0.00    +0.000 OA
ATOM      9  N   UNL     1       1.284   7.409  21.023  0.00  0.00    +0.000 N 
ATOM     10  H   UNL     1       0.857   7.269  21.926  0.00  0.00    +0.000 HD
BRANCH   7  12
ATOM     11  C   UNL     1       0.307  10.969  20.502  0.00  0.00    +0.000 C 
ATOM     12  C   UNL     1       0.608   9.793  21.156  0.00  0.00    +0.000 C 
BRANCH  11  13
ATOM     13  N   UNL     1       0.327  11.149  19.102  0.00  0.00    +0.000 N 
ATOM     14  H   UNL     1       0.951  11.929  18.886  0.00  0.00    +0.000 HD
BRANCH  13  15
ATOM     15  C   UNL     1      -0.925  11.416  18.369  0.00  0.00    +0.000 C 
BRANCH  15  17
ATOM     16  C   UNL     1      -2.264  10.038  16.716  0.00  0.00    +0.000 C 
ATOM     17  C   UNL     1      -1.396  10.135  17.739  0.00  0.00    +0.000 C 
ENDBRANCH  15  17
ENDBRANCH  13  15
ENDBRANCH  11  13
BRANCH  12  18
ATOM     18  C   UNL     1       0.424   9.733  22.663  0.00  0.00    +0.000 C 
ATOM     19  N   UNL     1       0.270   9.684  23.914  0.00  0.00    +0.000 NA
ENDBRANCH  12  18
BRANCH  11  20
ATOM     20  S   UNL     1      -0.245  12.333  21.528  0.00  0.00    +0.000 S 
BRANCH  20  21
ATOM     21  C   UNL     1       0.616  13.785  20.875  0.00  0.00    +0.000 C 
ATOM     22  C   UNL     1      -0.391  14.690  20.177  0.00  0.00    +0.000 C 
ENDBRANCH  20  21
ENDBRANCH  11  20
ENDBRANCH   7  12
ENDBRANCH   1   9
BRANCH   4  23
ATOM     23  S   UNL     1       3.725   2.604  18.336  0.00  0.00    +0.000 S 
ATOM     24  O   UNL     1       4.581   1.984  19.326  0.00  0.00    +0.000 OA
ATOM     25  O   UNL     1       2.715   1.821  17.654  0.00  0.00    +0.000 OA
BRANCH  23  26
ATOM     26  N   UNL     1       4.780   3.290  17.202  0.00  0.00    +0.000 N 
ATOM     27  H   UNL     1       4.205   3.593  16.418  0.00  0.00    +0.000 HD
BRANCH  26  28
ATOM     28  C   UNL     1       5.643   4.276  17.747  0.00  0.00    +0.000 A 
ATOM     29  O   UNL     1       6.310   4.136  18.923  0.00  0.00    +0.000 OA
ATOM     30  N   UNL     1       7.152   5.217  19.113  0.00  0.00    +0.000 NA
ATOM     31  C   UNL     1       6.958   6.016  18.057  0.00  0.00    +0.000 A 
ATOM     32  C   UNL     1       7.699   7.297  17.944  0.00  0.00    +0.000 C 
ATOM     33  C   UNL     1       5.995   5.473  17.159  0.00  0.00    +0.000 A 
ATOM     34  C   UNL     1       5.451   6.081  15.926  0.00  0.00    +0.000 C 
ENDBRANCH  26  28
ENDBRANCH  23  26
ENDBRANCH   4  23
TORSDOF 11
ENDMDL
