MODEL 1
REMARK VINA RESULT:      -7.5      0.000      0.000
REMARK  Name = 
REMARK  9 active torsions:
REMARK  status: ('A' for Active; 'I' for Inactive)
REMARK    1  A    between atoms: C_1  and  C_2
REMARK    2  A    between atoms: C_2  and  C_3
REMARK    3  A    between atoms: C_2  and  C_4
REMARK    4  A    between atoms: C_7  and  C_8
REMARK    5  A    between atoms: C_8  and  C_9
REMARK    6  A    between atoms: C_8  and  N_13
REMARK    7  A    between atoms: C_9  and  C_10
REMARK    8  A    between atoms: C_10  and  O_12
REMARK    9  A    between atoms: C_14  and  C_16
REMARK                            x       y       z     vdW  Elec       q    Type
REMARK                         _______ _______ _______ _____ _____    ______ ____
ROOT
ATOM      1  C   UNL     1       6.441   5.014  17.429  0.00  0.00    +0.000 C 
ENDROOT
BRANCH   1   5
ATOM      2  C   UNL     1       5.858   3.833  13.259  0.00  0.00    +0.000 A 
ATOM      3  C   UNL     1       4.846   3.646  14.212  0.00  0.00    +0.000 A 
ATOM      4  C   UNL     1       5.020   4.060  15.542  0.00  0.00    +0.000 A 
ATOM      5  C   UNL     1       6.221   4.653  15.960  0.00  0.00    +0.000 A 
ATOM      6  C   UNL     1       7.196   4.901  14.983  0.00  0.00    +0.000 A 
ATOM      7  C   UNL     1       7.025   4.491  13.661  0.00  0.00    +0.000 A 
BRANCH   2   9
ATOM      8  C   UNL     1       6.332   1.971  11.623  0.00  0.00    +0.000 C 
ATOM      9  C   UNL     1       5.690   3.346  11.830  0.00  0.00    +0.000 C 
ATOM     10  C   UNL     1       4.214   3.302  11.413  0.00  0.00    +0.000 C 
ENDBRANCH   2   9
ENDBRANCH   1   5
BRANCH   1  11
ATOM     11  N   UNL     1       5.182   5.057  18.153  0.00  0.00    +0.000 N 
ATOM     12  C   UNL     1       4.774   4.148  19.105  0.00  0.00    +0.000 C 
ATOM     13  O   UNL     1       5.475   3.199  19.442  0.00  0.00    +0.000 OA
ATOM     14  H   UNL     1       4.499   5.747  17.858  0.00  0.00    +0.000 HD
BRANCH  12  15
ATOM     15  C   UNL     1       3.441   4.379  19.649  0.00  0.00    +0.000 A 
ATOM     16  C   UNL     1       2.843   5.602  19.892  0.00  0.00    +0.000 A 
ATOM     17  C   UNL     1       1.529   5.474  20.427  0.00  0.00    +0.000 A 
ATOM     18  C   UNL     1       1.165   4.158  20.588  0.00  0.00    +0.000 A 
ATOM     19  S   UNL     1       2.399   3.088  20.095  0.00  0.00    +0.000 S 
ENDBRANCH  12  15
ENDBRANCH   1  11
BRANCH   1  20
ATOM     20  C   UNL     1       7.303   6.275  17.609  0.00  0.00    +0.000 C 
BRANCH  20  21
ATOM     21  C   UNL     1       7.972   6.347  18.951  0.00  0.00    +0.000 C 
ATOM     22  O   UNL     1       7.954   5.460  19.791  0.00  0.00    +0.000 OA
BRANCH  21  23
ATOM     23  O   UNL     1       8.669   7.497  19.131  0.00  0.00    +0.000 OA
ATOM     24  H   UNL     1       9.075   7.588  20.015  0.00  0.00    +0.000 HD
ENDBRANCH  21  23
ENDBRANCH  20  21
ENDBRANCH   1  20
TORSDOF 7
ENDMDL
MODEL 2
REMARK VINA RESULT:      -7.5      2.468      6.490
REMARK  Name = 
REMARK  9 active torsions:
REMARK  status: ('A' for Active; 'I' for Inactive)
REMARK    1  A    between atoms: C_1  and  C_2
REMARK    2  A    between atoms: C_2  and  C_3
REMARK    3  A    between atoms: C_2  and  C_4
REMARK    4  A    between atoms: C_7  and  C_8
REMARK    5  A    between atoms: C_8  and  C_9
REMARK    6  A    between atoms: C_8  and  N_13
REMARK    7  A    between atoms: C_9  and  C_10
REMARK    8  A    between atoms: C_10  and  O_12
REMARK    9  A    between atoms: C_14  and  C_16
REMARK                            x       y       z     vdW  Elec       q    Type
REMARK                         _______ _______ _______ _____ _____    ______ ____
ROOT
ATOM      1  C   UNL     1       6.146   5.093  17.584  0.00  0.00    +0.000 C 
ENDROOT
BRANCH   1   5
ATOM      2  C   UNL     1       2.431   3.898  19.555  0.00  0.00    +0.000 A 
ATOM      3  C   UNL     1       3.630   3.209  19.794  0.00  0.00    +0.000 A 
ATOM      4  C   UNL     1       4.830   3.618  19.190  0.00  0.00    +0.000 A 
ATOM      5  C   UNL     1       4.858   4.712  18.313  0.00  0.00    +0.000 A 
ATOM      6  C   UNL     1       3.669   5.435  18.140  0.00  0.00    +0.000 A 
ATOM      7  C   UNL     1       2.476   5.032  18.740  0.00  0.00    +0.000 A 
BRANCH   2   9
ATOM      8  C   UNL     1       0.346   2.515  19.223  0.00  0.00    +0.000 C 
ATOM      9  C   UNL     1       1.123   3.432  20.173  0.00  0.00    +0.000 C 
ATOM     10  C   UNL     1       1.347   2.724  21.516  0.00  0.00    +0.000 C 
ENDBRANCH   2   9
ENDBRANCH   1   5
BRANCH   1  11
ATOM     11  N   UNL     1       6.139   4.603  16.216  0.00  0.00    +0.000 N 
ATOM     12  C   UNL     1       6.925   5.082  15.189  0.00  0.00    +0.000 C 
ATOM     13  O   UNL     1       7.736   5.987  15.358  0.00  0.00    +0.000 OA
ATOM     14  H   UNL     1       5.423   3.930  15.966  0.00  0.00    +0.000 HD
BRANCH  12  15
ATOM     15  C   UNL     1       6.693   4.460  13.891  0.00  0.00    +0.000 A 
ATOM     16  C   UNL     1       5.659   3.607  13.552  0.00  0.00    +0.000 A 
ATOM     17  C   UNL     1       5.724   3.177  12.195  0.00  0.00    +0.000 A 
ATOM     18  C   UNL     1       6.812   3.706  11.540  0.00  0.00    +0.000 A 
ATOM     19  S   UNL     1       7.743   4.712  12.556  0.00  0.00    +0.000 S 
ENDBRANCH  12  15
ENDBRANCH   1  11
BRANCH   1  20
ATOM     20  C   UNL     1       7.411   4.711  18.372  0.00  0.00    +0.000 C 
BRANCH  20  21
ATOM     21  C   UNL     1       7.927   5.825  19.237  0.00  0.00    +0.000 C 
ATOM     22  O   UNL     1       8.241   6.936  18.835  0.00  0.00    +0.000 OA
BRANCH  21  23
ATOM     23  O   UNL     1       7.958   5.499  20.553  0.00  0.00    +0.000 OA
ATOM     24  H   UNL     1       7.337   6.008  21.110  0.00  0.00    +0.000 HD
ENDBRANCH  21  23
ENDBRANCH  20  21
ENDBRANCH   1  20
TORSDOF 7
ENDMDL
MODEL 3
REMARK VINA RESULT:      -7.4      3.302      7.415
REMARK  Name = 
REMARK  9 active torsions:
REMARK  status: ('A' for Active; 'I' for Inactive)
REMARK    1  A    between atoms: C_1  and  C_2
REMARK    2  A    between atoms: C_2  and  C_3
REMARK    3  A    between atoms: C_2  and  C_4
REMARK    4  A    between atoms: C_7  and  C_8
REMARK    5  A    between atoms: C_8  and  C_9
REMARK    6  A    between atoms: C_8  and  N_13
REMARK    7  A    between atoms: C_9  and  C_10
REMARK    8  A    between atoms: C_10  and  O_12
REMARK    9  A    between atoms: C_14  and  C_16
REMARK                            x       y       z     vdW  Elec       q    Type
REMARK                         _______ _______ _______ _____ _____    ______ ____
ROOT
ATOM      1  C   UNL     1       2.971   5.558  19.649  0.00  0.00    +0.000 C 
ENDROOT
BRANCH   1   5
ATOM      2  C   UNL     1       1.019   9.466  19.467  0.00  0.00    +0.000 A 
ATOM      3  C   UNL     1       1.037   8.721  20.656  0.00  0.00    +0.000 A 
ATOM      4  C   UNL     1       1.697   7.484  20.723  0.00  0.00    +0.000 A 
ATOM      5  C   UNL     1       2.338   6.948  19.596  0.00  0.00    +0.000 A 
ATOM      6  C   UNL     1       2.376   7.735  18.436  0.00  0.00    +0.000 A 
ATOM      7  C   UNL     1       1.721   8.965  18.367  0.00  0.00    +0.000 A 
BRANCH   2   9
ATOM      8  C   UNL     1       1.165  11.910  18.854  0.00  0.00    +0.000 C 
ATOM      9  C   UNL     1       0.269  10.784  19.379  0.00  0.00    +0.000 C 
ATOM     10  C   UNL     1      -0.988  10.667  18.507  0.00  0.00    +0.000 C 
ENDBRANCH   2   9
ENDBRANCH   1   5
BRANCH   1  11
ATOM     11  N   UNL     1       3.731   5.282  18.441  0.00  0.00    +0.000 N 
ATOM     12  C   UNL     1       4.983   4.707  18.396  0.00  0.00    +0.000 C 
ATOM     13  O   UNL     1       5.575   4.355  19.412  0.00  0.00    +0.000 OA
ATOM     14  H   UNL     1       3.361   5.639  17.567  0.00  0.00    +0.000 HD
BRANCH  12  15
ATOM     15  C   UNL     1       5.559   4.584  17.063  0.00  0.00    +0.000 A 
ATOM     16  C   UNL     1       4.909   4.182  15.910  0.00  0.00    +0.000 A 
ATOM     17  C   UNL     1       5.765   4.173  14.771  0.00  0.00    +0.000 A 
ATOM     18  C   UNL     1       7.047   4.558  15.088  0.00  0.00    +0.000 A 
ATOM     19  S   UNL     1       7.212   4.928  16.746  0.00  0.00    +0.000 S 
ENDBRANCH  12  15
ENDBRANCH   1  11
BRANCH   1  20
ATOM     20  C   UNL     1       1.960   4.457  20.011  0.00  0.00    +0.000 C 
BRANCH  20  21
ATOM     21  C   UNL     1       2.504   3.452  20.986  0.00  0.00    +0.000 C 
ATOM     22  O   UNL     1       2.134   3.328  22.144  0.00  0.00    +0.000 OA
BRANCH  21  23
ATOM     23  O   UNL     1       3.431   2.630  20.433  0.00  0.00    +0.000 OA
ATOM     24  H   UNL     1       3.978   3.047  19.739  0.00  0.00    +0.000 HD
ENDBRANCH  21  23
ENDBRANCH  20  21
ENDBRANCH   1  20
TORSDOF 7
ENDMDL
MODEL 4
REMARK VINA RESULT:      -7.4      0.566      1.170
REMARK  Name = 
REMARK  9 active torsions:
REMARK  status: ('A' for Active; 'I' for Inactive)
REMARK    1  A    between atoms: C_1  and  C_2
REMARK    2  A    between atoms: C_2  and  C_3
REMARK    3  A    between atoms: C_2  and  C_4
REMARK    4  A    between atoms: C_7  and  C_8
REMARK    5  A    between atoms: C_8  and  C_9
REMARK    6  A    between atoms: C_8  and  N_13
REMARK    7  A    between atoms: C_9  and  C_10
REMARK    8  A    between atoms: C_10  and  O_12
REMARK    9  A    between atoms: C_14  and  C_16
REMARK                            x       y       z     vdW  Elec       q    Type
REMARK                         _______ _______ _______ _____ _____    ______ ____
ROOT
ATOM      1  C   UNL     1       6.235   4.917  17.670  0.00  0.00    +0.000 C 
ENDROOT
BRANCH   1   5
ATOM      2  C   UNL     1       6.120   3.888  13.423  0.00  0.00    +0.000 A 
ATOM      3  C   UNL     1       7.114   4.734  13.934  0.00  0.00    +0.000 A 
ATOM      4  C   UNL     1       7.173   5.034  15.305  0.00  0.00    +0.000 A 
ATOM      5  C   UNL     1       6.224   4.512  16.197  0.00  0.00    +0.000 A 
ATOM      6  C   UNL     1       5.280   3.610  15.685  0.00  0.00    +0.000 A 
ATOM      7  C   UNL     1       5.221   3.310  14.323  0.00  0.00    +0.000 A 
BRANCH   2   9
ATOM      8  C   UNL     1       6.951   2.446  11.525  0.00  0.00    +0.000 C 
ATOM      9  C   UNL     1       6.028   3.597  11.934  0.00  0.00    +0.000 C 
ATOM     10  C   UNL     1       4.588   3.292  11.501  0.00  0.00    +0.000 C 
ENDBRANCH   2   9
ENDBRANCH   1   5
BRANCH   1  11
ATOM     11  N   UNL     1       4.913   4.786  18.260  0.00  0.00    +0.000 N 
ATOM     12  C   UNL     1       4.550   3.856  19.211  0.00  0.00    +0.000 C 
ATOM     13  O   UNL     1       5.348   3.041  19.664  0.00  0.00    +0.000 OA
ATOM     14  H   UNL     1       4.168   5.349  17.864  0.00  0.00    +0.000 HD
BRANCH  12  15
ATOM     15  C   UNL     1       3.147   3.892  19.606  0.00  0.00    +0.000 A 
ATOM     16  C   UNL     1       2.557   4.768  20.498  0.00  0.00    +0.000 A 
ATOM     17  C   UNL     1       1.161   4.532  20.658  0.00  0.00    +0.000 A 
ATOM     18  C   UNL     1       0.728   3.474  19.894  0.00  0.00    +0.000 A 
ATOM     19  S   UNL     1       1.995   2.777  18.989  0.00  0.00    +0.000 S 
ENDBRANCH  12  15
ENDBRANCH   1  11
BRANCH   1  20
ATOM     20  C   UNL     1       6.884   6.292  17.904  0.00  0.00    +0.000 C 
BRANCH  20  21
ATOM     21  C   UNL     1       7.928   6.277  18.983  0.00  0.00    +0.000 C 
ATOM     22  O   UNL     1       8.184   5.318  19.697  0.00  0.00    +0.000 OA
BRANCH  21  23
ATOM     23  O   UNL     1       8.625   7.438  19.058  0.00  0.00    +0.000 OA
ATOM     24  H   UNL     1       9.128   7.659  18.250  0.00  0.00    +0.000 HD
ENDBRANCH  21  23
ENDBRANCH  20  21
ENDBRANCH   1  20
TORSDOF 7
ENDMDL
MODEL 5
REMARK VINA RESULT:      -7.4      2.558      6.439
REMARK  Name = 
REMARK  9 active torsions:
REMARK  status: ('A' for Active; 'I' for Inactive)
REMARK    1  A    between atoms: C_1  and  C_2
REMARK    2  A    between atoms: C_2  and  C_3
REMARK    3  A    between atoms: C_2  and  C_4
REMARK    4  A    between atoms: C_7  and  C_8
REMARK    5  A    between atoms: C_8  and  C_9
REMARK    6  A    between atoms: C_8  and  N_13
REMARK    7  A    between atoms: C_9  and  C_10
REMARK    8  A    between atoms: C_10  and  O_12
REMARK    9  A    between atoms: C_14  and  C_16
REMARK                            x       y       z     vdW  Elec       q    Type
REMARK                         _______ _______ _______ _____ _____    ______ ____
ROOT
ATOM      1  C   UNL     1       6.316   5.015  17.539  0.00  0.00    +0.000 C 
ENDROOT
BRANCH   1   5
ATOM      2  C   UNL     1       2.538   3.821  19.387  0.00  0.00    +0.000 A 
ATOM      3  C   UNL     1       2.562   4.704  18.297  0.00  0.00    +0.000 A 
ATOM      4  C   UNL     1       3.773   5.057  17.681  0.00  0.00    +0.000 A 
ATOM      5  C   UNL     1       4.994   4.553  18.152  0.00  0.00    +0.000 A 
ATOM      6  C   UNL     1       4.950   3.615  19.193  0.00  0.00    +0.000 A 
ATOM      7  C   UNL     1       3.748   3.262  19.807  0.00  0.00    +0.000 A 
BRANCH   2   9
ATOM      8  C   UNL     1       0.364   2.547  19.226  0.00  0.00    +0.000 C 
ATOM      9  C   UNL     1       1.233   3.471  20.084  0.00  0.00    +0.000 C 
ATOM     10  C   UNL     1       1.475   2.834  21.459  0.00  0.00    +0.000 C 
ENDBRANCH   2   9
ENDBRANCH   1   5
BRANCH   1  11
ATOM     11  N   UNL     1       6.449   4.550  16.168  0.00  0.00    +0.000 N 
ATOM     12  C   UNL     1       6.119   5.272  15.041  0.00  0.00    +0.000 C 
ATOM     13  O   UNL     1       5.683   6.417  15.107  0.00  0.00    +0.000 OA
ATOM     14  H   UNL     1       6.701   3.577  16.029  0.00  0.00    +0.000 HD
BRANCH  12  15
ATOM     15  C   UNL     1       6.294   4.563  13.779  0.00  0.00    +0.000 A 
ATOM     16  C   UNL     1       5.479   3.572  13.264  0.00  0.00    +0.000 A 
ATOM     17  C   UNL     1       5.933   3.087  12.003  0.00  0.00    +0.000 A 
ATOM     18  C   UNL     1       7.088   3.715  11.598  0.00  0.00    +0.000 A 
ATOM     19  S   UNL     1       7.615   4.878  12.729  0.00  0.00    +0.000 S 
ENDBRANCH  12  15
ENDBRANCH   1  11
BRANCH   1  20
ATOM     20  C   UNL     1       7.530   4.688  18.425  0.00  0.00    +0.000 C 
BRANCH  20  21
ATOM     21  C   UNL     1       7.988   5.855  19.252  0.00  0.00    +0.000 C 
ATOM     22  O   UNL     1       8.219   6.974  18.817  0.00  0.00    +0.000 OA
BRANCH  21  23
ATOM     23  O   UNL     1       8.070   5.564  20.574  0.00  0.00    +0.000 OA
ATOM     24  H   UNL     1       8.959   5.289  20.873  0.00  0.00    +0.000 HD
ENDBRANCH  21  23
ENDBRANCH  20  21
ENDBRANCH   1  20
TORSDOF 7
ENDMDL
MODEL 6
REMARK VINA RESULT:      -7.4      3.159      7.703
REMARK  Name = 
REMARK  9 active torsions:
REMARK  status: ('A' for Active; 'I' for Inactive)
REMARK    1  A    between atoms: C_1  and  C_2
REMARK    2  A    between atoms: C_2  and  C_3
REMARK    3  A    between atoms: C_2  and  C_4
REMARK    4  A    between atoms: C_7  and  C_8
REMARK    5  A    between atoms: C_8  and  C_9
REMARK    6  A    between atoms: C_8  and  N_13
REMARK    7  A    between atoms: C_9  and  C_10
REMARK    8  A    between atoms: C_10  and  O_12
REMARK    9  A    between atoms: C_14  and  C_16
REMARK                            x       y       z     vdW  Elec       q    Type
REMARK                         _______ _______ _______ _____ _____    ______ ____
ROOT
ATOM      1  C   UNL     1       2.949   4.984  19.587  0.00  0.00    +0.000 C 
ENDROOT
BRANCH   1   5
ATOM      2  C   UNL     1       1.266   9.008  19.892  0.00  0.00    +0.000 A 
ATOM      3  C   UNL     1       1.879   8.569  18.710  0.00  0.00    +0.000 A 
ATOM      4  C   UNL     1       2.385   7.263  18.600  0.00  0.00    +0.000 A 
ATOM      5  C   UNL     1       2.312   6.370  19.679  0.00  0.00    +0.000 A 
ATOM      6  C   UNL     1       1.632   6.797  20.829  0.00  0.00    +0.000 A 
ATOM      7  C   UNL     1       1.127   8.093  20.940  0.00  0.00    +0.000 A 
BRANCH   2   9
ATOM      8  C   UNL     1      -0.374  10.726  19.038  0.00  0.00    +0.000 C 
ATOM      9  C   UNL     1       0.757  10.433  20.029  0.00  0.00    +0.000 C 
ATOM     10  C   UNL     1       0.290  10.737  21.458  0.00  0.00    +0.000 C 
ENDBRANCH   2   9
ENDBRANCH   1   5
BRANCH   1  11
ATOM     11  N   UNL     1       3.733   4.847  18.371  0.00  0.00    +0.000 N 
ATOM     12  C   UNL     1       5.042   4.417  18.305  0.00  0.00    +0.000 C 
ATOM     13  O   UNL     1       5.670   4.090  19.307  0.00  0.00    +0.000 OA
ATOM     14  H   UNL     1       3.324   5.198  17.512  0.00  0.00    +0.000 HD
BRANCH  12  15
ATOM     15  C   UNL     1       5.626   4.418  16.970  0.00  0.00    +0.000 A 
ATOM     16  C   UNL     1       4.981   4.130  15.781  0.00  0.00    +0.000 A 
ATOM     17  C   UNL     1       5.844   4.224  14.651  0.00  0.00    +0.000 A 
ATOM     18  C   UNL     1       7.126   4.569  15.011  0.00  0.00    +0.000 A 
ATOM     19  S   UNL     1       7.282   4.781  16.697  0.00  0.00    +0.000 S 
ENDBRANCH  12  15
ENDBRANCH   1  11
BRANCH   1  20
ATOM     20  C   UNL     1       1.936   3.847  19.803  0.00  0.00    +0.000 C 
BRANCH  20  21
ATOM     21  C   UNL     1       1.522   3.175  18.526  0.00  0.00    +0.000 C 
ATOM     22  O   UNL     1       1.159   3.756  17.513  0.00  0.00    +0.000 OA
BRANCH  21  23
ATOM     23  O   UNL     1       1.645   1.825  18.577  0.00  0.00    +0.000 OA
ATOM     24  H   UNL     1       2.130   1.435  17.824  0.00  0.00    +0.000 HD
ENDBRANCH  21  23
ENDBRANCH  20  21
ENDBRANCH   1  20
TORSDOF 7
ENDMDL
MODEL 7
REMARK VINA RESULT:      -7.3      3.472      7.604
REMARK  Name = 
REMARK  9 active torsions:
REMARK  status: ('A' for Active; 'I' for Inactive)
REMARK    1  A    between atoms: C_1  and  C_2
REMARK    2  A    between atoms: C_2  and  C_3
REMARK    3  A    between atoms: C_2  and  C_4
REMARK    4  A    between atoms: C_7  and  C_8
REMARK    5  A    between atoms: C_8  and  C_9
REMARK    6  A    between atoms: C_8  and  N_13
REMARK    7  A    between atoms: C_9  and  C_10
REMARK    8  A    between atoms: C_10  and  O_12
REMARK    9  A    between atoms: C_14  and  C_16
REMARK                            x       y       z     vdW  Elec       q    Type
REMARK                         _______ _______ _______ _____ _____    ______ ____
ROOT
ATOM      1  C   UNL     1       2.852   5.731  19.662  0.00  0.00    +0.000 C 
ENDROOT
BRANCH   1   5
ATOM      2  C   UNL     1       0.958   9.641  19.174  0.00  0.00    +0.000 A 
ATOM      3  C   UNL     1       1.007   9.014  20.427  0.00  0.00    +0.000 A 
ATOM      4  C   UNL     1       1.649   7.775  20.590  0.00  0.00    +0.000 A 
ATOM      5  C   UNL     1       2.239   7.121  19.498  0.00  0.00    +0.000 A 
ATOM      6  C   UNL     1       2.247   7.793  18.267  0.00  0.00    +0.000 A 
ATOM      7  C   UNL     1       1.610   9.023  18.103  0.00  0.00    +0.000 A 
BRANCH   2   9
ATOM      8  C   UNL     1      -1.077  10.775  18.202  0.00  0.00    +0.000 C 
ATOM      9  C   UNL     1       0.226  10.960  18.985  0.00  0.00    +0.000 C 
ATOM     10  C   UNL     1      -0.063  11.648  20.326  0.00  0.00    +0.000 C 
ENDBRANCH   2   9
ENDBRANCH   1   5
BRANCH   1  11
ATOM     11  N   UNL     1       3.681   5.385  18.520  0.00  0.00    +0.000 N 
ATOM     12  C   UNL     1       5.045   5.187  18.552  0.00  0.00    +0.000 C 
ATOM     13  O   UNL     1       5.692   5.275  19.591  0.00  0.00    +0.000 OA
ATOM     14  H   UNL     1       3.243   5.398  17.606  0.00  0.00    +0.000 HD
BRANCH  12  15
ATOM     15  C   UNL     1       5.658   4.902  17.260  0.00  0.00    +0.000 A 
ATOM     16  C   UNL     1       5.229   3.982  16.322  0.00  0.00    +0.000 A 
ATOM     17  C   UNL     1       6.056   3.953  15.161  0.00  0.00    +0.000 A 
ATOM     18  C   UNL     1       7.099   4.845  15.253  0.00  0.00    +0.000 A 
ATOM     19  S   UNL     1       7.077   5.708  16.724  0.00  0.00    +0.000 S 
ENDBRANCH  12  15
ENDBRANCH   1  11
BRANCH   1  20
ATOM     20  C   UNL     1       1.807   4.659  20.017  0.00  0.00    +0.000 C 
BRANCH  20  21
ATOM     21  C   UNL     1       1.719   3.560  18.998  0.00  0.00    +0.000 C 
ATOM     22  O   UNL     1       1.128   3.640  17.930  0.00  0.00    +0.000 OA
BRANCH  21  23
ATOM     23  O   UNL     1       2.425   2.456  19.350  0.00  0.00    +0.000 OA
ATOM     24  H   UNL     1       2.634   2.398  20.303  0.00  0.00    +0.000 HD
ENDBRANCH  21  23
ENDBRANCH  20  21
ENDBRANCH   1  20
TORSDOF 7
ENDMDL
MODEL 8
REMARK VINA RESULT:      -7.3      2.543      6.403
REMARK  Name = 
REMARK  9 active torsions:
REMARK  status: ('A' for Active; 'I' for Inactive)
REMARK    1  A    between atoms: C_1  and  C_2
REMARK    2  A    between atoms: C_2  and  C_3
REMARK    3  A    between atoms: C_2  and  C_4
REMARK    4  A    between atoms: C_7  and  C_8
REMARK    5  A    between atoms: C_8  and  C_9
REMARK    6  A    between atoms: C_8  and  N_13
REMARK    7  A    between atoms: C_9  and  C_10
REMARK    8  A    between atoms: C_10  and  O_12
REMARK    9  A    between atoms: C_14  and  C_16
REMARK                            x       y       z     vdW  Elec       q    Type
REMARK                         _______ _______ _______ _____ _____    ______ ____
ROOT
ATOM      1  C   UNL     1       5.663   6.121  17.369  0.00  0.00    +0.000 C 
ENDROOT
BRANCH   1   5
ATOM      2  C   UNL     1       2.304   4.102  19.308  0.00  0.00    +0.000 A 
ATOM      3  C   UNL     1       2.610   3.863  17.960  0.00  0.00    +0.000 A 
ATOM      4  C   UNL     1       3.712   4.483  17.349  0.00  0.00    +0.000 A 
ATOM      5  C   UNL     1       4.524   5.376  18.065  0.00  0.00    +0.000 A 
ATOM      6  C   UNL     1       4.250   5.550  19.429  0.00  0.00    +0.000 A 
ATOM      7  C   UNL     1       3.156   4.935  20.038  0.00  0.00    +0.000 A 
BRANCH   2   9
ATOM      8  C   UNL     1       0.489   2.363  19.082  0.00  0.00    +0.000 C 
ATOM      9  C   UNL     1       1.086   3.468  19.959  0.00  0.00    +0.000 C 
ATOM     10  C   UNL     1       1.409   2.913  21.352  0.00  0.00    +0.000 C 
ENDBRANCH   2   9
ENDBRANCH   1   5
BRANCH   1  11
ATOM     11  N   UNL     1       5.850   5.642  16.010  0.00  0.00    +0.000 N 
ATOM     12  C   UNL     1       6.858   4.802  15.588  0.00  0.00    +0.000 C 
ATOM     13  O   UNL     1       7.705   4.362  16.361  0.00  0.00    +0.000 OA
ATOM     14  H   UNL     1       5.259   6.043  15.290  0.00  0.00    +0.000 HD
BRANCH  12  15
ATOM     15  C   UNL     1       6.862   4.509  14.160  0.00  0.00    +0.000 A 
ATOM     16  C   UNL     1       6.034   3.627  13.491  0.00  0.00    +0.000 A 
ATOM     17  C   UNL     1       6.299   3.578  12.092  0.00  0.00    +0.000 A 
ATOM     18  C   UNL     1       7.331   4.415  11.735  0.00  0.00    +0.000 A 
ATOM     19  S   UNL     1       7.969   5.252  13.078  0.00  0.00    +0.000 S 
ENDBRANCH  12  15
ENDBRANCH   1  11
BRANCH   1  20
ATOM     20  C   UNL     1       6.956   6.142  18.203  0.00  0.00    +0.000 C 
BRANCH  20  21
ATOM     21  C   UNL     1       7.778   7.380  17.987  0.00  0.00    +0.000 C 
ATOM     22  O   UNL     1       7.666   8.138  17.035  0.00  0.00    +0.000 OA
BRANCH  21  23
ATOM     23  O   UNL     1       8.642   7.622  19.005  0.00  0.00    +0.000 OA
ATOM     24  H   UNL     1       8.953   8.547  19.059  0.00  0.00    +0.000 HD
ENDBRANCH  21  23
ENDBRANCH  20  21
ENDBRANCH   1  20
TORSDOF 7
ENDMDL
MODEL 9
REMARK VINA RESULT:      -7.2      3.328      7.559
REMARK  Name = 
REMARK  9 active torsions:
REMARK  status: ('A' for Active; 'I' for Inactive)
REMARK    1  A    between atoms: C_1  and  C_2
REMARK    2  A    between atoms: C_2  and  C_3
REMARK    3  A    between atoms: C_2  and  C_4
REMARK    4  A    between atoms: C_7  and  C_8
REMARK    5  A    between atoms: C_8  and  C_9
REMARK    6  A    between atoms: C_8  and  N_13
REMARK    7  A    between atoms: C_9  and  C_10
REMARK    8  A    between atoms: C_10  and  O_12
REMARK    9  A    between atoms: C_14  and  C_16
REMARK                            x       y       z     vdW  Elec       q    Type
REMARK                         _______ _______ _______ _____ _____    ______ ____
ROOT
ATOM      1  C   UNL     1       2.885   5.576  19.840  0.00  0.00    +0.000 C 
ENDROOT
BRANCH   1   5
ATOM      2  C   UNL     1       1.157   9.576  19.468  0.00  0.00    +0.000 A 
ATOM      3  C   UNL     1       1.773   8.950  18.374  0.00  0.00    +0.000 A 
ATOM      4  C   UNL     1       2.294   7.650  18.485  0.00  0.00    +0.000 A 
ATOM      5  C   UNL     1       2.232   6.951  19.700  0.00  0.00    +0.000 A 
ATOM      6  C   UNL     1       1.550   7.559  20.763  0.00  0.00    +0.000 A 
ATOM      7  C   UNL     1       1.031   8.849  20.656  0.00  0.00    +0.000 A 
BRANCH   2   9
ATOM      8  C   UNL     1       0.209  11.545  20.731  0.00  0.00    +0.000 C 
ATOM      9  C   UNL     1       0.633  10.998  19.364  0.00  0.00    +0.000 C 
ATOM     10  C   UNL     1       1.660  11.938  18.720  0.00  0.00    +0.000 C 
ENDBRANCH   2   9
ENDBRANCH   1   5
BRANCH   1  11
ATOM     11  N   UNL     1       3.668   5.245  18.662  0.00  0.00    +0.000 N 
ATOM     12  C   UNL     1       4.997   4.878  18.660  0.00  0.00    +0.000 C 
ATOM     13  O   UNL     1       5.648   4.785  19.697  0.00  0.00    +0.000 OA
ATOM     14  H   UNL     1       3.237   5.399  17.757  0.00  0.00    +0.000 HD
BRANCH  12  15
ATOM     15  C   UNL     1       5.573   4.647  17.341  0.00  0.00    +0.000 A 
ATOM     16  C   UNL     1       4.895   4.296  16.189  0.00  0.00    +0.000 A 
ATOM     17  C   UNL     1       5.760   4.149  15.066  0.00  0.00    +0.000 A 
ATOM     18  C   UNL     1       7.074   4.381  15.396  0.00  0.00    +0.000 A 
ATOM     19  S   UNL     1       7.260   4.775  17.045  0.00  0.00    +0.000 S 
ENDBRANCH  12  15
ENDBRANCH   1  11
BRANCH   1  20
ATOM     20  C   UNL     1       1.885   4.482  20.249  0.00  0.00    +0.000 C 
BRANCH  20  21
ATOM     21  C   UNL     1       2.492   3.423  21.124  0.00  0.00    +0.000 C 
ATOM     22  O   UNL     1       2.161   3.194  22.278  0.00  0.00    +0.000 OA
BRANCH  21  23
ATOM     23  O   UNL     1       3.428   2.681  20.481  0.00  0.00    +0.000 OA
ATOM     24  H   UNL     1       3.233   2.513  19.539  0.00  0.00    +0.000 HD
ENDBRANCH  21  23
ENDBRANCH  20  21
ENDBRANCH   1  20
TORSDOF 7
ENDMDL
