MODEL 1
REMARK VINA RESULT:      -8.2      0.000      0.000
REMARK  Name = 
REMARK  15 active torsions:
REMARK  status: ('A' for Active; 'I' for Inactive)
REMARK    1  A    between atoms: C_1  and  C_2
REMARK    2  A    between atoms: C_2  and  C_3
REMARK    3  A    between atoms: C_2  and  C_4
REMARK    4  A    between atoms: C_2  and  C_5
REMARK    5  A    between atoms: C_8  and  C_9
REMARK    6  A    between atoms: C_9  and  C_10
REMARK    7  A    between atoms: C_10  and  C_11
REMARK    8  A    between atoms: C_11  and  N_13
REMARK    9  A    between atoms: N_13  and  C_14
REMARK   10  A    between atoms: C_14  and  C_15
REMARK   11  A    between atoms: C_18  and  N_19
REMARK   12  A    between atoms: N_19  and  S_20
REMARK   13  A    between atoms: S_20  and  C_21
REMARK   14  A    between atoms: C_24  and  C_25
REMARK   15  A    between atoms: C_25  and  O_27
REMARK                            x       y       z     vdW  Elec       q    Type
REMARK                         _______ _______ _______ _____ _____    ______ ____
ROOT
ATOM      1  C   UNL     1       5.773   6.295  15.838  0.00  0.00    +0.000 C 
ENDROOT
BRANCH   1   2
ATOM      2  C   UNL     1       4.874   5.659  16.863  0.00  0.00    +0.000 A 
ATOM      3  C   UNL     1       4.903   4.283  17.081  0.00  0.00    +0.000 A 
ATOM      4  C   UNL     1       4.197   3.729  18.149  0.00  0.00    +0.000 A 
ATOM      5  C   UNL     1       3.409   4.524  18.997  0.00  0.00    +0.000 A 
ATOM      6  C   UNL     1       3.301   5.902  18.744  0.00  0.00    +0.000 A 
ATOM      7  C   UNL     1       4.056   6.448  17.682  0.00  0.00    +0.000 A 
BRANCH   5   8
ATOM      8  N   UNL     1       2.963   3.906  20.208  0.00  0.00    +0.000 N 
ATOM      9  H   UNL     1       3.686   3.456  20.776  0.00  0.00    +0.000 HD
BRANCH   8  10
ATOM     10  S   UNL     1       1.461   3.192  20.373  0.00  0.00    +0.000 S 
ATOM     11  C   UNL     1       1.207   2.187  18.921  0.00  0.00    +0.000 C 
ATOM     12  O   UNL     1       1.597   2.309  21.505  0.00  0.00    +0.000 OA
ATOM     13  O   UNL     1       0.514   4.285  20.376  0.00  0.00    +0.000 OA
ENDBRANCH   8  10
ENDBRANCH   5   8
BRANCH   6  14
ATOM     14  C   UNL     1       2.520   6.910  19.532  0.00  0.00    +0.000 C 
ATOM     15  O   UNL     1       2.138   7.958  19.036  0.00  0.00    +0.000 OA
BRANCH  14  16
ATOM     16  O   UNL     1       2.242   6.599  20.809  0.00  0.00    +0.000 OA
ATOM     17  H   UNL     1       1.984   7.344  21.379  0.00  0.00    +0.000 HD
ENDBRANCH  14  16
ENDBRANCH   6  14
ENDBRANCH   1   2
BRANCH   1  18
ATOM     18  N   UNL     1       7.124   6.472  16.334  0.00  0.00    +0.000 N 
ATOM     19  H   UNL     1       7.828   6.131  15.696  0.00  0.00    +0.000 HD
BRANCH  18  20
ATOM     20  C   UNL     1       7.512   6.992  17.550  0.00  0.00    +0.000 C 
ATOM     21  S   UNL     1       7.760   6.096  18.946  0.00  0.00    +0.000 S 
BRANCH  20  22
ATOM     22  C   UNL     1       7.874   8.479  17.553  0.00  0.00    +0.000 C 
BRANCH  22  23
ATOM     23  C   UNL     1       8.734   8.939  18.726  0.00  0.00    +0.000 C 
BRANCH  23  27
ATOM     24  C   UNL     1       9.989  13.082  18.413  0.00  0.00    +0.000 A 
ATOM     25  C   UNL     1      10.667  12.164  19.227  0.00  0.00    +0.000 A 
ATOM     26  C   UNL     1      10.248  10.839  19.333  0.00  0.00    +0.000 A 
ATOM     27  C   UNL     1       9.141  10.380  18.614  0.00  0.00    +0.000 A 
ATOM     28  C   UNL     1       8.446  11.277  17.804  0.00  0.00    +0.000 A 
ATOM     29  C   UNL     1       8.867  12.609  17.703  0.00  0.00    +0.000 A 
BRANCH  24  31
ATOM     30  C   UNL     1      11.550  14.750  17.230  0.00  0.00    +0.000 C 
ATOM     31  C   UNL     1      10.440  14.547  18.287  0.00  0.00    +0.000 C 
ATOM     32  C   UNL     1      10.999  15.046  19.636  0.00  0.00    +0.000 C 
ATOM     33  C   UNL     1       9.245  15.435  17.879  0.00  0.00    +0.000 C 
ENDBRANCH  24  31
ENDBRANCH  23  27
ENDBRANCH  22  23
ENDBRANCH  20  22
ENDBRANCH  18  20
ENDBRANCH   1  18
TORSDOF 11
ENDMDL
MODEL 2
REMARK VINA RESULT:      -8.0      1.023      1.159
REMARK  Name = 
REMARK  15 active torsions:
REMARK  status: ('A' for Active; 'I' for Inactive)
REMARK    1  A    between atoms: C_1  and  C_2
REMARK    2  A    between atoms: C_2  and  C_3
REMARK    3  A    between atoms: C_2  and  C_4
REMARK    4  A    between atoms: C_2  and  C_5
REMARK    5  A    between atoms: C_8  and  C_9
REMARK    6  A    between atoms: C_9  and  C_10
REMARK    7  A    between atoms: C_10  and  C_11
REMARK    8  A    between atoms: C_11  and  N_13
REMARK    9  A    between atoms: N_13  and  C_14
REMARK   10  A    between atoms: C_14  and  C_15
REMARK   11  A    between atoms: C_18  and  N_19
REMARK   12  A    between atoms: N_19  and  S_20
REMARK   13  A    between atoms: S_20  and  C_21
REMARK   14  A    between atoms: C_24  and  C_25
REMARK   15  A    between atoms: C_25  and  O_27
REMARK                            x       y       z     vdW  Elec       q    Type
REMARK                         _______ _______ _______ _____ _____    ______ ____
ROOT
ATOM      1  C   UNL     1       6.020   5.756  16.121  0.00  0.00    +0.000 C 
ENDROOT
BRANCH   1   2
ATOM      2  C   UNL     1       4.706   5.389  16.757  0.00  0.00    +0.000 A 
ATOM      3  C   UNL     1       4.156   4.122  16.577  0.00  0.00    +0.000 A 
ATOM      4  C   UNL     1       3.033   3.736  17.309  0.00  0.00    +0.000 A 
ATOM      5  C   UNL     1       2.402   4.618  18.202  0.00  0.00    +0.000 A 
ATOM      6  C   UNL     1       2.892   5.928  18.335  0.00  0.00    +0.000 A 
ATOM      7  C   UNL     1       4.054   6.285  17.615  0.00  0.00    +0.000 A 
BRANCH   5   8
ATOM      8  N   UNL     1       1.446   4.038  19.094  0.00  0.00    +0.000 N 
ATOM      9  H   UNL     1       0.744   4.677  19.477  0.00  0.00    +0.000 HD
BRANCH   8  10
ATOM     10  S   UNL     1       1.802   2.765  20.117  0.00  0.00    +0.000 S 
ATOM     11  C   UNL     1       3.537   2.891  20.512  0.00  0.00    +0.000 C 
ATOM     12  O   UNL     1       1.053   3.039  21.319  0.00  0.00    +0.000 OA
ATOM     13  O   UNL     1       1.569   1.569  19.337  0.00  0.00    +0.000 OA
ENDBRANCH   8  10
ENDBRANCH   5   8
BRANCH   6  14
ATOM     14  C   UNL     1       2.364   7.006  19.233  0.00  0.00    +0.000 C 
ATOM     15  O   UNL     1       2.094   8.120  18.810  0.00  0.00    +0.000 OA
BRANCH  14  16
ATOM     16  O   UNL     1       2.181   6.685  20.525  0.00  0.00    +0.000 OA
ATOM     17  H   UNL     1       1.580   5.939  20.694  0.00  0.00    +0.000 HD
ENDBRANCH  14  16
ENDBRANCH   6  14
ENDBRANCH   1   2
BRANCH   1  18
ATOM     18  N   UNL     1       6.528   7.021  16.615  0.00  0.00    +0.000 N 
ATOM     19  H   UNL     1       6.234   7.810  16.059  0.00  0.00    +0.000 HD
BRANCH  18  20
ATOM     20  C   UNL     1       7.367   7.229  17.688  0.00  0.00    +0.000 C 
ATOM     21  S   UNL     1       7.772   6.071  18.833  0.00  0.00    +0.000 S 
BRANCH  20  22
ATOM     22  C   UNL     1       8.077   8.584  17.726  0.00  0.00    +0.000 C 
BRANCH  22  23
ATOM     23  C   UNL     1       8.786   8.913  19.037  0.00  0.00    +0.000 C 
BRANCH  23  27
ATOM     24  C   UNL     1      10.241  12.996  19.246  0.00  0.00    +0.000 A 
ATOM     25  C   UNL     1      10.335  12.121  20.338  0.00  0.00    +0.000 A 
ATOM     26  C   UNL     1       9.852  10.816  20.266  0.00  0.00    +0.000 A 
ATOM     27  C   UNL     1       9.269  10.334  19.091  0.00  0.00    +0.000 A 
ATOM     28  C   UNL     1       9.158  11.188  17.995  0.00  0.00    +0.000 A 
ATOM     29  C   UNL     1       9.640  12.500  18.072  0.00  0.00    +0.000 A 
BRANCH  24  31
ATOM     30  C   UNL     1      12.202  14.585  18.746  0.00  0.00    +0.000 C 
ATOM     31  C   UNL     1      10.771  14.439  19.312  0.00  0.00    +0.000 C 
ATOM     32  C   UNL     1      10.808  14.923  20.776  0.00  0.00    +0.000 C 
ATOM     33  C   UNL     1       9.854  15.375  18.496  0.00  0.00    +0.000 C 
ENDBRANCH  24  31
ENDBRANCH  23  27
ENDBRANCH  22  23
ENDBRANCH  20  22
ENDBRANCH  18  20
ENDBRANCH   1  18
TORSDOF 11
ENDMDL
MODEL 3
REMARK VINA RESULT:      -7.9      5.142      8.249
REMARK  Name = 
REMARK  15 active torsions:
REMARK  status: ('A' for Active; 'I' for Inactive)
REMARK    1  A    between atoms: C_1  and  C_2
REMARK    2  A    between atoms: C_2  and  C_3
REMARK    3  A    between atoms: C_2  and  C_4
REMARK    4  A    between atoms: C_2  and  C_5
REMARK    5  A    between atoms: C_8  and  C_9
REMARK    6  A    between atoms: C_9  and  C_10
REMARK    7  A    between atoms: C_10  and  C_11
REMARK    8  A    between atoms: C_11  and  N_13
REMARK    9  A    between atoms: N_13  and  C_14
REMARK   10  A    between atoms: C_14  and  C_15
REMARK   11  A    between atoms: C_18  and  N_19
REMARK   12  A    between atoms: N_19  and  S_20
REMARK   13  A    between atoms: S_20  and  C_21
REMARK   14  A    between atoms: C_24  and  C_25
REMARK   15  A    between atoms: C_25  and  O_27
REMARK                            x       y       z     vdW  Elec       q    Type
REMARK                         _______ _______ _______ _____ _____    ______ ____
ROOT
ATOM      1  C   UNL     1       1.813   6.126  21.144  0.00  0.00    +0.000 C 
ENDROOT
BRANCH   1   2
ATOM      2  C   UNL     1       1.255   7.467  20.751  0.00  0.00    +0.000 A 
ATOM      3  C   UNL     1       0.352   8.133  21.576  0.00  0.00    +0.000 A 
ATOM      4  C   UNL     1      -0.022   9.446  21.289  0.00  0.00    +0.000 A 
ATOM      5  C   UNL     1       0.457  10.111  20.148  0.00  0.00    +0.000 A 
ATOM      6  C   UNL     1       1.304   9.427  19.259  0.00  0.00    +0.000 A 
ATOM      7  C   UNL     1       1.702   8.113  19.590  0.00  0.00    +0.000 A 
BRANCH   5   8
ATOM      8  N   UNL     1       0.238  11.523  20.101  0.00  0.00    +0.000 N 
ATOM      9  H   UNL     1       0.477  12.044  20.950  0.00  0.00    +0.000 HD
BRANCH   8  10
ATOM     10  S   UNL     1      -0.998  12.231  19.226  0.00  0.00    +0.000 S 
ATOM     11  C   UNL     1      -1.839  13.348  20.333  0.00  0.00    +0.000 C 
ATOM     12  O   UNL     1      -0.330  13.021  18.221  0.00  0.00    +0.000 OA
ATOM     13  O   UNL     1      -1.884  11.145  18.868  0.00  0.00    +0.000 OA
ENDBRANCH   8  10
ENDBRANCH   5   8
BRANCH   6  14
ATOM     14  C   UNL     1       1.920   9.963  18.001  0.00  0.00    +0.000 C 
ATOM     15  O   UNL     1       2.222   9.231  17.071  0.00  0.00    +0.000 OA
BRANCH  14  16
ATOM     16  O   UNL     1       2.107  11.291  17.934  0.00  0.00    +0.000 OA
ATOM     17  H   UNL     1       2.525  11.699  18.713  0.00  0.00    +0.000 HD
ENDBRANCH  14  16
ENDBRANCH   6  14
ENDBRANCH   1   2
BRANCH   1  18
ATOM     18  N   UNL     1       1.024   5.031  20.612  0.00  0.00    +0.000 N 
ATOM     19  H   UNL     1       0.072   5.293  20.406  0.00  0.00    +0.000 HD
BRANCH  18  20
ATOM     20  C   UNL     1       1.421   3.726  20.416  0.00  0.00    +0.000 C 
ATOM     21  S   UNL     1       2.095   2.737  21.591  0.00  0.00    +0.000 S 
BRANCH  20  22
ATOM     22  C   UNL     1       1.073   3.122  19.053  0.00  0.00    +0.000 C 
BRANCH  22  23
ATOM     23  C   UNL     1       1.258   4.056  17.860  0.00  0.00    +0.000 C 
BRANCH  23  27
ATOM     24  C   UNL     1       5.425   5.003  17.102  0.00  0.00    +0.000 A 
ATOM     25  C   UNL     1       4.927   3.699  16.967  0.00  0.00    +0.000 A 
ATOM     26  C   UNL     1       3.591   3.402  17.226  0.00  0.00    +0.000 A 
ATOM     27  C   UNL     1       2.699   4.404  17.617  0.00  0.00    +0.000 A 
ATOM     28  C   UNL     1       3.174   5.707  17.767  0.00  0.00    +0.000 A 
ATOM     29  C   UNL     1       4.518   6.001  17.510  0.00  0.00    +0.000 A 
BRANCH  24  31
ATOM     30  C   UNL     1       7.234   6.832  17.077  0.00  0.00    +0.000 C 
ATOM     31  C   UNL     1       6.898   5.345  16.819  0.00  0.00    +0.000 C 
ATOM     32  C   UNL     1       7.235   5.051  15.343  0.00  0.00    +0.000 C 
ATOM     33  C   UNL     1       7.820   4.500  17.723  0.00  0.00    +0.000 C 
ENDBRANCH  24  31
ENDBRANCH  23  27
ENDBRANCH  22  23
ENDBRANCH  20  22
ENDBRANCH  18  20
ENDBRANCH   1  18
TORSDOF 11
ENDMDL
MODEL 4
REMARK VINA RESULT:      -7.8      5.701      9.053
REMARK  Name = 
REMARK  15 active torsions:
REMARK  status: ('A' for Active; 'I' for Inactive)
REMARK    1  A    between atoms: C_1  and  C_2
REMARK    2  A    between atoms: C_2  and  C_3
REMARK    3  A    between atoms: C_2  and  C_4
REMARK    4  A    between atoms: C_2  and  C_5
REMARK    5  A    between atoms: C_8  and  C_9
REMARK    6  A    between atoms: C_9  and  C_10
REMARK    7  A    between atoms: C_10  and  C_11
REMARK    8  A    between atoms: C_11  and  N_13
REMARK    9  A    between atoms: N_13  and  C_14
REMARK   10  A    between atoms: C_14  and  C_15
REMARK   11  A    between atoms: C_18  and  N_19
REMARK   12  A    between atoms: N_19  and  S_20
REMARK   13  A    between atoms: S_20  and  C_21
REMARK   14  A    between atoms: C_24  and  C_25
REMARK   15  A    between atoms: C_25  and  O_27
REMARK                            x       y       z     vdW  Elec       q    Type
REMARK                         _______ _______ _______ _____ _____    ______ ____
ROOT
ATOM      1  C   UNL     1       2.124   5.613  20.034  0.00  0.00    +0.000 C 
ENDROOT
BRANCH   1   2
ATOM      2  C   UNL     1       3.249   5.018  19.230  0.00  0.00    +0.000 A 
ATOM      3  C   UNL     1       2.989   4.128  18.191  0.00  0.00    +0.000 A 
ATOM      4  C   UNL     1       4.020   3.721  17.344  0.00  0.00    +0.000 A 
ATOM      5  C   UNL     1       5.342   4.155  17.539  0.00  0.00    +0.000 A 
ATOM      6  C   UNL     1       5.638   4.988  18.631  0.00  0.00    +0.000 A 
ATOM      7  C   UNL     1       4.573   5.419  19.452  0.00  0.00    +0.000 A 
BRANCH   5   8
ATOM      8  N   UNL     1       6.253   3.908  16.464  0.00  0.00    +0.000 N 
ATOM      9  H   UNL     1       7.151   3.489  16.723  0.00  0.00    +0.000 HD
BRANCH   8  10
ATOM     10  S   UNL     1       6.349   4.873  15.104  0.00  0.00    +0.000 S 
ATOM     11  C   UNL     1       5.264   6.262  15.380  0.00  0.00    +0.000 C 
ATOM     12  O   UNL     1       7.705   5.365  15.097  0.00  0.00    +0.000 OA
ATOM     13  O   UNL     1       5.833   4.064  14.022  0.00  0.00    +0.000 OA
ENDBRANCH   8  10
ENDBRANCH   5   8
BRANCH   6  14
ATOM     14  C   UNL     1       6.976   5.555  19.001  0.00  0.00    +0.000 C 
ATOM     15  O   UNL     1       7.470   5.371  20.102  0.00  0.00    +0.000 OA
BRANCH  14  16
ATOM     16  O   UNL     1       7.617   6.264  18.057  0.00  0.00    +0.000 OA
ATOM     17  H   UNL     1       7.808   7.191  18.281  0.00  0.00    +0.000 HD
ENDBRANCH  14  16
ENDBRANCH   6  14
ENDBRANCH   1   2
BRANCH   1  18
ATOM     18  N   UNL     1       2.390   6.989  20.408  0.00  0.00    +0.000 N 
ATOM     19  H   UNL     1       3.209   7.090  20.988  0.00  0.00    +0.000 HD
BRANCH  18  20
ATOM     20  C   UNL     1       1.643   8.104  20.098  0.00  0.00    +0.000 C 
ATOM     21  S   UNL     1       1.758   8.973  18.668  0.00  0.00    +0.000 S 
BRANCH  20  22
ATOM     22  C   UNL     1       0.535   8.461  21.092  0.00  0.00    +0.000 C 
BRANCH  22  23
ATOM     23  C   UNL     1       0.804   9.691  21.954  0.00  0.00    +0.000 C 
BRANCH  23  27
ATOM     24  C   UNL     1      -2.573  12.417  21.960  0.00  0.00    +0.000 A 
ATOM     25  C   UNL     1      -1.820  12.176  20.802  0.00  0.00    +0.000 A 
ATOM     26  C   UNL     1      -0.728  11.310  20.813  0.00  0.00    +0.000 A 
ATOM     27  C   UNL     1      -0.359  10.641  21.983  0.00  0.00    +0.000 A 
ATOM     28  C   UNL     1      -1.088  10.871  23.149  0.00  0.00    +0.000 A 
ATOM     29  C   UNL     1      -2.181  11.746  23.136  0.00  0.00    +0.000 A 
BRANCH  24  31
ATOM     30  C   UNL     1      -3.390  14.842  21.690  0.00  0.00    +0.000 C 
ATOM     31  C   UNL     1      -3.780  13.371  21.962  0.00  0.00    +0.000 C 
ATOM     32  C   UNL     1      -4.482  13.332  23.335  0.00  0.00    +0.000 C 
ATOM     33  C   UNL     1      -4.787  12.950  20.871  0.00  0.00    +0.000 C 
ENDBRANCH  24  31
ENDBRANCH  23  27
ENDBRANCH  22  23
ENDBRANCH  20  22
ENDBRANCH  18  20
ENDBRANCH   1  18
TORSDOF 11
ENDMDL
MODEL 5
REMARK VINA RESULT:      -7.8      5.940      8.836
REMARK  Name = 
REMARK  15 active torsions:
REMARK  status: ('A' for Active; 'I' for Inactive)
REMARK    1  A    between atoms: C_1  and  C_2
REMARK    2  A    between atoms: C_2  and  C_3
REMARK    3  A    between atoms: C_2  and  C_4
REMARK    4  A    between atoms: C_2  and  C_5
REMARK    5  A    between atoms: C_8  and  C_9
REMARK    6  A    between atoms: C_9  and  C_10
REMARK    7  A    between atoms: C_10  and  C_11
REMARK    8  A    between atoms: C_11  and  N_13
REMARK    9  A    between atoms: N_13  and  C_14
REMARK   10  A    between atoms: C_14  and  C_15
REMARK   11  A    between atoms: C_18  and  N_19
REMARK   12  A    between atoms: N_19  and  S_20
REMARK   13  A    between atoms: S_20  and  C_21
REMARK   14  A    between atoms: C_24  and  C_25
REMARK   15  A    between atoms: C_25  and  O_27
REMARK                            x       y       z     vdW  Elec       q    Type
REMARK                         _______ _______ _______ _____ _____    ______ ____
ROOT
ATOM      1  C   UNL     1       2.116   5.603  20.020  0.00  0.00    +0.000 C 
ENDROOT
BRANCH   1   2
ATOM      2  C   UNL     1       3.111   4.900  19.137  0.00  0.00    +0.000 A 
ATOM      3  C   UNL     1       2.684   4.033  18.133  0.00  0.00    +0.000 A 
ATOM      4  C   UNL     1       3.600   3.525  17.212  0.00  0.00    +0.000 A 
ATOM      5  C   UNL     1       4.969   3.831  17.294  0.00  0.00    +0.000 A 
ATOM      6  C   UNL     1       5.430   4.637  18.348  0.00  0.00    +0.000 A 
ATOM      7  C   UNL     1       4.481   5.174  19.247  0.00  0.00    +0.000 A 
BRANCH   5   8
ATOM      8  N   UNL     1       5.762   3.492  16.154  0.00  0.00    +0.000 N 
ATOM      9  H   UNL     1       6.434   2.730  16.284  0.00  0.00    +0.000 HD
BRANCH   8  10
ATOM     10  S   UNL     1       6.253   4.611  15.013  0.00  0.00    +0.000 S 
ATOM     11  C   UNL     1       6.105   3.821  13.420  0.00  0.00    +0.000 C 
ATOM     12  O   UNL     1       5.266   5.660  15.080  0.00  0.00    +0.000 OA
ATOM     13  O   UNL     1       7.648   4.864  15.300  0.00  0.00    +0.000 OA
ENDBRANCH   8  10
ENDBRANCH   5   8
BRANCH   6  14
ATOM     14  C   UNL     1       6.841   5.077  18.602  0.00  0.00    +0.000 C 
ATOM     15  O   UNL     1       7.097   6.165  19.094  0.00  0.00    +0.000 OA
BRANCH  14  16
ATOM     16  O   UNL     1       7.815   4.209  18.281  0.00  0.00    +0.000 OA
ATOM     17  H   UNL     1       7.822   3.376  18.785  0.00  0.00    +0.000 HD
ENDBRANCH  14  16
ENDBRANCH   6  14
ENDBRANCH   1   2
BRANCH   1  18
ATOM     18  N   UNL     1       2.431   7.010  20.181  0.00  0.00    +0.000 N 
ATOM     19  H   UNL     1       2.859   7.221  21.069  0.00  0.00    +0.000 HD
BRANCH  18  20
ATOM     20  C   UNL     1       2.172   8.035  19.297  0.00  0.00    +0.000 C 
ATOM     21  S   UNL     1       2.735   8.114  17.719  0.00  0.00    +0.000 S 
BRANCH  20  22
ATOM     22  C   UNL     1       1.174   9.092  19.778  0.00  0.00    +0.000 C 
BRANCH  22  23
ATOM     23  C   UNL     1       0.895   9.090  21.279  0.00  0.00    +0.000 C 
BRANCH  23  27
ATOM     24  C   UNL     1      -2.110  12.033  22.350  0.00  0.00    +0.000 A 
ATOM     25  C   UNL     1      -1.617  11.922  21.042  0.00  0.00    +0.000 A 
ATOM     26  C   UNL     1      -0.642  10.984  20.710  0.00  0.00    +0.000 A 
ATOM     27  C   UNL     1      -0.134  10.110  21.676  0.00  0.00    +0.000 A 
ATOM     28  C   UNL     1      -0.603  10.207  22.985  0.00  0.00    +0.000 A 
ATOM     29  C   UNL     1      -1.580  11.154  23.316  0.00  0.00    +0.000 A 
BRANCH  24  31
ATOM     30  C   UNL     1      -3.574  13.012  24.226  0.00  0.00    +0.000 C 
ATOM     31  C   UNL     1      -3.186  13.065  22.730  0.00  0.00    +0.000 C 
ATOM     32  C   UNL     1      -4.472  12.811  21.917  0.00  0.00    +0.000 C 
ATOM     33  C   UNL     1      -2.678  14.491  22.434  0.00  0.00    +0.000 C 
ENDBRANCH  24  31
ENDBRANCH  23  27
ENDBRANCH  22  23
ENDBRANCH  20  22
ENDBRANCH  18  20
ENDBRANCH   1  18
TORSDOF 11
ENDMDL
MODEL 6
REMARK VINA RESULT:      -7.5      5.538      8.469
REMARK  Name = 
REMARK  15 active torsions:
REMARK  status: ('A' for Active; 'I' for Inactive)
REMARK    1  A    between atoms: C_1  and  C_2
REMARK    2  A    between atoms: C_2  and  C_3
REMARK    3  A    between atoms: C_2  and  C_4
REMARK    4  A    between atoms: C_2  and  C_5
REMARK    5  A    between atoms: C_8  and  C_9
REMARK    6  A    between atoms: C_9  and  C_10
REMARK    7  A    between atoms: C_10  and  C_11
REMARK    8  A    between atoms: C_11  and  N_13
REMARK    9  A    between atoms: N_13  and  C_14
REMARK   10  A    between atoms: C_14  and  C_15
REMARK   11  A    between atoms: C_18  and  N_19
REMARK   12  A    between atoms: N_19  and  S_20
REMARK   13  A    between atoms: S_20  and  C_21
REMARK   14  A    between atoms: C_24  and  C_25
REMARK   15  A    between atoms: C_25  and  O_27
REMARK                            x       y       z     vdW  Elec       q    Type
REMARK                         _______ _______ _______ _____ _____    ______ ____
ROOT
ATOM      1  C   UNL     1       2.847   4.472  20.211  0.00  0.00    +0.000 C 
ENDROOT
BRANCH   1   2
ATOM      2  C   UNL     1       4.042   4.285  19.315  0.00  0.00    +0.000 A 
ATOM      3  C   UNL     1       3.955   3.503  18.165  0.00  0.00    +0.000 A 
ATOM      4  C   UNL     1       5.011   3.478  17.254  0.00  0.00    +0.000 A 
ATOM      5  C   UNL     1       6.196   4.194  17.488  0.00  0.00    +0.000 A 
ATOM      6  C   UNL     1       6.336   4.923  18.681  0.00  0.00    +0.000 A 
ATOM      7  C   UNL     1       5.239   4.967  19.570  0.00  0.00    +0.000 A 
BRANCH   5   8
ATOM      8  N   UNL     1       7.086   4.323  16.375  0.00  0.00    +0.000 N 
ATOM      9  H   UNL     1       8.084   4.367  16.601  0.00  0.00    +0.000 HD
BRANCH   8  10
ATOM     10  S   UNL     1       6.694   5.152  14.978  0.00  0.00    +0.000 S 
ATOM     11  C   UNL     1       5.978   3.962  13.858  0.00  0.00    +0.000 C 
ATOM     12  O   UNL     1       5.653   6.068  15.375  0.00  0.00    +0.000 OA
ATOM     13  O   UNL     1       7.953   5.622  14.445  0.00  0.00    +0.000 OA
ENDBRANCH   8  10
ENDBRANCH   5   8
BRANCH   6  14
ATOM     14  C   UNL     1       7.512   5.749  19.106  0.00  0.00    +0.000 C 
ATOM     15  O   UNL     1       7.991   6.607  18.381  0.00  0.00    +0.000 OA
BRANCH  14  16
ATOM     16  O   UNL     1       8.007   5.515  20.333  0.00  0.00    +0.000 OA
ATOM     17  H   UNL     1       8.859   5.046  20.363  0.00  0.00    +0.000 HD
ENDBRANCH  14  16
ENDBRANCH   6  14
ENDBRANCH   1   2
BRANCH   1  18
ATOM     18  N   UNL     1       1.861   5.358  19.623  0.00  0.00    +0.000 N 
ATOM     19  H   UNL     1       1.153   4.869  19.097  0.00  0.00    +0.000 HD
BRANCH  18  20
ATOM     20  C   UNL     1       1.829   6.735  19.678  0.00  0.00    +0.000 C 
ATOM     21  S   UNL     1       2.494   7.760  18.528  0.00  0.00    +0.000 S 
BRANCH  20  22
ATOM     22  C   UNL     1       0.992   7.337  20.808  0.00  0.00    +0.000 C 
BRANCH  22  23
ATOM     23  C   UNL     1       1.642   8.501  21.552  0.00  0.00    +0.000 C 
BRANCH  23  27
ATOM     24  C   UNL     1      -1.144  11.701  22.466  0.00  0.00    +0.000 A 
ATOM     25  C   UNL     1      -1.046  10.554  23.268  0.00  0.00    +0.000 A 
ATOM     26  C   UNL     1      -0.159   9.525  22.958  0.00  0.00    +0.000 A 
ATOM     27  C   UNL     1       0.676   9.614  21.841  0.00  0.00    +0.000 A 
ATOM     28  C   UNL     1       0.590  10.741  21.024  0.00  0.00    +0.000 A 
ATOM     29  C   UNL     1      -0.306  11.771  21.335  0.00  0.00    +0.000 A 
BRANCH  24  31
ATOM     30  C   UNL     1      -1.481  13.952  23.665  0.00  0.00    +0.000 C 
ATOM     31  C   UNL     1      -2.119  12.844  22.796  0.00  0.00    +0.000 C 
ATOM     32  C   UNL     1      -3.332  12.296  23.575  0.00  0.00    +0.000 C 
ATOM     33  C   UNL     1      -2.615  13.507  21.494  0.00  0.00    +0.000 C 
ENDBRANCH  24  31
ENDBRANCH  23  27
ENDBRANCH  22  23
ENDBRANCH  20  22
ENDBRANCH  18  20
ENDBRANCH   1  18
TORSDOF 11
ENDMDL
MODEL 7
REMARK VINA RESULT:      -7.5      0.957      1.151
REMARK  Name = 
REMARK  15 active torsions:
REMARK  status: ('A' for Active; 'I' for Inactive)
REMARK    1  A    between atoms: C_1  and  C_2
REMARK    2  A    between atoms: C_2  and  C_3
REMARK    3  A    between atoms: C_2  and  C_4
REMARK    4  A    between atoms: C_2  and  C_5
REMARK    5  A    between atoms: C_8  and  C_9
REMARK    6  A    between atoms: C_9  and  C_10
REMARK    7  A    between atoms: C_10  and  C_11
REMARK    8  A    between atoms: C_11  and  N_13
REMARK    9  A    between atoms: N_13  and  C_14
REMARK   10  A    between atoms: C_14  and  C_15
REMARK   11  A    between atoms: C_18  and  N_19
REMARK   12  A    between atoms: N_19  and  S_20
REMARK   13  A    between atoms: S_20  and  C_21
REMARK   14  A    between atoms: C_24  and  C_25
REMARK   15  A    between atoms: C_25  and  O_27
REMARK                            x       y       z     vdW  Elec       q    Type
REMARK                         _______ _______ _______ _____ _____    ______ ____
ROOT
ATOM      1  C   UNL     1       6.141   6.280  15.644  0.00  0.00    +0.000 C 
ENDROOT
BRANCH   1   2
ATOM      2  C   UNL     1       4.900   5.892  16.403  0.00  0.00    +0.000 A 
ATOM      3  C   UNL     1       4.507   4.559  16.492  0.00  0.00    +0.000 A 
ATOM      4  C   UNL     1       3.460   4.193  17.338  0.00  0.00    +0.000 A 
ATOM      5  C   UNL     1       2.750   5.151  18.081  0.00  0.00    +0.000 A 
ATOM      6  C   UNL     1       3.078   6.511  17.941  0.00  0.00    +0.000 A 
ATOM      7  C   UNL     1       4.167   6.855  17.110  0.00  0.00    +0.000 A 
BRANCH   5   8
ATOM      8  N   UNL     1       1.898   4.647  19.113  0.00  0.00    +0.000 N 
ATOM      9  H   UNL     1       1.251   5.321  19.532  0.00  0.00    +0.000 HD
BRANCH   8  10
ATOM     10  S   UNL     1       2.355   3.435  20.169  0.00  0.00    +0.000 S 
ATOM     11  C   UNL     1       1.848   1.891  19.432  0.00  0.00    +0.000 C 
ATOM     12  O   UNL     1       3.797   3.473  20.169  0.00  0.00    +0.000 OA
ATOM     13  O   UNL     1       1.592   3.669  21.375  0.00  0.00    +0.000 OA
ENDBRANCH   8  10
ENDBRANCH   5   8
BRANCH   6  14
ATOM     14  C   UNL     1       2.445   7.673  18.647  0.00  0.00    +0.000 C 
ATOM     15  O   UNL     1       2.153   7.623  19.832  0.00  0.00    +0.000 OA
BRANCH  14  16
ATOM     16  O   UNL     1       2.231   8.781  17.919  0.00  0.00    +0.000 OA
ATOM     17  H   UNL     1       1.491   8.736  17.289  0.00  0.00    +0.000 HD
ENDBRANCH  14  16
ENDBRANCH   6  14
ENDBRANCH   1   2
BRANCH   1  18
ATOM     18  N   UNL     1       7.339   6.127  16.447  0.00  0.00    +0.000 N 
ATOM     19  H   UNL     1       8.018   5.508  16.031  0.00  0.00    +0.000 HD
BRANCH  18  20
ATOM     20  C   UNL     1       7.601   6.683  17.680  0.00  0.00    +0.000 C 
ATOM     21  S   UNL     1       7.696   5.830  19.122  0.00  0.00    +0.000 S 
BRANCH  20  22
ATOM     22  C   UNL     1       7.971   8.168  17.676  0.00  0.00    +0.000 C 
BRANCH  22  23
ATOM     23  C   UNL     1       8.605   8.687  18.963  0.00  0.00    +0.000 C 
BRANCH  23  27
ATOM     24  C   UNL     1      10.037  12.772  18.647  0.00  0.00    +0.000 A 
ATOM     25  C   UNL     1      10.490  11.905  19.653  0.00  0.00    +0.000 A 
ATOM     26  C   UNL     1      10.014  10.600  19.755  0.00  0.00    +0.000 A 
ATOM     27  C   UNL     1       9.076  10.109  18.843  0.00  0.00    +0.000 A 
ATOM     28  C   UNL     1       8.605  10.954  17.840  0.00  0.00    +0.000 A 
ATOM     29  C   UNL     1       9.082  12.267  17.743  0.00  0.00    +0.000 A 
BRANCH  24  31
ATOM     30  C   UNL     1      11.165  14.522  17.136  0.00  0.00    +0.000 C 
ATOM     31  C   UNL     1      10.554  14.215  18.523  0.00  0.00    +0.000 C 
ATOM     32  C   UNL     1      11.654  14.475  19.572  0.00  0.00    +0.000 C 
ATOM     33  C   UNL     1       9.398  15.212  18.748  0.00  0.00    +0.000 C 
ENDBRANCH  24  31
ENDBRANCH  23  27
ENDBRANCH  22  23
ENDBRANCH  20  22
ENDBRANCH  18  20
ENDBRANCH   1  18
TORSDOF 11
ENDMDL
MODEL 8
REMARK VINA RESULT:      -7.5      5.305      8.124
REMARK  Name = 
REMARK  15 active torsions:
REMARK  status: ('A' for Active; 'I' for Inactive)
REMARK    1  A    between atoms: C_1  and  C_2
REMARK    2  A    between atoms: C_2  and  C_3
REMARK    3  A    between atoms: C_2  and  C_4
REMARK    4  A    between atoms: C_2  and  C_5
REMARK    5  A    between atoms: C_8  and  C_9
REMARK    6  A    between atoms: C_9  and  C_10
REMARK    7  A    between atoms: C_10  and  C_11
REMARK    8  A    between atoms: C_11  and  N_13
REMARK    9  A    between atoms: N_13  and  C_14
REMARK   10  A    between atoms: C_14  and  C_15
REMARK   11  A    between atoms: C_18  and  N_19
REMARK   12  A    between atoms: N_19  and  S_20
REMARK   13  A    between atoms: S_20  and  C_21
REMARK   14  A    between atoms: C_24  and  C_25
REMARK   15  A    between atoms: C_25  and  O_27
REMARK                            x       y       z     vdW  Elec       q    Type
REMARK                         _______ _______ _______ _____ _____    ______ ____
ROOT
ATOM      1  C   UNL     1       2.144   5.689  20.850  0.00  0.00    +0.000 C 
ENDROOT
BRANCH   1   2
ATOM      2  C   UNL     1       1.868   7.112  20.448  0.00  0.00    +0.000 A 
ATOM      3  C   UNL     1       2.178   7.564  19.167  0.00  0.00    +0.000 A 
ATOM      4  C   UNL     1       1.760   8.828  18.750  0.00  0.00    +0.000 A 
ATOM      5  C   UNL     1       1.064   9.690  19.613  0.00  0.00    +0.000 A 
ATOM      6  C   UNL     1       0.814   9.285  20.936  0.00  0.00    +0.000 A 
ATOM      7  C   UNL     1       1.210   7.986  21.324  0.00  0.00    +0.000 A 
BRANCH   5   8
ATOM      8  N   UNL     1       0.446  10.829  19.006  0.00  0.00    +0.000 N 
ATOM      9  H   UNL     1      -0.109  10.645  18.166  0.00  0.00    +0.000 HD
BRANCH   8  10
ATOM     10  S   UNL     1       1.124  12.356  19.022  0.00  0.00    +0.000 S 
ATOM     11  C   UNL     1      -0.104  13.471  18.364  0.00  0.00    +0.000 C 
ATOM     12  O   UNL     1       1.300  12.666  20.419  0.00  0.00    +0.000 OA
ATOM     13  O   UNL     1       2.249  12.286  18.115  0.00  0.00    +0.000 OA
ENDBRANCH   8  10
ENDBRANCH   5   8
BRANCH   6  14
ATOM     14  C   UNL     1       0.087  10.055  21.997  0.00  0.00    +0.000 C 
ATOM     15  O   UNL     1       0.397   9.973  23.176  0.00  0.00    +0.000 OA
BRANCH  14  16
ATOM     16  O   UNL     1      -0.911  10.856  21.591  0.00  0.00    +0.000 OA
ATOM     17  H   UNL     1      -0.693  11.802  21.522  0.00  0.00    +0.000 HD
ENDBRANCH  14  16
ENDBRANCH   6  14
ENDBRANCH   1   2
BRANCH   1  18
ATOM     18  N   UNL     1       1.168   4.769  20.298  0.00  0.00    +0.000 N 
ATOM     19  H   UNL     1       0.275   5.201  20.115  0.00  0.00    +0.000 HD
BRANCH  18  20
ATOM     20  C   UNL     1       1.326   3.421  20.057  0.00  0.00    +0.000 C 
ATOM     21  S   UNL     1       0.498   2.548  18.888  0.00  0.00    +0.000 S 
BRANCH  20  22
ATOM     22  C   UNL     1       2.451   2.733  20.833  0.00  0.00    +0.000 C 
BRANCH  22  23
ATOM     23  C   UNL     1       3.517   2.058  19.975  0.00  0.00    +0.000 C 
BRANCH  23  27
ATOM     24  C   UNL     1       5.480   4.819  17.262  0.00  0.00    +0.000 A 
ATOM     25  C   UNL     1       5.606   4.936  18.654  0.00  0.00    +0.000 A 
ATOM     26  C   UNL     1       4.960   4.053  19.517  0.00  0.00    +0.000 A 
ATOM     27  C   UNL     1       4.176   3.011  19.017  0.00  0.00    +0.000 A 
ATOM     28  C   UNL     1       4.030   2.880  17.637  0.00  0.00    +0.000 A 
ATOM     29  C   UNL     1       4.676   3.771  16.772  0.00  0.00    +0.000 A 
BRANCH  24  31
ATOM     30  C   UNL     1       7.236   6.681  16.998  0.00  0.00    +0.000 C 
ATOM     31  C   UNL     1       6.188   5.787  16.297  0.00  0.00    +0.000 C 
ATOM     32  C   UNL     1       5.156   6.725  15.639  0.00  0.00    +0.000 C 
ATOM     33  C   UNL     1       6.920   4.992  15.195  0.00  0.00    +0.000 C 
ENDBRANCH  24  31
ENDBRANCH  23  27
ENDBRANCH  22  23
ENDBRANCH  20  22
ENDBRANCH  18  20
ENDBRANCH   1  18
TORSDOF 11
ENDMDL
MODEL 9
REMARK VINA RESULT:      -7.5      4.721     10.546
REMARK  Name = 
REMARK  15 active torsions:
REMARK  status: ('A' for Active; 'I' for Inactive)
REMARK    1  A    between atoms: C_1  and  C_2
REMARK    2  A    between atoms: C_2  and  C_3
REMARK    3  A    between atoms: C_2  and  C_4
REMARK    4  A    between atoms: C_2  and  C_5
REMARK    5  A    between atoms: C_8  and  C_9
REMARK    6  A    between atoms: C_9  and  C_10
REMARK    7  A    between atoms: C_10  and  C_11
REMARK    8  A    between atoms: C_11  and  N_13
REMARK    9  A    between atoms: N_13  and  C_14
REMARK   10  A    between atoms: C_14  and  C_15
REMARK   11  A    between atoms: C_18  and  N_19
REMARK   12  A    between atoms: N_19  and  S_20
REMARK   13  A    between atoms: S_20  and  C_21
REMARK   14  A    between atoms: C_24  and  C_25
REMARK   15  A    between atoms: C_25  and  O_27
REMARK                            x       y       z     vdW  Elec       q    Type
REMARK                         _______ _______ _______ _____ _____    ______ ____
ROOT
ATOM      1  C   UNL     1       8.533   8.792  18.487  0.00  0.00    +0.000 C 
ENDROOT
BRANCH   1   2
ATOM      2  C   UNL     1       8.787  10.210  18.051  0.00  0.00    +0.000 A 
ATOM      3  C   UNL     1       7.747  11.008  17.579  0.00  0.00    +0.000 A 
ATOM      4  C   UNL     1       7.959  12.367  17.344  0.00  0.00    +0.000 A 
ATOM      5  C   UNL     1       9.222  12.953  17.529  0.00  0.00    +0.000 A 
ATOM      6  C   UNL     1      10.303  12.148  17.925  0.00  0.00    +0.000 A 
ATOM      7  C   UNL     1      10.058  10.784  18.196  0.00  0.00    +0.000 A 
BRANCH   5   8
ATOM      8  N   UNL     1       9.260  14.383  17.531  0.00  0.00    +0.000 N 
ATOM      9  H   UNL     1       9.950  14.816  16.910  0.00  0.00    +0.000 HD
BRANCH   8  10
ATOM     10  S   UNL     1       8.925  15.307  18.883  0.00  0.00    +0.000 S 
ATOM     11  C   UNL     1       7.686  16.496  18.401  0.00  0.00    +0.000 C 
ATOM     12  O   UNL     1       8.320  14.388  19.815  0.00  0.00    +0.000 OA
ATOM     13  O   UNL     1      10.160  15.994  19.193  0.00  0.00    +0.000 OA
ENDBRANCH   8  10
ENDBRANCH   5   8
BRANCH   6  14
ATOM     14  C   UNL     1      11.714  12.586  18.178  0.00  0.00    +0.000 C 
ATOM     15  O   UNL     1      12.273  13.400  17.459  0.00  0.00    +0.000 OA
BRANCH  14  16
ATOM     16  O   UNL     1      12.333  12.055  19.245  0.00  0.00    +0.000 OA
ATOM     17  H   UNL     1      12.440  11.088  19.234  0.00  0.00    +0.000 HD
ENDBRANCH  14  16
ENDBRANCH   6  14
ENDBRANCH   1   2
BRANCH   1  18
ATOM     18  N   UNL     1       7.699   8.073  17.543  0.00  0.00    +0.000 N 
ATOM     19  H   UNL     1       7.267   8.675  16.858  0.00  0.00    +0.000 HD
BRANCH  18  20
ATOM     20  C   UNL     1       7.422   6.724  17.523  0.00  0.00    +0.000 C 
ATOM     21  S   UNL     1       7.542   5.697  18.844  0.00  0.00    +0.000 S 
BRANCH  20  22
ATOM     22  C   UNL     1       6.826   6.185  16.221  0.00  0.00    +0.000 C 
BRANCH  22  23
ATOM     23  C   UNL     1       5.347   6.492  16.005  0.00  0.00    +0.000 C 
BRANCH  23  27
ATOM     24  C   UNL     1       2.710   4.242  18.617  0.00  0.00    +0.000 A 
ATOM     25  C   UNL     1       2.726   5.644  18.612  0.00  0.00    +0.000 A 
ATOM     26  C   UNL     1       3.586   6.358  17.781  0.00  0.00    +0.000 A 
ATOM     27  C   UNL     1       4.453   5.692  16.911  0.00  0.00    +0.000 A 
ATOM     28  C   UNL     1       4.462   4.298  16.904  0.00  0.00    +0.000 A 
ATOM     29  C   UNL     1       3.599   3.584  17.744  0.00  0.00    +0.000 A 
BRANCH  24  31
ATOM     30  C   UNL     1       0.678   2.669  18.748  0.00  0.00    +0.000 C 
ATOM     31  C   UNL     1       1.766   3.441  19.530  0.00  0.00    +0.000 C 
ATOM     32  C   UNL     1       1.038   4.392  20.502  0.00  0.00    +0.000 C 
ATOM     33  C   UNL     1       2.570   2.407  20.346  0.00  0.00    +0.000 C 
ENDBRANCH  24  31
ENDBRANCH  23  27
ENDBRANCH  22  23
ENDBRANCH  20  22
ENDBRANCH  18  20
ENDBRANCH   1  18
TORSDOF 11
ENDMDL
