MODEL 1
REMARK VINA RESULT:      -8.7      0.000      0.000
REMARK  Name = 
REMARK  3 active torsions:
REMARK  status: ('A' for Active; 'I' for Inactive)
REMARK    1  A    between atoms: C_1  and  N_2
REMARK    2  A    between atoms: C_4  and  C_5
REMARK    3  A    between atoms: C_10  and  C_11
REMARK                            x       y       z     vdW  Elec       q    Type
REMARK                         _______ _______ _______ _____ _____    ______ ____
ROOT
ATOM      1  C   UNL     1       5.748   4.061  13.797  0.00  0.00    +0.000 C 
ATOM      2  N   UNL     1       5.768   4.364  15.214  0.00  0.00    +0.000 N 
ATOM      3  C   UNL     1       4.742   3.897  16.044  0.00  0.00    +0.000 A 
ATOM      4  C   UNL     1       4.748   4.080  17.386  0.00  0.00    +0.000 A 
ATOM      5  C   UNL     1       5.853   4.793  17.964  0.00  0.00    +0.000 A 
ATOM      6  C   UNL     1       6.149   5.198  19.282  0.00  0.00    +0.000 A 
ATOM      7  C   UNL     1       7.325   5.922  19.219  0.00  0.00    +0.000 A 
ATOM      8  N   UNL     1       7.738   5.961  17.908  0.00  0.00    +0.000 N 
ATOM      9  C   UNL     1       6.837   5.281  17.134  0.00  0.00    +0.000 A 
ATOM     10  C   UNL     1       6.872   5.095  15.702  0.00  0.00    +0.000 A 
ATOM     11  O   UNL     1       7.775   5.526  14.999  0.00  0.00    +0.000 OA
ATOM     12  H   UNL     1       8.565   6.427  17.552  0.00  0.00    +0.000 HD
ENDROOT
BRANCH   4  13
ATOM     13  C   UNL     1       3.619   3.507  18.162  0.00  0.00    +0.000 A 
ATOM     14  C   UNL     1       3.603   2.097  18.241  0.00  0.00    +0.000 A 
ATOM     15  C   UNL     1       2.568   1.419  18.878  0.00  0.00    +0.000 A 
ATOM     16  C   UNL     1       1.538   2.139  19.462  0.00  0.00    +0.000 A 
ATOM     17  C   UNL     1       1.555   3.536  19.417  0.00  0.00    +0.000 A 
ATOM     18  C   UNL     1       2.577   4.267  18.763  0.00  0.00    +0.000 A 
BRANCH  18  19
ATOM     19  C   UNL     1       2.492   5.759  18.738  0.00  0.00    +0.000 A 
ATOM     20  C   UNL     1       2.816   6.519  17.601  0.00  0.00    +0.000 A 
ATOM     21  C   UNL     1       2.703   7.911  17.569  0.00  0.00    +0.000 A 
ATOM     22  C   UNL     1       2.313   8.597  18.705  0.00  0.00    +0.000 A 
ATOM     23  C   UNL     1       2.029   7.889  19.868  0.00  0.00    +0.000 A 
ATOM     24  C   UNL     1       2.103   6.492  19.876  0.00  0.00    +0.000 A 
ENDBRANCH  18  19
ENDBRANCH   4  13
TORSDOF 2
ENDMDL
MODEL 2
REMARK VINA RESULT:      -8.4      2.458      5.379
REMARK  Name = 
REMARK  3 active torsions:
REMARK  status: ('A' for Active; 'I' for Inactive)
REMARK    1  A    between atoms: C_1  and  N_2
REMARK    2  A    between atoms: C_4  and  C_5
REMARK    3  A    between atoms: C_10  and  C_11
REMARK                            x       y       z     vdW  Elec       q    Type
REMARK                         _______ _______ _______ _____ _____    ______ ____
ROOT
ATOM      1  C   UNL     1       2.749   1.793  18.907  0.00  0.00    +0.000 C 
ATOM      2  N   UNL     1       3.102   3.119  18.442  0.00  0.00    +0.000 N 
ATOM      3  C   UNL     1       4.001   3.272  17.380  0.00  0.00    +0.000 A 
ATOM      4  C   UNL     1       4.308   4.480  16.850  0.00  0.00    +0.000 A 
ATOM      5  C   UNL     1       3.683   5.642  17.418  0.00  0.00    +0.000 A 
ATOM      6  C   UNL     1       3.807   7.023  17.154  0.00  0.00    +0.000 A 
ATOM      7  C   UNL     1       3.008   7.674  18.075  0.00  0.00    +0.000 A 
ATOM      8  N   UNL     1       2.413   6.728  18.877  0.00  0.00    +0.000 N 
ATOM      9  C   UNL     1       2.830   5.484  18.487  0.00  0.00    +0.000 A 
ATOM     10  C   UNL     1       2.470   4.214  19.070  0.00  0.00    +0.000 A 
ATOM     11  O   UNL     1       1.690   4.110  20.007  0.00  0.00    +0.000 OA
ATOM     12  H   UNL     1       1.779   6.906  19.647  0.00  0.00    +0.000 HD
ENDROOT
BRANCH   4  13
ATOM     13  C   UNL     1       5.250   4.507  15.703  0.00  0.00    +0.000 A 
ATOM     14  C   UNL     1       4.779   3.883  14.527  0.00  0.00    +0.000 A 
ATOM     15  C   UNL     1       5.580   3.773  13.394  0.00  0.00    +0.000 A 
ATOM     16  C   UNL     1       6.862   4.299  13.411  0.00  0.00    +0.000 A 
ATOM     17  C   UNL     1       7.332   4.945  14.559  0.00  0.00    +0.000 A 
ATOM     18  C   UNL     1       6.559   5.063  15.739  0.00  0.00    +0.000 A 
BRANCH  18  19
ATOM     19  C   UNL     1       7.160   5.742  16.928  0.00  0.00    +0.000 A 
ATOM     20  C   UNL     1       7.457   7.115  16.948  0.00  0.00    +0.000 A 
ATOM     21  C   UNL     1       7.988   7.755  18.071  0.00  0.00    +0.000 A 
ATOM     22  C   UNL     1       8.295   7.020  19.202  0.00  0.00    +0.000 A 
ATOM     23  C   UNL     1       8.063   5.648  19.209  0.00  0.00    +0.000 A 
ATOM     24  C   UNL     1       7.490   5.026  18.095  0.00  0.00    +0.000 A 
ENDBRANCH  18  19
ENDBRANCH   4  13
TORSDOF 2
ENDMDL
MODEL 3
REMARK VINA RESULT:      -8.2      2.625      5.437
REMARK  Name = 
REMARK  3 active torsions:
REMARK  status: ('A' for Active; 'I' for Inactive)
REMARK    1  A    between atoms: C_1  and  N_2
REMARK    2  A    between atoms: C_4  and  C_5
REMARK    3  A    between atoms: C_10  and  C_11
REMARK                            x       y       z     vdW  Elec       q    Type
REMARK                         _______ _______ _______ _____ _____    ______ ____
ROOT
ATOM      1  C   UNL     1       3.492   2.458  20.225  0.00  0.00    +0.000 C 
ATOM      2  N   UNL     1       3.582   3.688  19.465  0.00  0.00    +0.000 N 
ATOM      3  C   UNL     1       4.342   3.731  18.290  0.00  0.00    +0.000 A 
ATOM      4  C   UNL     1       4.399   4.828  17.497  0.00  0.00    +0.000 A 
ATOM      5  C   UNL     1       3.651   5.987  17.895  0.00  0.00    +0.000 A 
ATOM      6  C   UNL     1       3.526   7.281  17.349  0.00  0.00    +0.000 A 
ATOM      7  C   UNL     1       2.721   7.999  18.214  0.00  0.00    +0.000 A 
ATOM      8  N   UNL     1       2.363   7.175  19.255  0.00  0.00    +0.000 N 
ATOM      9  C   UNL     1       2.937   5.946  19.072  0.00  0.00    +0.000 A 
ATOM     10  C   UNL     1       2.842   4.794  19.936  0.00  0.00    +0.000 A 
ATOM     11  O   UNL     1       2.180   4.788  20.964  0.00  0.00    +0.000 OA
ATOM     12  H   UNL     1       1.783   7.425  20.048  0.00  0.00    +0.000 HD
ENDROOT
BRANCH   4  13
ATOM     13  C   UNL     1       5.215   4.736  16.259  0.00  0.00    +0.000 A 
ATOM     14  C   UNL     1       4.652   3.950  15.229  0.00  0.00    +0.000 A 
ATOM     15  C   UNL     1       5.336   3.721  14.038  0.00  0.00    +0.000 A 
ATOM     16  C   UNL     1       6.586   4.286  13.849  0.00  0.00    +0.000 A 
ATOM     17  C   UNL     1       7.143   5.091  14.848  0.00  0.00    +0.000 A 
ATOM     18  C   UNL     1       6.493   5.336  16.082  0.00  0.00    +0.000 A 
BRANCH  18  19
ATOM     19  C   UNL     1       7.182   6.182  17.103  0.00  0.00    +0.000 A 
ATOM     20  C   UNL     1       7.621   5.675  18.338  0.00  0.00    +0.000 A 
ATOM     21  C   UNL     1       8.295   6.459  19.278  0.00  0.00    +0.000 A 
ATOM     22  C   UNL     1       8.503   7.804  19.031  0.00  0.00    +0.000 A 
ATOM     23  C   UNL     1       8.042   8.360  17.841  0.00  0.00    +0.000 A 
ATOM     24  C   UNL     1       7.407   7.556  16.888  0.00  0.00    +0.000 A 
ENDBRANCH  18  19
ENDBRANCH   4  13
TORSDOF 2
ENDMDL
MODEL 4
REMARK VINA RESULT:      -8.1      1.349      4.321
REMARK  Name = 
REMARK  3 active torsions:
REMARK  status: ('A' for Active; 'I' for Inactive)
REMARK    1  A    between atoms: C_1  and  N_2
REMARK    2  A    between atoms: C_4  and  C_5
REMARK    3  A    between atoms: C_10  and  C_11
REMARK                            x       y       z     vdW  Elec       q    Type
REMARK                         _______ _______ _______ _____ _____    ______ ____
ROOT
ATOM      1  C   UNL     1       7.885   5.412  19.999  0.00  0.00    +0.000 C 
ATOM      2  N   UNL     1       7.052   5.318  18.817  0.00  0.00    +0.000 N 
ATOM      3  C   UNL     1       5.807   5.957  18.786  0.00  0.00    +0.000 A 
ATOM      4  C   UNL     1       5.021   5.971  17.683  0.00  0.00    +0.000 A 
ATOM      5  C   UNL     1       5.494   5.290  16.510  0.00  0.00    +0.000 A 
ATOM      6  C   UNL     1       4.928   5.066  15.238  0.00  0.00    +0.000 A 
ATOM      7  C   UNL     1       5.823   4.278  14.540  0.00  0.00    +0.000 A 
ATOM      8  N   UNL     1       6.902   4.025  15.354  0.00  0.00    +0.000 N 
ATOM      9  C   UNL     1       6.703   4.633  16.564  0.00  0.00    +0.000 A 
ATOM     10  C   UNL     1       7.573   4.606  17.715  0.00  0.00    +0.000 A 
ATOM     11  O   UNL     1       8.651   4.028  17.719  0.00  0.00    +0.000 OA
ATOM     12  H   UNL     1       7.715   3.467  15.119  0.00  0.00    +0.000 HD
ENDROOT
BRANCH   4  13
ATOM     13  C   UNL     1       3.737   6.713  17.766  0.00  0.00    +0.000 A 
ATOM     14  C   UNL     1       3.820   8.088  17.453  0.00  0.00    +0.000 A 
ATOM     15  C   UNL     1       2.709   8.921  17.554  0.00  0.00    +0.000 A 
ATOM     16  C   UNL     1       1.492   8.392  17.952  0.00  0.00    +0.000 A 
ATOM     17  C   UNL     1       1.389   7.026  18.237  0.00  0.00    +0.000 A 
ATOM     18  C   UNL     1       2.496   6.146  18.167  0.00  0.00    +0.000 A 
BRANCH  18  19
ATOM     19  C   UNL     1       2.294   4.708  18.523  0.00  0.00    +0.000 A 
ATOM     20  C   UNL     1       2.332   3.678  17.568  0.00  0.00    +0.000 A 
ATOM     21  C   UNL     1       2.177   2.331  17.907  0.00  0.00    +0.000 A 
ATOM     22  C   UNL     1       1.919   1.975  19.219  0.00  0.00    +0.000 A 
ATOM     23  C   UNL     1       1.826   2.967  20.189  0.00  0.00    +0.000 A 
ATOM     24  C   UNL     1       2.027   4.309  19.847  0.00  0.00    +0.000 A 
ENDBRANCH  18  19
ENDBRANCH   4  13
TORSDOF 2
ENDMDL
MODEL 5
REMARK VINA RESULT:      -8.0      2.491      5.505
REMARK  Name = 
REMARK  3 active torsions:
REMARK  status: ('A' for Active; 'I' for Inactive)
REMARK    1  A    between atoms: C_1  and  N_2
REMARK    2  A    between atoms: C_4  and  C_5
REMARK    3  A    between atoms: C_10  and  C_11
REMARK                            x       y       z     vdW  Elec       q    Type
REMARK                         _______ _______ _______ _____ _____    ______ ____
ROOT
ATOM      1  C   UNL     1       2.525   7.500  18.857  0.00  0.00    +0.000 C 
ATOM      2  N   UNL     1       2.917   6.159  18.472  0.00  0.00    +0.000 N 
ATOM      3  C   UNL     1       3.770   5.965  17.380  0.00  0.00    +0.000 A 
ATOM      4  C   UNL     1       4.233   4.743  17.024  0.00  0.00    +0.000 A 
ATOM      5  C   UNL     1       3.815   3.611  17.802  0.00  0.00    +0.000 A 
ATOM      6  C   UNL     1       4.057   2.226  17.686  0.00  0.00    +0.000 A 
ATOM      7  C   UNL     1       3.327   1.612  18.686  0.00  0.00    +0.000 A 
ATOM      8  N   UNL     1       2.659   2.585  19.393  0.00  0.00    +0.000 N 
ATOM      9  C   UNL     1       2.946   3.808  18.851  0.00  0.00    +0.000 A 
ATOM     10  C   UNL     1       2.441   5.094  19.268  0.00  0.00    +0.000 A 
ATOM     11  O   UNL     1       1.685   5.234  20.220  0.00  0.00    +0.000 OA
ATOM     12  H   UNL     1       2.038   2.436  20.180  0.00  0.00    +0.000 HD
ENDROOT
BRANCH   4  13
ATOM     13  C   UNL     1       5.161   4.673  15.865  0.00  0.00    +0.000 A 
ATOM     14  C   UNL     1       4.641   4.029  14.721  0.00  0.00    +0.000 A 
ATOM     15  C   UNL     1       5.421   3.831  13.585  0.00  0.00    +0.000 A 
ATOM     16  C   UNL     1       6.728   4.288  13.566  0.00  0.00    +0.000 A 
ATOM     17  C   UNL     1       7.247   4.954  14.681  0.00  0.00    +0.000 A 
ATOM     18  C   UNL     1       6.497   5.160  15.865  0.00  0.00    +0.000 A 
BRANCH  18  19
ATOM     19  C   UNL     1       7.149   5.853  17.018  0.00  0.00    +0.000 A 
ATOM     20  C   UNL     1       7.472   7.221  16.997  0.00  0.00    +0.000 A 
ATOM     21  C   UNL     1       8.050   7.875  18.088  0.00  0.00    +0.000 A 
ATOM     22  C   UNL     1       8.381   7.158  19.225  0.00  0.00    +0.000 A 
ATOM     23  C   UNL     1       8.124   5.792  19.270  0.00  0.00    +0.000 A 
ATOM     24  C   UNL     1       7.504   5.156  18.189  0.00  0.00    +0.000 A 
ENDBRANCH  18  19
ENDBRANCH   4  13
TORSDOF 2
ENDMDL
MODEL 6
REMARK VINA RESULT:      -7.8      0.985      1.402
REMARK  Name = 
REMARK  3 active torsions:
REMARK  status: ('A' for Active; 'I' for Inactive)
REMARK    1  A    between atoms: C_1  and  N_2
REMARK    2  A    between atoms: C_4  and  C_5
REMARK    3  A    between atoms: C_10  and  C_11
REMARK                            x       y       z     vdW  Elec       q    Type
REMARK                         _______ _______ _______ _____ _____    ______ ____
ROOT
ATOM      1  C   UNL     1       5.189   3.782  14.360  0.00  0.00    +0.000 C 
ATOM      2  N   UNL     1       5.530   4.310  15.666  0.00  0.00    +0.000 N 
ATOM      3  C   UNL     1       4.742   3.989  16.778  0.00  0.00    +0.000 A 
ATOM      4  C   UNL     1       5.056   4.386  18.034  0.00  0.00    +0.000 A 
ATOM      5  C   UNL     1       6.242   5.176  18.214  0.00  0.00    +0.000 A 
ATOM      6  C   UNL     1       6.825   5.786  19.344  0.00  0.00    +0.000 A 
ATOM      7  C   UNL     1       7.929   6.483  18.891  0.00  0.00    +0.000 A 
ATOM      8  N   UNL     1       8.023   6.308  17.530  0.00  0.00    +0.000 N 
ATOM      9  C   UNL     1       6.988   5.518  17.109  0.00  0.00    +0.000 A 
ATOM     10  C   UNL     1       6.694   5.103  15.758  0.00  0.00    +0.000 A 
ATOM     11  O   UNL     1       7.392   5.409  14.802  0.00  0.00    +0.000 OA
ATOM     12  H   UNL     1       8.728   6.706  16.920  0.00  0.00    +0.000 HD
ENDROOT
BRANCH   4  13
ATOM     13  C   UNL     1       4.158   3.952  19.135  0.00  0.00    +0.000 A 
ATOM     14  C   UNL     1       4.403   2.652  19.628  0.00  0.00    +0.000 A 
ATOM     15  C   UNL     1       3.597   2.088  20.613  0.00  0.00    +0.000 A 
ATOM     16  C   UNL     1       2.542   2.819  21.134  0.00  0.00    +0.000 A 
ATOM     17  C   UNL     1       2.306   4.119  20.676  0.00  0.00    +0.000 A 
ATOM     18  C   UNL     1       3.088   4.726  19.663  0.00  0.00    +0.000 A 
BRANCH  18  19
ATOM     19  C   UNL     1       2.737   6.108  19.215  0.00  0.00    +0.000 A 
ATOM     20  C   UNL     1       2.108   7.042  20.056  0.00  0.00    +0.000 A 
ATOM     21  C   UNL     1       1.812   8.345  19.646  0.00  0.00    +0.000 A 
ATOM     22  C   UNL     1       2.087   8.739  18.349  0.00  0.00    +0.000 A 
ATOM     23  C   UNL     1       2.666   7.831  17.468  0.00  0.00    +0.000 A 
ATOM     24  C   UNL     1       2.999   6.544  17.901  0.00  0.00    +0.000 A 
ENDBRANCH  18  19
ENDBRANCH   4  13
TORSDOF 2
ENDMDL
MODEL 7
REMARK VINA RESULT:      -7.8      2.657      5.446
REMARK  Name = 
REMARK  3 active torsions:
REMARK  status: ('A' for Active; 'I' for Inactive)
REMARK    1  A    between atoms: C_1  and  N_2
REMARK    2  A    between atoms: C_4  and  C_5
REMARK    3  A    between atoms: C_10  and  C_11
REMARK                            x       y       z     vdW  Elec       q    Type
REMARK                         _______ _______ _______ _____ _____    ______ ____
ROOT
ATOM      1  C   UNL     1       2.231   8.251  18.468  0.00  0.00    +0.000 C 
ATOM      2  N   UNL     1       2.783   6.911  18.442  0.00  0.00    +0.000 N 
ATOM      3  C   UNL     1       3.622   6.520  17.392  0.00  0.00    +0.000 A 
ATOM      4  C   UNL     1       4.230   5.310  17.356  0.00  0.00    +0.000 A 
ATOM      5  C   UNL     1       3.987   4.401  18.441  0.00  0.00    +0.000 A 
ATOM      6  C   UNL     1       4.404   3.078  18.694  0.00  0.00    +0.000 A 
ATOM      7  C   UNL     1       3.790   2.688  19.870  0.00  0.00    +0.000 A 
ATOM      8  N   UNL     1       3.022   3.735  20.324  0.00  0.00    +0.000 N 
ATOM      9  C   UNL     1       3.130   4.782  19.449  0.00  0.00    +0.000 A 
ATOM     10  C   UNL     1       2.474   6.065  19.529  0.00  0.00    +0.000 A 
ATOM     11  O   UNL     1       1.735   6.377  20.452  0.00  0.00    +0.000 OA
ATOM     12  H   UNL     1       2.450   3.742  21.160  0.00  0.00    +0.000 HD
ENDROOT
BRANCH   4  13
ATOM     13  C   UNL     1       5.124   5.027  16.204  0.00  0.00    +0.000 A 
ATOM     14  C   UNL     1       4.545   4.255  15.173  0.00  0.00    +0.000 A 
ATOM     15  C   UNL     1       5.285   3.856  14.064  0.00  0.00    +0.000 A 
ATOM     16  C   UNL     1       6.613   4.236  13.957  0.00  0.00    +0.000 A 
ATOM     17  C   UNL     1       7.192   5.026  14.956  0.00  0.00    +0.000 A 
ATOM     18  C   UNL     1       6.483   5.438  16.110  0.00  0.00    +0.000 A 
BRANCH  18  19
ATOM     19  C   UNL     1       7.197   6.253  17.140  0.00  0.00    +0.000 A 
ATOM     20  C   UNL     1       7.624   5.718  18.368  0.00  0.00    +0.000 A 
ATOM     21  C   UNL     1       8.321   6.472  19.316  0.00  0.00    +0.000 A 
ATOM     22  C   UNL     1       8.564   7.814  19.085  0.00  0.00    +0.000 A 
ATOM     23  C   UNL     1       8.116   8.397  17.904  0.00  0.00    +0.000 A 
ATOM     24  C   UNL     1       7.458   7.622  16.943  0.00  0.00    +0.000 A 
ENDBRANCH  18  19
ENDBRANCH   4  13
TORSDOF 2
ENDMDL
MODEL 8
REMARK VINA RESULT:      -7.6      0.908      2.475
REMARK  Name = 
REMARK  3 active torsions:
REMARK  status: ('A' for Active; 'I' for Inactive)
REMARK    1  A    between atoms: C_1  and  N_2
REMARK    2  A    between atoms: C_4  and  C_5
REMARK    3  A    between atoms: C_10  and  C_11
REMARK                            x       y       z     vdW  Elec       q    Type
REMARK                         _______ _______ _______ _____ _____    ______ ____
ROOT
ATOM      1  C   UNL     1       7.590   5.931  19.898  0.00  0.00    +0.000 C 
ATOM      2  N   UNL     1       6.798   5.461  18.780  0.00  0.00    +0.000 N 
ATOM      3  C   UNL     1       5.605   4.765  19.010  0.00  0.00    +0.000 A 
ATOM      4  C   UNL     1       4.784   4.372  18.008  0.00  0.00    +0.000 A 
ATOM      5  C   UNL     1       5.171   4.680  16.660  0.00  0.00    +0.000 A 
ATOM      6  C   UNL     1       4.596   4.385  15.406  0.00  0.00    +0.000 A 
ATOM      7  C   UNL     1       5.461   4.880  14.448  0.00  0.00    +0.000 A 
ATOM      8  N   UNL     1       6.531   5.459  15.090  0.00  0.00    +0.000 N 
ATOM      9  C   UNL     1       6.364   5.331  16.442  0.00  0.00    +0.000 A 
ATOM     10  C   UNL     1       7.259   5.777  17.484  0.00  0.00    +0.000 A 
ATOM     11  O   UNL     1       8.302   6.372  17.253  0.00  0.00    +0.000 OA
ATOM     12  H   UNL     1       7.330   5.898  14.649  0.00  0.00    +0.000 HD
ENDROOT
BRANCH   4  13
ATOM     13  C   UNL     1       3.529   3.671  18.384  0.00  0.00    +0.000 A 
ATOM     14  C   UNL     1       3.567   2.265  18.252  0.00  0.00    +0.000 A 
ATOM     15  C   UNL     1       2.443   1.485  18.505  0.00  0.00    +0.000 A 
ATOM     16  C   UNL     1       1.266   2.092  18.911  0.00  0.00    +0.000 A 
ATOM     17  C   UNL     1       1.222   3.481  19.076  0.00  0.00    +0.000 A 
ATOM     18  C   UNL     1       2.335   4.316  18.811  0.00  0.00    +0.000 A 
BRANCH  18  19
ATOM     19  C   UNL     1       2.183   5.793  18.983  0.00  0.00    +0.000 A 
ATOM     20  C   UNL     1       2.334   6.700  17.920  0.00  0.00    +0.000 A 
ATOM     21  C   UNL     1       2.158   8.078  18.075  0.00  0.00    +0.000 A 
ATOM     22  C   UNL     1       1.878   8.600  19.325  0.00  0.00    +0.000 A 
ATOM     23  C   UNL     1       1.768   7.743  20.415  0.00  0.00    +0.000 A 
ATOM     24  C   UNL     1       1.902   6.362  20.241  0.00  0.00    +0.000 A 
ENDBRANCH  18  19
ENDBRANCH   4  13
TORSDOF 2
ENDMDL
MODEL 9
REMARK VINA RESULT:      -7.6      1.303      2.647
REMARK  Name = 
REMARK  3 active torsions:
REMARK  status: ('A' for Active; 'I' for Inactive)
REMARK    1  A    between atoms: C_1  and  N_2
REMARK    2  A    between atoms: C_4  and  C_5
REMARK    3  A    between atoms: C_10  and  C_11
REMARK                            x       y       z     vdW  Elec       q    Type
REMARK                         _______ _______ _______ _____ _____    ______ ____
ROOT
ATOM      1  C   UNL     1       7.977   6.812  18.946  0.00  0.00    +0.000 C 
ATOM      2  N   UNL     1       6.934   5.992  18.364  0.00  0.00    +0.000 N 
ATOM      3  C   UNL     1       5.931   5.454  19.179  0.00  0.00    +0.000 A 
ATOM      4  C   UNL     1       4.887   4.748  18.682  0.00  0.00    +0.000 A 
ATOM      5  C   UNL     1       4.826   4.545  17.261  0.00  0.00    +0.000 A 
ATOM      6  C   UNL     1       3.933   3.835  16.432  0.00  0.00    +0.000 A 
ATOM      7  C   UNL     1       4.426   3.934  15.145  0.00  0.00    +0.000 A 
ATOM      8  N   UNL     1       5.582   4.678  15.181  0.00  0.00    +0.000 N 
ATOM      9  C   UNL     1       5.838   5.046  16.474  0.00  0.00    +0.000 A 
ATOM     10  C   UNL     1       6.958   5.813  16.964  0.00  0.00    +0.000 A 
ATOM     11  O   UNL     1       7.828   6.262  16.231  0.00  0.00    +0.000 OA
ATOM     12  H   UNL     1       6.171   4.912  14.390  0.00  0.00    +0.000 HD
ENDROOT
BRANCH   4  13
ATOM     13  C   UNL     1       3.870   4.258  19.647  0.00  0.00    +0.000 A 
ATOM     14  C   UNL     1       4.096   2.956  20.145  0.00  0.00    +0.000 A 
ATOM     15  C   UNL     1       3.190   2.342  21.005  0.00  0.00    +0.000 A 
ATOM     16  C   UNL     1       2.050   3.025  21.396  0.00  0.00    +0.000 A 
ATOM     17  C   UNL     1       1.827   4.326  20.935  0.00  0.00    +0.000 A 
ATOM     18  C   UNL     1       2.711   4.982  20.044  0.00  0.00    +0.000 A 
BRANCH  18  19
ATOM     19  C   UNL     1       2.371   6.361  19.578  0.00  0.00    +0.000 A 
ATOM     20  C   UNL     1       2.553   6.780  18.249  0.00  0.00    +0.000 A 
ATOM     21  C   UNL     1       2.203   8.059  17.807  0.00  0.00    +0.000 A 
ATOM     22  C   UNL     1       1.708   8.986  18.706  0.00  0.00    +0.000 A 
ATOM     23  C   UNL     1       1.557   8.630  20.042  0.00  0.00    +0.000 A 
ATOM     24  C   UNL     1       1.869   7.333  20.465  0.00  0.00    +0.000 A 
ENDBRANCH  18  19
ENDBRANCH   4  13
TORSDOF 2
ENDMDL
