MODEL 1
REMARK VINA RESULT:      -9.7      0.000      0.000
REMARK  Name = 
REMARK  5 active torsions:
REMARK  status: ('A' for Active; 'I' for Inactive)
REMARK    1  A    between atoms: C_1  and  C_2
REMARK    2  A    between atoms: C_5  and  C_6
REMARK    3  A    between atoms: C_12  and  C_13
REMARK    4  A    between atoms: C_16  and  C_17
REMARK    5  A    between atoms: N_26  and  C_27
REMARK                            x       y       z     vdW  Elec       q    Type
REMARK                         _______ _______ _______ _____ _____    ______ ____
ROOT
ATOM      1  C   UNL     1       4.765   4.161  18.189  0.00  0.00    +0.000 C 
ATOM      2  C   UNL     1       4.591   3.490  19.581  0.00  0.00    +0.000 C 
ATOM      3  C   UNL     1       3.389   2.520  19.674  0.00  0.00    +0.000 C 
ATOM      4  C   UNL     1       3.420   1.476  18.558  0.00  0.00    +0.000 C 
ATOM      5  C   UNL     1       2.680   2.152  17.386  0.00  0.00    +0.000 C 
ATOM      6  C   UNL     1       2.268   3.539  17.928  0.00  0.00    +0.000 C 
ATOM      7  C   UNL     1       3.371   4.597  17.621  0.00  0.00    +0.000 C 
ATOM      8  N   UNL     1       2.114   3.147  19.331  0.00  0.00    +0.000 NA
ATOM      9  C   UNL     1       1.598   4.116  20.274  0.00  0.00    +0.000 C 
ENDROOT
BRANCH   1  14
ATOM     10  C   UNL     1       8.501   8.678  18.025  0.00  0.00    +0.000 C 
ATOM     11  C   UNL     1       7.638   7.450  18.019  0.00  0.00    +0.000 A 
ATOM     12  C   UNL     1       7.654   6.560  19.092  0.00  0.00    +0.000 A 
ATOM     13  C   UNL     1       6.774   5.472  19.130  0.00  0.00    +0.000 A 
ATOM     14  C   UNL     1       5.842   5.254  18.105  0.00  0.00    +0.000 A 
ATOM     15  C   UNL     1       5.891   6.114  16.992  0.00  0.00    +0.000 A 
ATOM     16  C   UNL     1       6.764   7.207  16.957  0.00  0.00    +0.000 A 
ENDBRANCH   1  14
BRANCH   7  17
ATOM     17  C   UNL     1       2.972   5.979  18.106  0.00  0.00    +0.000 A 
ATOM     18  N   UNL     1       3.013   7.059  17.361  0.00  0.00    +0.000 NA
ATOM     19  C   UNL     1       2.473   8.122  18.032  0.00  0.00    +0.000 A 
ATOM     20  C   UNL     1       1.989   7.858  19.297  0.00  0.00    +0.000 A 
ATOM     21  S   UNL     1       2.321   6.216  19.684  0.00  0.00    +0.000 S 
BRANCH  20  22
ATOM     22  C   UNL     1       1.245   8.754  20.186  0.00  0.00    +0.000 A 
ATOM     23  C   UNL     1       1.232   8.477  21.564  0.00  0.00    +0.000 A 
ATOM     24  C   UNL     1       0.546   9.298  22.456  0.00  0.00    +0.000 A 
ATOM     25  C   UNL     1      -0.143  10.415  21.989  0.00  0.00    +0.000 A 
ATOM     26 CL   UNL     1      -0.961  11.395  23.151  0.00  0.00    +0.000 Cl
ATOM     27  C   UNL     1      -0.148  10.703  20.618  0.00  0.00    +0.000 A 
ATOM     28 CL   UNL     1      -0.983  12.069  19.968  0.00  0.00    +0.000 Cl
ATOM     29  C   UNL     1       0.542   9.873  19.722  0.00  0.00    +0.000 A 
ENDBRANCH  20  22
ENDBRANCH   7  17
TORSDOF 3
ENDMDL
MODEL 2
REMARK VINA RESULT:      -9.7      4.197      7.167
REMARK  Name = 
REMARK  5 active torsions:
REMARK  status: ('A' for Active; 'I' for Inactive)
REMARK    1  A    between atoms: C_1  and  C_2
REMARK    2  A    between atoms: C_5  and  C_6
REMARK    3  A    between atoms: C_12  and  C_13
REMARK    4  A    between atoms: C_16  and  C_17
REMARK    5  A    between atoms: N_26  and  C_27
REMARK                            x       y       z     vdW  Elec       q    Type
REMARK                         _______ _______ _______ _____ _____    ______ ____
ROOT
ATOM      1  C   UNL     1       2.055   5.063  20.090  0.00  0.00    +0.000 C 
ATOM      2  C   UNL     1       1.150   4.090  19.281  0.00  0.00    +0.000 C 
ATOM      3  C   UNL     1       1.304   2.602  19.676  0.00  0.00    +0.000 C 
ATOM      4  C   UNL     1       1.128   2.397  21.181  0.00  0.00    +0.000 C 
ATOM      5  C   UNL     1       2.540   2.613  21.759  0.00  0.00    +0.000 C 
ATOM      6  C   UNL     1       3.427   2.916  20.531  0.00  0.00    +0.000 C 
ATOM      7  C   UNL     1       3.486   4.451  20.263  0.00  0.00    +0.000 C 
ATOM      8  N   UNL     1       2.676   2.115  19.563  0.00  0.00    +0.000 NA
ATOM      9  C   UNL     1       3.200   1.969  18.222  0.00  0.00    +0.000 C 
ENDROOT
BRANCH   1  14
ATOM     10  C   UNL     1       1.567  10.550  18.081  0.00  0.00    +0.000 C 
ATOM     11  C   UNL     1       1.811   9.175  18.628  0.00  0.00    +0.000 A 
ATOM     12  C   UNL     1       1.612   8.898  19.980  0.00  0.00    +0.000 A 
ATOM     13  C   UNL     1       1.740   7.592  20.468  0.00  0.00    +0.000 A 
ATOM     14  C   UNL     1       2.055   6.525  19.615  0.00  0.00    +0.000 A 
ATOM     15  C   UNL     1       2.329   6.831  18.269  0.00  0.00    +0.000 A 
ATOM     16  C   UNL     1       2.192   8.134  17.778  0.00  0.00    +0.000 A 
ENDBRANCH   1  14
BRANCH   7  17
ATOM     17  C   UNL     1       4.387   4.779  19.087  0.00  0.00    +0.000 A 
ATOM     18  N   UNL     1       5.598   5.273  19.204  0.00  0.00    +0.000 NA
ATOM     19  C   UNL     1       6.205   5.340  17.980  0.00  0.00    +0.000 A 
ATOM     20  C   UNL     1       5.469   4.874  16.910  0.00  0.00    +0.000 A 
ATOM     21  S   UNL     1       3.907   4.422  17.471  0.00  0.00    +0.000 S 
BRANCH  20  22
ATOM     22  C   UNL     1       5.902   4.698  15.522  0.00  0.00    +0.000 A 
ATOM     23  C   UNL     1       7.192   5.126  15.161  0.00  0.00    +0.000 A 
ATOM     24  C   UNL     1       7.659   4.980  13.856  0.00  0.00    +0.000 A 
ATOM     25  C   UNL     1       6.847   4.402  12.884  0.00  0.00    +0.000 A 
ATOM     26 CL   UNL     1       7.494   4.240  11.292  0.00  0.00    +0.000 Cl
ATOM     27  C   UNL     1       5.556   3.976  13.223  0.00  0.00    +0.000 A 
ATOM     28 CL   UNL     1       4.492   3.255  12.069  0.00  0.00    +0.000 Cl
ATOM     29  C   UNL     1       5.087   4.128  14.536  0.00  0.00    +0.000 A 
ENDBRANCH  20  22
ENDBRANCH   7  17
TORSDOF 3
ENDMDL
MODEL 3
REMARK VINA RESULT:      -9.6      1.261      2.114
REMARK  Name = 
REMARK  5 active torsions:
REMARK  status: ('A' for Active; 'I' for Inactive)
REMARK    1  A    between atoms: C_1  and  C_2
REMARK    2  A    between atoms: C_5  and  C_6
REMARK    3  A    between atoms: C_12  and  C_13
REMARK    4  A    between atoms: C_16  and  C_17
REMARK    5  A    between atoms: N_26  and  C_27
REMARK                            x       y       z     vdW  Elec       q    Type
REMARK                         _______ _______ _______ _____ _____    ______ ____
ROOT
ATOM      1  C   UNL     1       4.491   4.189  18.235  0.00  0.00    +0.000 C 
ATOM      2  C   UNL     1       4.559   3.367  19.554  0.00  0.00    +0.000 C 
ATOM      3  C   UNL     1       3.480   2.265  19.672  0.00  0.00    +0.000 C 
ATOM      4  C   UNL     1       3.475   1.347  18.449  0.00  0.00    +0.000 C 
ATOM      5  C   UNL     1       2.533   2.050  17.452  0.00  0.00    +0.000 C 
ATOM      6  C   UNL     1       2.056   3.321  18.190  0.00  0.00    +0.000 C 
ATOM      7  C   UNL     1       3.002   4.521  17.881  0.00  0.00    +0.000 C 
ATOM      8  N   UNL     1       2.117   2.776  19.548  0.00  0.00    +0.000 NA
ATOM      9  C   UNL     1       1.628   3.583  20.646  0.00  0.00    +0.000 C 
ENDROOT
BRANCH   1  14
ATOM     10  C   UNL     1       8.418   8.500  17.621  0.00  0.00    +0.000 C 
ATOM     11  C   UNL     1       7.350   7.474  17.857  0.00  0.00    +0.000 A 
ATOM     12  C   UNL     1       6.181   7.470  17.097  0.00  0.00    +0.000 A 
ATOM     13  C   UNL     1       5.234   6.451  17.249  0.00  0.00    +0.000 A 
ATOM     14  C   UNL     1       5.436   5.398  18.153  0.00  0.00    +0.000 A 
ATOM     15  C   UNL     1       6.582   5.456  18.968  0.00  0.00    +0.000 A 
ATOM     16  C   UNL     1       7.534   6.470  18.811  0.00  0.00    +0.000 A 
ENDBRANCH   1  14
BRANCH   7  17
ATOM     17  C   UNL     1       2.531   5.794  18.560  0.00  0.00    +0.000 A 
ATOM     18  N   UNL     1       2.691   6.047  19.839  0.00  0.00    +0.000 NA
ATOM     19  C   UNL     1       2.281   7.321  20.127  0.00  0.00    +0.000 A 
ATOM     20  C   UNL     1       1.823   8.067  19.060  0.00  0.00    +0.000 A 
ATOM     21  S   UNL     1       1.822   7.077  17.654  0.00  0.00    +0.000 S 
BRANCH  20  22
ATOM     22  C   UNL     1       1.451   9.484  19.041  0.00  0.00    +0.000 A 
ATOM     23  C   UNL     1       2.186  10.361  18.224  0.00  0.00    +0.000 A 
ATOM     24  C   UNL     1       1.874  11.718  18.163  0.00  0.00    +0.000 A 
ATOM     25  C   UNL     1       0.820  12.227  18.918  0.00  0.00    +0.000 A 
ATOM     26 CL   UNL     1       0.481  13.914  18.785  0.00  0.00    +0.000 Cl
ATOM     27  C   UNL     1       0.082  11.369  19.744  0.00  0.00    +0.000 A 
ATOM     28 CL   UNL     1      -1.235  11.931  20.711  0.00  0.00    +0.000 Cl
ATOM     29  C   UNL     1       0.400  10.005  19.806  0.00  0.00    +0.000 A 
ENDBRANCH  20  22
ENDBRANCH   7  17
TORSDOF 3
ENDMDL
MODEL 4
REMARK VINA RESULT:      -9.6      1.487      2.092
REMARK  Name = 
REMARK  5 active torsions:
REMARK  status: ('A' for Active; 'I' for Inactive)
REMARK    1  A    between atoms: C_1  and  C_2
REMARK    2  A    between atoms: C_5  and  C_6
REMARK    3  A    between atoms: C_12  and  C_13
REMARK    4  A    between atoms: C_16  and  C_17
REMARK    5  A    between atoms: N_26  and  C_27
REMARK                            x       y       z     vdW  Elec       q    Type
REMARK                         _______ _______ _______ _____ _____    ______ ____
ROOT
ATOM      1  C   UNL     1       4.473   4.219  18.224  0.00  0.00    +0.000 C 
ATOM      2  C   UNL     1       4.558   3.385  19.534  0.00  0.00    +0.000 C 
ATOM      3  C   UNL     1       3.484   2.278  19.653  0.00  0.00    +0.000 C 
ATOM      4  C   UNL     1       3.468   1.372  18.422  0.00  0.00    +0.000 C 
ATOM      5  C   UNL     1       2.512   2.082  17.443  0.00  0.00    +0.000 C 
ATOM      6  C   UNL     1       2.040   3.344  18.198  0.00  0.00    +0.000 C 
ATOM      7  C   UNL     1       2.978   4.550  17.890  0.00  0.00    +0.000 C 
ATOM      8  N   UNL     1       2.118   2.787  19.550  0.00  0.00    +0.000 NA
ATOM      9  C   UNL     1       1.639   3.581  20.661  0.00  0.00    +0.000 C 
ENDROOT
BRANCH   1  14
ATOM     10  C   UNL     1       8.380   8.548  17.611  0.00  0.00    +0.000 C 
ATOM     11  C   UNL     1       7.318   7.517  17.847  0.00  0.00    +0.000 A 
ATOM     12  C   UNL     1       6.144   7.513  17.095  0.00  0.00    +0.000 A 
ATOM     13  C   UNL     1       5.201   6.490  17.247  0.00  0.00    +0.000 A 
ATOM     14  C   UNL     1       5.413   5.433  18.144  0.00  0.00    +0.000 A 
ATOM     15  C   UNL     1       6.563   5.490  18.952  0.00  0.00    +0.000 A 
ATOM     16  C   UNL     1       7.511   6.508  18.794  0.00  0.00    +0.000 A 
ENDBRANCH   1  14
BRANCH   7  17
ATOM     17  C   UNL     1       2.511   5.815  18.587  0.00  0.00    +0.000 A 
ATOM     18  N   UNL     1       2.761   6.096  19.845  0.00  0.00    +0.000 NA
ATOM     19  C   UNL     1       2.324   7.357  20.147  0.00  0.00    +0.000 A 
ATOM     20  C   UNL     1       1.753   8.066  19.110  0.00  0.00    +0.000 A 
ATOM     21  S   UNL     1       1.682   7.054  17.722  0.00  0.00    +0.000 S 
BRANCH  20  22
ATOM     22  C   UNL     1       1.324   9.467  19.101  0.00  0.00    +0.000 A 
ATOM     23  C   UNL     1       0.092   9.797  19.692  0.00  0.00    +0.000 A 
ATOM     24  C   UNL     1      -0.364  11.113  19.717  0.00  0.00    +0.000 A 
ATOM     25  C   UNL     1       0.403  12.129  19.153  0.00  0.00    +0.000 A 
ATOM     26 CL   UNL     1      -0.217  13.739  19.230  0.00  0.00    +0.000 Cl
ATOM     27  C   UNL     1       1.630  11.819  18.553  0.00  0.00    +0.000 A 
ATOM     28 CL   UNL     1       2.632  13.026  17.830  0.00  0.00    +0.000 Cl
ATOM     29  C   UNL     1       2.086  10.492  18.526  0.00  0.00    +0.000 A 
ENDBRANCH  20  22
ENDBRANCH   7  17
TORSDOF 3
ENDMDL
MODEL 5
REMARK VINA RESULT:      -9.5      4.285      7.242
REMARK  Name = 
REMARK  5 active torsions:
REMARK  status: ('A' for Active; 'I' for Inactive)
REMARK    1  A    between atoms: C_1  and  C_2
REMARK    2  A    between atoms: C_5  and  C_6
REMARK    3  A    between atoms: C_12  and  C_13
REMARK    4  A    between atoms: C_16  and  C_17
REMARK    5  A    between atoms: N_26  and  C_27
REMARK                            x       y       z     vdW  Elec       q    Type
REMARK                         _______ _______ _______ _____ _____    ______ ____
ROOT
ATOM      1  C   UNL     1       2.096   5.081  20.036  0.00  0.00    +0.000 C 
ATOM      2  C   UNL     1       1.191   4.105  19.231  0.00  0.00    +0.000 C 
ATOM      3  C   UNL     1       1.359   2.616  19.619  0.00  0.00    +0.000 C 
ATOM      4  C   UNL     1       1.196   2.404  21.124  0.00  0.00    +0.000 C 
ATOM      5  C   UNL     1       2.612   2.628  21.692  0.00  0.00    +0.000 C 
ATOM      6  C   UNL     1       3.487   2.942  20.458  0.00  0.00    +0.000 C 
ATOM      7  C   UNL     1       3.533   4.478  20.196  0.00  0.00    +0.000 C 
ATOM      8  N   UNL     1       2.734   2.139  19.493  0.00  0.00    +0.000 NA
ATOM      9  C   UNL     1       3.248   2.002  18.147  0.00  0.00    +0.000 C 
ENDROOT
BRANCH   1  14
ATOM     10  C   UNL     1       1.554  10.572  18.052  0.00  0.00    +0.000 C 
ATOM     11  C   UNL     1       1.812   9.197  18.593  0.00  0.00    +0.000 A 
ATOM     12  C   UNL     1       1.627   8.913  19.945  0.00  0.00    +0.000 A 
ATOM     13  C   UNL     1       1.768   7.606  20.427  0.00  0.00    +0.000 A 
ATOM     14  C   UNL     1       2.082   6.544  19.567  0.00  0.00    +0.000 A 
ATOM     15  C   UNL     1       2.342   6.857  18.220  0.00  0.00    +0.000 A 
ATOM     16  C   UNL     1       2.192   8.162  17.735  0.00  0.00    +0.000 A 
ENDBRANCH   1  14
BRANCH   7  17
ATOM     17  C   UNL     1       4.422   4.817  19.013  0.00  0.00    +0.000 A 
ATOM     18  N   UNL     1       5.586   5.416  19.117  0.00  0.00    +0.000 NA
ATOM     19  C   UNL     1       6.205   5.469  17.898  0.00  0.00    +0.000 A 
ATOM     20  C   UNL     1       5.527   4.884  16.847  0.00  0.00    +0.000 A 
ATOM     21  S   UNL     1       4.000   4.334  17.414  0.00  0.00    +0.000 S 
BRANCH  20  22
ATOM     22  C   UNL     1       5.996   4.671  15.476  0.00  0.00    +0.000 A 
ATOM     23  C   UNL     1       5.273   3.795  14.646  0.00  0.00    +0.000 A 
ATOM     24  C   UNL     1       5.671   3.558  13.332  0.00  0.00    +0.000 A 
ATOM     25  C   UNL     1       6.799   4.193  12.818  0.00  0.00    +0.000 A 
ATOM     26 CL   UNL     1       7.226   3.863  11.178  0.00  0.00    +0.000 Cl
ATOM     27  C   UNL     1       7.535   5.063  13.632  0.00  0.00    +0.000 A 
ATOM     28 CL   UNL     1       8.947   5.881  13.063  0.00  0.00    +0.000 Cl
ATOM     29  C   UNL     1       7.135   5.298  14.955  0.00  0.00    +0.000 A 
ENDBRANCH  20  22
ENDBRANCH   7  17
TORSDOF 3
ENDMDL
MODEL 6
REMARK VINA RESULT:      -9.5      0.570      1.314
REMARK  Name = 
REMARK  5 active torsions:
REMARK  status: ('A' for Active; 'I' for Inactive)
REMARK    1  A    between atoms: C_1  and  C_2
REMARK    2  A    between atoms: C_5  and  C_6
REMARK    3  A    between atoms: C_12  and  C_13
REMARK    4  A    between atoms: C_16  and  C_17
REMARK    5  A    between atoms: N_26  and  C_27
REMARK                            x       y       z     vdW  Elec       q    Type
REMARK                         _______ _______ _______ _____ _____    ______ ____
ROOT
ATOM      1  C   UNL     1       4.705   4.220  18.246  0.00  0.00    +0.000 C 
ATOM      2  C   UNL     1       4.486   3.615  19.662  0.00  0.00    +0.000 C 
ATOM      3  C   UNL     1       3.264   2.672  19.769  0.00  0.00    +0.000 C 
ATOM      4  C   UNL     1       3.300   1.578  18.701  0.00  0.00    +0.000 C 
ATOM      5  C   UNL     1       2.601   2.215  17.484  0.00  0.00    +0.000 C 
ATOM      6  C   UNL     1       2.203   3.632  17.955  0.00  0.00    +0.000 C 
ATOM      7  C   UNL     1       3.333   4.655  17.627  0.00  0.00    +0.000 C 
ATOM      8  N   UNL     1       2.010   3.306  19.369  0.00  0.00    +0.000 NA
ATOM      9  C   UNL     1       1.491   4.325  20.256  0.00  0.00    +0.000 C 
ENDROOT
BRANCH   1  14
ATOM     10  C   UNL     1       8.544   8.646  18.028  0.00  0.00    +0.000 C 
ATOM     11  C   UNL     1       7.651   7.442  18.028  0.00  0.00    +0.000 A 
ATOM     12  C   UNL     1       7.701   6.514  19.068  0.00  0.00    +0.000 A 
ATOM     13  C   UNL     1       6.796   5.447  19.118  0.00  0.00    +0.000 A 
ATOM     14  C   UNL     1       5.804   5.288  18.139  0.00  0.00    +0.000 A 
ATOM     15  C   UNL     1       5.814   6.186  17.056  0.00  0.00    +0.000 A 
ATOM     16  C   UNL     1       6.713   7.258  17.009  0.00  0.00    +0.000 A 
ENDBRANCH   1  14
BRANCH   7  17
ATOM     17  C   UNL     1       2.949   6.064  18.041  0.00  0.00    +0.000 A 
ATOM     18  N   UNL     1       2.909   7.086  17.218  0.00  0.00    +0.000 NA
ATOM     19  C   UNL     1       2.406   8.189  17.852  0.00  0.00    +0.000 A 
ATOM     20  C   UNL     1       2.032   8.014  19.169  0.00  0.00    +0.000 A 
ATOM     21  S   UNL     1       2.426   6.410  19.646  0.00  0.00    +0.000 S 
BRANCH  20  22
ATOM     22  C   UNL     1       1.347   8.965  20.048  0.00  0.00    +0.000 A 
ATOM     23  C   UNL     1       0.886  10.175  19.500  0.00  0.00    +0.000 A 
ATOM     24  C   UNL     1       0.224  11.114  20.288  0.00  0.00    +0.000 A 
ATOM     25  C   UNL     1       0.008  10.864  21.641  0.00  0.00    +0.000 A 
ATOM     26 CL   UNL     1      -0.830  12.066  22.555  0.00  0.00    +0.000 Cl
ATOM     27  C   UNL     1       0.467   9.667  22.206  0.00  0.00    +0.000 A 
ATOM     28 CL   UNL     1       0.239   9.292  23.877  0.00  0.00    +0.000 Cl
ATOM     29  C   UNL     1       1.136   8.725  21.412  0.00  0.00    +0.000 A 
ENDBRANCH  20  22
ENDBRANCH   7  17
TORSDOF 3
ENDMDL
MODEL 7
REMARK VINA RESULT:      -8.8      4.518      9.607
REMARK  Name = 
REMARK  5 active torsions:
REMARK  status: ('A' for Active; 'I' for Inactive)
REMARK    1  A    between atoms: C_1  and  C_2
REMARK    2  A    between atoms: C_5  and  C_6
REMARK    3  A    between atoms: C_12  and  C_13
REMARK    4  A    between atoms: C_16  and  C_17
REMARK    5  A    between atoms: N_26  and  C_27
REMARK                            x       y       z     vdW  Elec       q    Type
REMARK                         _______ _______ _______ _____ _____    ______ ____
ROOT
ATOM      1  C   UNL     1      -2.520  12.942  19.893  0.00  0.00    +0.000 C 
ATOM      2  C   UNL     1      -3.453  12.688  21.111  0.00  0.00    +0.000 C 
ATOM      3  C   UNL     1      -3.052  13.462  22.390  0.00  0.00    +0.000 C 
ATOM      4  C   UNL     1      -2.893  14.958  22.118  0.00  0.00    +0.000 C 
ATOM      5  C   UNL     1      -1.427  15.106  21.666  0.00  0.00    +0.000 C 
ATOM      6  C   UNL     1      -0.849  13.675  21.726  0.00  0.00    +0.000 C 
ATOM      7  C   UNL     1      -1.022  12.956  20.353  0.00  0.00    +0.000 C 
ATOM      8  N   UNL     1      -1.685  13.187  22.825  0.00  0.00    +0.000 NA
ATOM      9  C   UNL     1      -1.431  11.868  23.362  0.00  0.00    +0.000 C 
ENDROOT
BRANCH   1  14
ATOM     10  C   UNL     1      -3.784  10.023  14.966  0.00  0.00    +0.000 C 
ATOM     11  C   UNL     1      -3.411  10.661  16.272  0.00  0.00    +0.000 A 
ATOM     12  C   UNL     1      -2.139  11.194  16.470  0.00  0.00    +0.000 A 
ATOM     13  C   UNL     1      -1.827  11.880  17.650  0.00  0.00    +0.000 A 
ATOM     14  C   UNL     1      -2.784  12.067  18.657  0.00  0.00    +0.000 A 
ATOM     15  C   UNL     1      -4.039  11.457  18.478  0.00  0.00    +0.000 A 
ATOM     16  C   UNL     1      -4.355  10.779  17.295  0.00  0.00    +0.000 A 
ENDBRANCH   1  14
BRANCH   7  17
ATOM     17  C   UNL     1      -0.424  11.562  20.372  0.00  0.00    +0.000 A 
ATOM     18  N   UNL     1      -0.990  10.527  20.948  0.00  0.00    +0.000 NA
ATOM     19  C   UNL     1      -0.279   9.388  20.686  0.00  0.00    +0.000 A 
ATOM     20  C   UNL     1       0.832   9.537  19.882  0.00  0.00    +0.000 A 
ATOM     21  S   UNL     1       1.035  11.207  19.525  0.00  0.00    +0.000 S 
BRANCH  20  22
ATOM     22  C   UNL     1       1.696   8.490  19.330  0.00  0.00    +0.000 A 
ATOM     23  C   UNL     1       2.288   8.701  18.072  0.00  0.00    +0.000 A 
ATOM     24  C   UNL     1       3.122   7.742  17.501  0.00  0.00    +0.000 A 
ATOM     25  C   UNL     1       3.382   6.551  18.175  0.00  0.00    +0.000 A 
ATOM     26 CL   UNL     1       4.434   5.413  17.414  0.00  0.00    +0.000 Cl
ATOM     27  C   UNL     1       2.795   6.321  19.425  0.00  0.00    +0.000 A 
ATOM     28 CL   UNL     1       3.070   4.866  20.316  0.00  0.00    +0.000 Cl
ATOM     29  C   UNL     1       1.953   7.286  19.997  0.00  0.00    +0.000 A 
ENDBRANCH  20  22
ENDBRANCH   7  17
TORSDOF 3
ENDMDL
MODEL 8
REMARK VINA RESULT:      -8.7      4.742      9.136
REMARK  Name = 
REMARK  5 active torsions:
REMARK  status: ('A' for Active; 'I' for Inactive)
REMARK    1  A    between atoms: C_1  and  C_2
REMARK    2  A    between atoms: C_5  and  C_6
REMARK    3  A    between atoms: C_12  and  C_13
REMARK    4  A    between atoms: C_16  and  C_17
REMARK    5  A    between atoms: N_26  and  C_27
REMARK                            x       y       z     vdW  Elec       q    Type
REMARK                         _______ _______ _______ _____ _____    ______ ____
ROOT
ATOM      1  C   UNL     1       0.026  14.590  21.126  0.00  0.00    +0.000 C 
ATOM      2  C   UNL     1      -1.219  15.108  20.351  0.00  0.00    +0.000 C 
ATOM      3  C   UNL     1      -2.562  14.894  21.090  0.00  0.00    +0.000 C 
ATOM      4  C   UNL     1      -2.520  15.460  22.510  0.00  0.00    +0.000 C 
ATOM      5  C   UNL     1      -1.960  14.303  23.362  0.00  0.00    +0.000 C 
ATOM      6  C   UNL     1      -1.733  13.150  22.360  0.00  0.00    +0.000 C 
ATOM      7  C   UNL     1      -0.285  13.202  21.783  0.00  0.00    +0.000 C 
ATOM      8  N   UNL     1      -2.814  13.497  21.435  0.00  0.00    +0.000 NA
ATOM      9  C   UNL     1      -3.105  12.603  20.334  0.00  0.00    +0.000 C 
ENDROOT
BRANCH   1  14
ATOM     10  C   UNL     1       5.091  15.279  18.253  0.00  0.00    +0.000 C 
ATOM     11  C   UNL     1       3.802  14.979  18.958  0.00  0.00    +0.000 A 
ATOM     12  C   UNL     1       3.795  14.548  20.284  0.00  0.00    +0.000 A 
ATOM     13  C   UNL     1       2.588  14.368  20.971  0.00  0.00    +0.000 A 
ATOM     14  C   UNL     1       1.356  14.631  20.356  0.00  0.00    +0.000 A 
ATOM     15  C   UNL     1       1.374  14.991  18.996  0.00  0.00    +0.000 A 
ATOM     16  C   UNL     1       2.580  15.180  18.311  0.00  0.00    +0.000 A 
ENDBRANCH   1  14
BRANCH   7  17
ATOM     17  C   UNL     1      -0.021  12.053  20.827  0.00  0.00    +0.000 A 
ATOM     18  N   UNL     1      -0.288  12.091  19.542  0.00  0.00    +0.000 NA
ATOM     19  C   UNL     1       0.178  10.962  18.926  0.00  0.00    +0.000 A 
ATOM     20  C   UNL     1       0.830  10.054  19.735  0.00  0.00    +0.000 A 
ATOM     21  S   UNL     1       0.763  10.614  21.359  0.00  0.00    +0.000 S 
BRANCH  20  22
ATOM     22  C   UNL     1       1.542   8.837  19.337  0.00  0.00    +0.000 A 
ATOM     23  C   UNL     1       2.180   8.810  18.084  0.00  0.00    +0.000 A 
ATOM     24  C   UNL     1       2.876   7.682  17.656  0.00  0.00    +0.000 A 
ATOM     25  C   UNL     1       2.950   6.555  18.471  0.00  0.00    +0.000 A 
ATOM     26 CL   UNL     1       3.839   5.197  17.883  0.00  0.00    +0.000 Cl
ATOM     27  C   UNL     1       2.315   6.561  19.720  0.00  0.00    +0.000 A 
ATOM     28 CL   UNL     1       2.361   5.198  20.782  0.00  0.00    +0.000 Cl
ATOM     29  C   UNL     1       1.612   7.696  20.147  0.00  0.00    +0.000 A 
ENDBRANCH  20  22
ENDBRANCH   7  17
TORSDOF 3
ENDMDL
MODEL 9
REMARK VINA RESULT:      -8.6      6.202     10.429
REMARK  Name = 
REMARK  5 active torsions:
REMARK  status: ('A' for Active; 'I' for Inactive)
REMARK    1  A    between atoms: C_1  and  C_2
REMARK    2  A    between atoms: C_5  and  C_6
REMARK    3  A    between atoms: C_12  and  C_13
REMARK    4  A    between atoms: C_16  and  C_17
REMARK    5  A    between atoms: N_26  and  C_27
REMARK                            x       y       z     vdW  Elec       q    Type
REMARK                         _______ _______ _______ _____ _____    ______ ____
ROOT
ATOM      1  C   UNL     1       9.570  14.424  19.999  0.00  0.00    +0.000 C 
ATOM      2  C   UNL     1      11.105  14.549  20.212  0.00  0.00    +0.000 C 
ATOM      3  C   UNL     1      11.883  15.032  18.965  0.00  0.00    +0.000 C 
ATOM      4  C   UNL     1      11.296  16.326  18.400  0.00  0.00    +0.000 C 
ATOM      5  C   UNL     1      10.196  15.850  17.430  0.00  0.00    +0.000 C 
ATOM      6  C   UNL     1      10.244  14.308  17.505  0.00  0.00    +0.000 C 
ATOM      7  C   UNL     1       9.269  13.782  18.601  0.00  0.00    +0.000 C 
ATOM      8  N   UNL     1      11.674  14.185  17.792  0.00  0.00    +0.000 NA
ATOM      9  C   UNL     1      12.266  12.865  17.837  0.00  0.00    +0.000 C 
ENDROOT
BRANCH   1  14
ATOM     10  C   UNL     1       6.375  11.659  24.066  0.00  0.00    +0.000 C 
ATOM     11  C   UNL     1       7.225  12.450  23.116  0.00  0.00    +0.000 A 
ATOM     12  C   UNL     1       8.592  12.202  23.004  0.00  0.00    +0.000 A 
ATOM     13  C   UNL     1       9.363  12.869  22.044  0.00  0.00    +0.000 A 
ATOM     14  C   UNL     1       8.784  13.790  21.158  0.00  0.00    +0.000 A 
ATOM     15  C   UNL     1       7.420  14.087  21.334  0.00  0.00    +0.000 A 
ATOM     16  C   UNL     1       6.647  13.414  22.287  0.00  0.00    +0.000 A 
ENDBRANCH   1  14
BRANCH   7  17
ATOM     17  C   UNL     1       9.265  12.266  18.666  0.00  0.00    +0.000 A 
ATOM     18  N   UNL     1       9.969  11.565  19.525  0.00  0.00    +0.000 NA
ATOM     19  C   UNL     1       9.659  10.236  19.423  0.00  0.00    +0.000 A 
ATOM     20  C   UNL     1       8.691   9.908  18.496  0.00  0.00    +0.000 A 
ATOM     21  S   UNL     1       8.228  11.333  17.654  0.00  0.00    +0.000 S 
BRANCH  20  22
ATOM     22  C   UNL     1       8.067   8.603  18.264  0.00  0.00    +0.000 A 
ATOM     23  C   UNL     1       8.532   7.496  18.996  0.00  0.00    +0.000 A 
ATOM     24  C   UNL     1       7.973   6.232  18.820  0.00  0.00    +0.000 A 
ATOM     25  C   UNL     1       6.935   6.047  17.909  0.00  0.00    +0.000 A 
ATOM     26 CL   UNL     1       6.281   4.457  17.752  0.00  0.00    +0.000 Cl
ATOM     27  C   UNL     1       6.464   7.137  17.166  0.00  0.00    +0.000 A 
ATOM     28 CL   UNL     1       5.185   6.981  16.016  0.00  0.00    +0.000 Cl
ATOM     29  C   UNL     1       7.031   8.408  17.342  0.00  0.00    +0.000 A 
ENDBRANCH  20  22
ENDBRANCH   7  17
TORSDOF 3
ENDMDL
