MODEL 1
REMARK VINA RESULT:      -7.5      0.000      0.000
REMARK  Name = 
REMARK  11 active torsions:
REMARK  status: ('A' for Active; 'I' for Inactive)
REMARK    1  A    between atoms: C_1  and  C_2
REMARK    2  A    between atoms: C_2  and  N_3
REMARK    3  A    between atoms: N_3  and  C_4
REMARK    4  A    between atoms: N_3  and  C_6
REMARK    5  A    between atoms: C_4  and  C_5
REMARK    6  A    between atoms: C_6  and  C_7
REMARK    7  A    between atoms: C_7  and  O_8
REMARK    8  A    between atoms: C_7  and  C_9
REMARK    9  A    between atoms: C_11  and  C_12
REMARK   10  A    between atoms: C_15  and  O_16
REMARK   11  A    between atoms: O_16  and  C_17
REMARK                            x       y       z     vdW  Elec       q    Type
REMARK                         _______ _______ _______ _____ _____    ______ ____
ROOT
ATOM      1  C   UNL     1       4.070   4.651  18.573  0.00  0.00    +0.000 A 
ATOM      2  C   UNL     1       3.328   5.764  18.968  0.00  0.00    +0.000 A 
ATOM      3  C   UNL     1       3.281   6.929  18.204  0.00  0.00    +0.000 A 
ATOM      4  N   UNL     1       3.977   6.987  17.038  0.00  0.00    +0.000 NA
ATOM      5  C   UNL     1       4.744   5.948  16.608  0.00  0.00    +0.000 A 
ATOM      6  C   UNL     1       5.479   6.078  15.422  0.00  0.00    +0.000 A 
ATOM      7  C   UNL     1       6.264   5.025  14.954  0.00  0.00    +0.000 A 
ATOM      8 CL   UNL     1       7.195   5.201  13.480  0.00  0.00    +0.000 Cl
ATOM      9  C   UNL     1       6.305   3.822  15.667  0.00  0.00    +0.000 A 
ATOM     10  C   UNL     1       5.587   3.674  16.851  0.00  0.00    +0.000 A 
ATOM     11  C   UNL     1       4.801   4.736  17.352  0.00  0.00    +0.000 A 
ENDROOT
BRANCH   3  12
ATOM     12  C   UNL     1       2.415   8.045  18.653  0.00  0.00    +0.000 A 
ATOM     13  C   UNL     1       1.855   8.035  19.948  0.00  0.00    +0.000 A 
ATOM     14  C   UNL     1       0.972   9.025  20.351  0.00  0.00    +0.000 A 
ATOM     15  C   UNL     1       0.609  10.055  19.467  0.00  0.00    +0.000 A 
ATOM     16  C   UNL     1       1.182  10.086  18.186  0.00  0.00    +0.000 A 
ATOM     17  C   UNL     1       2.089   9.097  17.784  0.00  0.00    +0.000 A 
BRANCH  15  18
ATOM     18  O   UNL     1      -0.292  11.009  19.812  0.00  0.00    +0.000 OA
ATOM     19  C   UNL     1      -1.525  11.181  19.214  0.00  0.00    +0.000 C 
ENDBRANCH  15  18
ENDBRANCH   3  12
BRANCH   1  20
ATOM     20  C   UNL     1       4.055   3.401  19.459  0.00  0.00    +0.000 C 
BRANCH  20  21
ATOM     21  O   UNL     1       5.360   2.931  19.662  0.00  0.00    +0.000 OA
ATOM     22  H   UNL     1       5.301   2.189  20.321  0.00  0.00    +0.000 HD
ENDBRANCH  20  21
BRANCH  20  23
ATOM     23  C   UNL     1       3.112   2.258  18.970  0.00  0.00    +0.000 C 
BRANCH  23  24
ATOM     24  N   UNL     1       1.780   2.239  19.623  0.00  0.00    +0.000 NA
BRANCH  24  26
ATOM     25  C   UNL     1       1.532   2.425  22.127  0.00  0.00    +0.000 C 
ATOM     26  C   UNL     1       1.708   3.148  20.793  0.00  0.00    +0.000 C 
ENDBRANCH  24  26
BRANCH  24  27
ATOM     27  C   UNL     1       0.701   2.454  18.614  0.00  0.00    +0.000 C 
ATOM     28  C   UNL     1       0.880   3.705  17.735  0.00  0.00    +0.000 C 
ENDBRANCH  24  27
ENDBRANCH  23  24
ENDBRANCH  20  23
ENDBRANCH   1  20
TORSDOF 8
ENDMDL
MODEL 2
REMARK VINA RESULT:      -7.5      1.451      1.998
REMARK  Name = 
REMARK  11 active torsions:
REMARK  status: ('A' for Active; 'I' for Inactive)
REMARK    1  A    between atoms: C_1  and  C_2
REMARK    2  A    between atoms: C_2  and  N_3
REMARK    3  A    between atoms: N_3  and  C_4
REMARK    4  A    between atoms: N_3  and  C_6
REMARK    5  A    between atoms: C_4  and  C_5
REMARK    6  A    between atoms: C_6  and  C_7
REMARK    7  A    between atoms: C_7  and  O_8
REMARK    8  A    between atoms: C_7  and  C_9
REMARK    9  A    between atoms: C_11  and  C_12
REMARK   10  A    between atoms: C_15  and  O_16
REMARK   11  A    between atoms: O_16  and  C_17
REMARK                            x       y       z     vdW  Elec       q    Type
REMARK                         _______ _______ _______ _____ _____    ______ ____
ROOT
ATOM      1  C   UNL     1       2.792   4.359  17.682  0.00  0.00    +0.000 A 
ATOM      2  C   UNL     1       2.252   5.471  18.329  0.00  0.00    +0.000 A 
ATOM      3  C   UNL     1       2.831   6.735  18.229  0.00  0.00    +0.000 A 
ATOM      4  N   UNL     1       3.955   6.894  17.481  0.00  0.00    +0.000 NA
ATOM      5  C   UNL     1       4.549   5.847  16.847  0.00  0.00    +0.000 A 
ATOM      6  C   UNL     1       5.733   6.057  16.128  0.00  0.00    +0.000 A 
ATOM      7  C   UNL     1       6.356   5.003  15.462  0.00  0.00    +0.000 A 
ATOM      8 CL   UNL     1       7.846   5.270  14.578  0.00  0.00    +0.000 Cl
ATOM      9  C   UNL     1       5.784   3.726  15.499  0.00  0.00    +0.000 A 
ATOM     10  C   UNL     1       4.612   3.494  16.213  0.00  0.00    +0.000 A 
ATOM     11  C   UNL     1       3.975   4.545  16.911  0.00  0.00    +0.000 A 
ENDROOT
BRANCH   3  12
ATOM     12  C   UNL     1       2.161   7.883  18.887  0.00  0.00    +0.000 A 
ATOM     13  C   UNL     1       1.763   7.796  20.238  0.00  0.00    +0.000 A 
ATOM     14  C   UNL     1       1.057   8.825  20.841  0.00  0.00    +0.000 A 
ATOM     15  C   UNL     1       0.714   9.974  20.109  0.00  0.00    +0.000 A 
ATOM     16  C   UNL     1       1.128  10.079  18.772  0.00  0.00    +0.000 A 
ATOM     17  C   UNL     1       1.858   9.047  18.166  0.00  0.00    +0.000 A 
BRANCH  15  18
ATOM     18  O   UNL     1      -0.022  10.975  20.653  0.00  0.00    +0.000 OA
ATOM     19  C   UNL     1      -1.194  11.473  20.118  0.00  0.00    +0.000 C 
ENDBRANCH  15  18
ENDBRANCH   3  12
BRANCH   1  20
ATOM     20  C   UNL     1       2.084   3.007  17.825  0.00  0.00    +0.000 C 
BRANCH  20  21
ATOM     21  O   UNL     1       0.732   3.196  18.146  0.00  0.00    +0.000 OA
ATOM     22  H   UNL     1       0.213   3.027  17.317  0.00  0.00    +0.000 HD
ENDBRANCH  20  21
BRANCH  20  23
ATOM     23  C   UNL     1       2.765   2.008  18.812  0.00  0.00    +0.000 C 
BRANCH  23  24
ATOM     24  N   UNL     1       3.503   2.652  19.926  0.00  0.00    +0.000 NA
BRANCH  24  26
ATOM     25  C   UNL     1       1.968   3.895  21.495  0.00  0.00    +0.000 C 
ATOM     26  C   UNL     1       2.750   2.615  21.203  0.00  0.00    +0.000 C 
ENDBRANCH  24  26
BRANCH  24  27
ATOM     27  C   UNL     1       4.890   2.106  20.018  0.00  0.00    +0.000 C 
ATOM     28  C   UNL     1       5.146   1.198  21.234  0.00  0.00    +0.000 C 
ENDBRANCH  24  27
ENDBRANCH  23  24
ENDBRANCH  20  23
ENDBRANCH   1  20
TORSDOF 8
ENDMDL
MODEL 3
REMARK VINA RESULT:      -7.4      0.513      1.065
REMARK  Name = 
REMARK  11 active torsions:
REMARK  status: ('A' for Active; 'I' for Inactive)
REMARK    1  A    between atoms: C_1  and  C_2
REMARK    2  A    between atoms: C_2  and  N_3
REMARK    3  A    between atoms: N_3  and  C_4
REMARK    4  A    between atoms: N_3  and  C_6
REMARK    5  A    between atoms: C_4  and  C_5
REMARK    6  A    between atoms: C_6  and  C_7
REMARK    7  A    between atoms: C_7  and  O_8
REMARK    8  A    between atoms: C_7  and  C_9
REMARK    9  A    between atoms: C_11  and  C_12
REMARK   10  A    between atoms: C_15  and  O_16
REMARK   11  A    between atoms: O_16  and  C_17
REMARK                            x       y       z     vdW  Elec       q    Type
REMARK                         _______ _______ _______ _____ _____    ______ ____
ROOT
ATOM      1  C   UNL     1       4.045   4.631  18.597  0.00  0.00    +0.000 A 
ATOM      2  C   UNL     1       3.287   5.735  18.989  0.00  0.00    +0.000 A 
ATOM      3  C   UNL     1       3.228   6.898  18.223  0.00  0.00    +0.000 A 
ATOM      4  N   UNL     1       3.927   6.964  17.059  0.00  0.00    +0.000 NA
ATOM      5  C   UNL     1       4.709   5.935  16.633  0.00  0.00    +0.000 A 
ATOM      6  C   UNL     1       5.446   6.073  15.450  0.00  0.00    +0.000 A 
ATOM      7  C   UNL     1       6.247   5.030  14.986  0.00  0.00    +0.000 A 
ATOM      8 CL   UNL     1       7.180   5.217  13.514  0.00  0.00    +0.000 Cl
ATOM      9  C   UNL     1       6.300   3.828  15.700  0.00  0.00    +0.000 A 
ATOM     10  C   UNL     1       5.580   3.672  16.881  0.00  0.00    +0.000 A 
ATOM     11  C   UNL     1       4.778   4.724  17.379  0.00  0.00    +0.000 A 
ENDROOT
BRANCH   3  12
ATOM     12  C   UNL     1       2.345   8.004  18.668  0.00  0.00    +0.000 A 
ATOM     13  C   UNL     1       2.101   9.105  17.821  0.00  0.00    +0.000 A 
ATOM     14  C   UNL     1       1.353  10.187  18.256  0.00  0.00    +0.000 A 
ATOM     15  C   UNL     1       0.830  10.211  19.560  0.00  0.00    +0.000 A 
ATOM     16  C   UNL     1       1.048   9.108  20.400  0.00  0.00    +0.000 A 
ATOM     17  C   UNL     1       1.789   8.005  19.956  0.00  0.00    +0.000 A 
BRANCH  15  18
ATOM     18  O   UNL     1       0.139  11.277  20.034  0.00  0.00    +0.000 OA
ATOM     19  C   UNL     1      -0.122  11.518  21.369  0.00  0.00    +0.000 C 
ENDBRANCH  15  18
ENDBRANCH   3  12
BRANCH   1  20
ATOM     20  C   UNL     1       4.042   3.381  19.484  0.00  0.00    +0.000 C 
BRANCH  20  21
ATOM     21  O   UNL     1       5.351   2.916  19.676  0.00  0.00    +0.000 OA
ATOM     22  H   UNL     1       5.321   2.273  20.433  0.00  0.00    +0.000 HD
ENDBRANCH  20  21
BRANCH  20  23
ATOM     23  C   UNL     1       3.100   2.234  19.004  0.00  0.00    +0.000 C 
BRANCH  23  24
ATOM     24  N   UNL     1       1.760   2.232  19.643  0.00  0.00    +0.000 NA
BRANCH  24  26
ATOM     25  C   UNL     1       1.575   2.441  22.150  0.00  0.00    +0.000 C 
ATOM     26  C   UNL     1       1.682   3.153  20.803  0.00  0.00    +0.000 C 
ENDBRANCH  24  26
BRANCH  24  27
ATOM     27  C   UNL     1       0.695   2.447  18.619  0.00  0.00    +0.000 C 
ATOM     28  C   UNL     1       0.896   3.685  17.727  0.00  0.00    +0.000 C 
ENDBRANCH  24  27
ENDBRANCH  23  24
ENDBRANCH  20  23
ENDBRANCH   1  20
TORSDOF 8
ENDMDL
MODEL 4
REMARK VINA RESULT:      -7.4      1.503      2.147
REMARK  Name = 
REMARK  11 active torsions:
REMARK  status: ('A' for Active; 'I' for Inactive)
REMARK    1  A    between atoms: C_1  and  C_2
REMARK    2  A    between atoms: C_2  and  N_3
REMARK    3  A    between atoms: N_3  and  C_4
REMARK    4  A    between atoms: N_3  and  C_6
REMARK    5  A    between atoms: C_4  and  C_5
REMARK    6  A    between atoms: C_6  and  C_7
REMARK    7  A    between atoms: C_7  and  O_8
REMARK    8  A    between atoms: C_7  and  C_9
REMARK    9  A    between atoms: C_11  and  C_12
REMARK   10  A    between atoms: C_15  and  O_16
REMARK   11  A    between atoms: O_16  and  C_17
REMARK                            x       y       z     vdW  Elec       q    Type
REMARK                         _______ _______ _______ _____ _____    ______ ____
ROOT
ATOM      1  C   UNL     1       2.620   4.527  17.807  0.00  0.00    +0.000 A 
ATOM      2  C   UNL     1       2.073   5.664  18.403  0.00  0.00    +0.000 A 
ATOM      3  C   UNL     1       2.672   6.917  18.289  0.00  0.00    +0.000 A 
ATOM      4  N   UNL     1       3.824   7.041  17.579  0.00  0.00    +0.000 NA
ATOM      5  C   UNL     1       4.426   5.969  16.996  0.00  0.00    +0.000 A 
ATOM      6  C   UNL     1       5.638   6.145  16.315  0.00  0.00    +0.000 A 
ATOM      7  C   UNL     1       6.270   5.064  15.701  0.00  0.00    +0.000 A 
ATOM      8 CL   UNL     1       7.795   5.288  14.866  0.00  0.00    +0.000 Cl
ATOM      9  C   UNL     1       5.681   3.796  15.752  0.00  0.00    +0.000 A 
ATOM     10  C   UNL     1       4.480   3.599  16.429  0.00  0.00    +0.000 A 
ATOM     11  C   UNL     1       3.833   4.676  17.075  0.00  0.00    +0.000 A 
ENDROOT
BRANCH   3  12
ATOM     12  C   UNL     1       1.994   8.091  18.891  0.00  0.00    +0.000 A 
ATOM     13  C   UNL     1       1.786   9.260  18.129  0.00  0.00    +0.000 A 
ATOM     14  C   UNL     1       1.236  10.396  18.702  0.00  0.00    +0.000 A 
ATOM     15  C   UNL     1       0.884  10.406  20.062  0.00  0.00    +0.000 A 
ATOM     16  C   UNL     1       1.066   9.238  20.821  0.00  0.00    +0.000 A 
ATOM     17  C   UNL     1       1.604   8.084  20.238  0.00  0.00    +0.000 A 
BRANCH  15  18
ATOM     18  O   UNL     1       0.394  11.517  20.666  0.00  0.00    +0.000 OA
ATOM     19  C   UNL     1      -0.690  11.535  21.523  0.00  0.00    +0.000 C 
ENDBRANCH  15  18
ENDBRANCH   3  12
BRANCH   1  20
ATOM     20  C   UNL     1       1.890   3.188  17.961  0.00  0.00    +0.000 C 
BRANCH  20  21
ATOM     21  O   UNL     1       0.503   3.376  17.866  0.00  0.00    +0.000 OA
ATOM     22  H   UNL     1       0.075   2.579  18.278  0.00  0.00    +0.000 HD
ENDBRANCH  20  21
BRANCH  20  23
ATOM     23  C   UNL     1       2.263   2.377  19.240  0.00  0.00    +0.000 C 
BRANCH  23  24
ATOM     24  N   UNL     1       3.224   3.060  20.142  0.00  0.00    +0.000 NA
BRANCH  24  26
ATOM     25  C   UNL     1       1.283   2.722  21.717  0.00  0.00    +0.000 C 
ATOM     26  C   UNL     1       2.627   3.399  21.456  0.00  0.00    +0.000 C 
ENDBRANCH  24  26
BRANCH  24  27
ATOM     27  C   UNL     1       4.498   2.285  20.230  0.00  0.00    +0.000 C 
ATOM     28  C   UNL     1       4.586   1.079  19.277  0.00  0.00    +0.000 C 
ENDBRANCH  24  27
ENDBRANCH  23  24
ENDBRANCH  20  23
ENDBRANCH   1  20
TORSDOF 8
ENDMDL
MODEL 5
REMARK VINA RESULT:      -7.3      2.872      4.902
REMARK  Name = 
REMARK  11 active torsions:
REMARK  status: ('A' for Active; 'I' for Inactive)
REMARK    1  A    between atoms: C_1  and  C_2
REMARK    2  A    between atoms: C_2  and  N_3
REMARK    3  A    between atoms: N_3  and  C_4
REMARK    4  A    between atoms: N_3  and  C_6
REMARK    5  A    between atoms: C_4  and  C_5
REMARK    6  A    between atoms: C_6  and  C_7
REMARK    7  A    between atoms: C_7  and  O_8
REMARK    8  A    between atoms: C_7  and  C_9
REMARK    9  A    between atoms: C_11  and  C_12
REMARK   10  A    between atoms: C_15  and  O_16
REMARK   11  A    between atoms: O_16  and  C_17
REMARK                            x       y       z     vdW  Elec       q    Type
REMARK                         _______ _______ _______ _____ _____    ______ ____
ROOT
ATOM      1  C   UNL     1       4.245   6.549  17.127  0.00  0.00    +0.000 A 
ATOM      2  C   UNL     1       3.603   7.724  17.515  0.00  0.00    +0.000 A 
ATOM      3  C   UNL     1       2.446   7.710  18.293  0.00  0.00    +0.000 A 
ATOM      4  N   UNL     1       1.926   6.518  18.688  0.00  0.00    +0.000 NA
ATOM      5  C   UNL     1       2.486   5.334  18.321  0.00  0.00    +0.000 A 
ATOM      6  C   UNL     1       1.881   4.133  18.716  0.00  0.00    +0.000 A 
ATOM      7  C   UNL     1       2.441   2.906  18.362  0.00  0.00    +0.000 A 
ATOM      8 CL   UNL     1       1.670   1.408  18.844  0.00  0.00    +0.000 Cl
ATOM      9  C   UNL     1       3.626   2.874  17.619  0.00  0.00    +0.000 A 
ATOM     10  C   UNL     1       4.240   4.056  17.211  0.00  0.00    +0.000 A 
ATOM     11  C   UNL     1       3.678   5.309  17.543  0.00  0.00    +0.000 A 
ENDROOT
BRANCH   3  12
ATOM     12  C   UNL     1       1.859   9.001  18.725  0.00  0.00    +0.000 A 
ATOM     13  C   UNL     1       2.107  10.179  17.989  0.00  0.00    +0.000 A 
ATOM     14  C   UNL     1       1.640  11.407  18.428  0.00  0.00    +0.000 A 
ATOM     15  C   UNL     1       0.916  11.503  19.629  0.00  0.00    +0.000 A 
ATOM     16  C   UNL     1       0.644  10.332  20.355  0.00  0.00    +0.000 A 
ATOM     17  C   UNL     1       1.100   9.088  19.902  0.00  0.00    +0.000 A 
BRANCH  15  18
ATOM     18  O   UNL     1       0.491  12.696  20.115  0.00  0.00    +0.000 OA
ATOM     19  C   UNL     1      -0.829  13.098  20.173  0.00  0.00    +0.000 C 
ENDBRANCH  15  18
ENDBRANCH   3  12
BRANCH   1  20
ATOM     20  C   UNL     1       5.524   6.649  16.287  0.00  0.00    +0.000 C 
BRANCH  20  21
ATOM     21  O   UNL     1       5.263   6.290  14.957  0.00  0.00    +0.000 OA
ATOM     22  H   UNL     1       5.176   7.135  14.442  0.00  0.00    +0.000 HD
ENDBRANCH  20  21
BRANCH  20  23
ATOM     23  C   UNL     1       6.748   5.866  16.854  0.00  0.00    +0.000 C 
BRANCH  23  24
ATOM     24  N   UNL     1       7.753   6.713  17.544  0.00  0.00    +0.000 NA
BRANCH  24  26
ATOM     25  C   UNL     1       8.421   9.055  18.200  0.00  0.00    +0.000 C 
ATOM     26  C   UNL     1       7.438   8.159  17.449  0.00  0.00    +0.000 C 
ENDBRANCH  24  26
BRANCH  24  27
ATOM     27  C   UNL     1       7.978   6.227  18.937  0.00  0.00    +0.000 C 
ATOM     28  C   UNL     1       6.814   5.413  19.532  0.00  0.00    +0.000 C 
ENDBRANCH  24  27
ENDBRANCH  23  24
ENDBRANCH  20  23
ENDBRANCH   1  20
TORSDOF 8
ENDMDL
MODEL 6
REMARK VINA RESULT:      -7.2      1.376      1.841
REMARK  Name = 
REMARK  11 active torsions:
REMARK  status: ('A' for Active; 'I' for Inactive)
REMARK    1  A    between atoms: C_1  and  C_2
REMARK    2  A    between atoms: C_2  and  N_3
REMARK    3  A    between atoms: N_3  and  C_4
REMARK    4  A    between atoms: N_3  and  C_6
REMARK    5  A    between atoms: C_4  and  C_5
REMARK    6  A    between atoms: C_6  and  C_7
REMARK    7  A    between atoms: C_7  and  O_8
REMARK    8  A    between atoms: C_7  and  C_9
REMARK    9  A    between atoms: C_11  and  C_12
REMARK   10  A    between atoms: C_15  and  O_16
REMARK   11  A    between atoms: O_16  and  C_17
REMARK                            x       y       z     vdW  Elec       q    Type
REMARK                         _______ _______ _______ _____ _____    ______ ____
ROOT
ATOM      1  C   UNL     1       3.499   4.135  17.479  0.00  0.00    +0.000 A 
ATOM      2  C   UNL     1       2.874   5.208  18.116  0.00  0.00    +0.000 A 
ATOM      3  C   UNL     1       3.232   6.529  17.856  0.00  0.00    +0.000 A 
ATOM      4  N   UNL     1       4.218   6.786  16.956  0.00  0.00    +0.000 NA
ATOM      5  C   UNL     1       4.887   5.786  16.320  0.00  0.00    +0.000 A 
ATOM      6  C   UNL     1       5.927   6.106  15.437  0.00  0.00    +0.000 A 
ATOM      7  C   UNL     1       6.622   5.100  14.766  0.00  0.00    +0.000 A 
ATOM      8 CL   UNL     1       7.933   5.506  13.676  0.00  0.00    +0.000 Cl
ATOM      9  C   UNL     1       6.266   3.761  14.963  0.00  0.00    +0.000 A 
ATOM     10  C   UNL     1       5.239   3.423  15.841  0.00  0.00    +0.000 A 
ATOM     11  C   UNL     1       4.536   4.425  16.546  0.00  0.00    +0.000 A 
ENDROOT
BRANCH   3  12
ATOM     12  C   UNL     1       2.476   7.619  18.519  0.00  0.00    +0.000 A 
ATOM     13  C   UNL     1       2.121   7.513  19.880  0.00  0.00    +0.000 A 
ATOM     14  C   UNL     1       1.338   8.480  20.491  0.00  0.00    +0.000 A 
ATOM     15  C   UNL     1       0.873   9.584  19.757  0.00  0.00    +0.000 A 
ATOM     16  C   UNL     1       1.243   9.710  18.408  0.00  0.00    +0.000 A 
ATOM     17  C   UNL     1       2.050   8.742  17.795  0.00  0.00    +0.000 A 
BRANCH  15  18
ATOM     18  O   UNL     1       0.062  10.520  20.309  0.00  0.00    +0.000 OA
ATOM     19  C   UNL     1       0.051  10.863  21.647  0.00  0.00    +0.000 C 
ENDBRANCH  15  18
ENDBRANCH   3  12
BRANCH   1  20
ATOM     20  C   UNL     1       3.034   2.711  17.805  0.00  0.00    +0.000 C 
BRANCH  20  21
ATOM     21  O   UNL     1       2.380   2.147  16.701  0.00  0.00    +0.000 OA
ATOM     22  H   UNL     1       2.573   2.732  15.921  0.00  0.00    +0.000 HD
ENDBRANCH  20  21
BRANCH  20  23
ATOM     23  C   UNL     1       2.174   2.578  19.100  0.00  0.00    +0.000 C 
BRANCH  23  24
ATOM     24  N   UNL     1       2.954   2.290  20.328  0.00  0.00    +0.000 NA
BRANCH  24  26
ATOM     25  C   UNL     1       5.188   1.287  20.937  0.00  0.00    +0.000 C 
ATOM     26  C   UNL     1       4.418   2.297  20.087  0.00  0.00    +0.000 C 
ENDBRANCH  24  26
BRANCH  24  27
ATOM     27  C   UNL     1       2.515   3.177  21.446  0.00  0.00    +0.000 C 
ATOM     28  C   UNL     1       1.332   4.103  21.108  0.00  0.00    +0.000 C 
ENDBRANCH  24  27
ENDBRANCH  23  24
ENDBRANCH  20  23
ENDBRANCH   1  20
TORSDOF 8
ENDMDL
MODEL 7
REMARK VINA RESULT:      -7.1      1.440      2.187
REMARK  Name = 
REMARK  11 active torsions:
REMARK  status: ('A' for Active; 'I' for Inactive)
REMARK    1  A    between atoms: C_1  and  C_2
REMARK    2  A    between atoms: C_2  and  N_3
REMARK    3  A    between atoms: N_3  and  C_4
REMARK    4  A    between atoms: N_3  and  C_6
REMARK    5  A    between atoms: C_4  and  C_5
REMARK    6  A    between atoms: C_6  and  C_7
REMARK    7  A    between atoms: C_7  and  O_8
REMARK    8  A    between atoms: C_7  and  C_9
REMARK    9  A    between atoms: C_11  and  C_12
REMARK   10  A    between atoms: C_15  and  O_16
REMARK   11  A    between atoms: O_16  and  C_17
REMARK                            x       y       z     vdW  Elec       q    Type
REMARK                         _______ _______ _______ _____ _____    ______ ____
ROOT
ATOM      1  C   UNL     1       3.524   4.096  17.462  0.00  0.00    +0.000 A 
ATOM      2  C   UNL     1       2.877   5.160  18.091  0.00  0.00    +0.000 A 
ATOM      3  C   UNL     1       3.204   6.487  17.819  0.00  0.00    +0.000 A 
ATOM      4  N   UNL     1       4.182   6.758  16.914  0.00  0.00    +0.000 NA
ATOM      5  C   UNL     1       4.873   5.768  16.286  0.00  0.00    +0.000 A 
ATOM      6  C   UNL     1       5.904   6.103  15.399  0.00  0.00    +0.000 A 
ATOM      7  C   UNL     1       6.620   5.107  14.735  0.00  0.00    +0.000 A 
ATOM      8 CL   UNL     1       7.920   5.533  13.638  0.00  0.00    +0.000 Cl
ATOM      9  C   UNL     1       6.294   3.763  14.944  0.00  0.00    +0.000 A 
ATOM     10  C   UNL     1       5.277   3.409  15.827  0.00  0.00    +0.000 A 
ATOM     11  C   UNL     1       4.553   4.401  16.525  0.00  0.00    +0.000 A 
ENDROOT
BRANCH   3  12
ATOM     12  C   UNL     1       2.425   7.566  18.474  0.00  0.00    +0.000 A 
ATOM     13  C   UNL     1       2.091   8.736  17.761  0.00  0.00    +0.000 A 
ATOM     14  C   UNL     1       1.441   9.790  18.384  0.00  0.00    +0.000 A 
ATOM     15  C   UNL     1       1.113   9.715  19.748  0.00  0.00    +0.000 A 
ATOM     16  C   UNL     1       1.421   8.543  20.459  0.00  0.00    +0.000 A 
ATOM     17  C   UNL     1       2.060   7.470  19.825  0.00  0.00    +0.000 A 
BRANCH  15  18
ATOM     18  O   UNL     1       0.526  10.748  20.401  0.00  0.00    +0.000 OA
ATOM     19  C   UNL     1       0.066  10.700  21.703  0.00  0.00    +0.000 C 
ENDBRANCH  15  18
ENDBRANCH   3  12
BRANCH   1  20
ATOM     20  C   UNL     1       3.092   2.665  17.802  0.00  0.00    +0.000 C 
BRANCH  20  21
ATOM     21  O   UNL     1       2.234   2.167  16.811  0.00  0.00    +0.000 OA
ATOM     22  H   UNL     1       2.027   2.924  16.201  0.00  0.00    +0.000 HD
ENDBRANCH  20  21
BRANCH  20  23
ATOM     23  C   UNL     1       2.479   2.481  19.224  0.00  0.00    +0.000 C 
BRANCH  23  24
ATOM     24  N   UNL     1       3.445   2.659  20.337  0.00  0.00    +0.000 NA
BRANCH  24  26
ATOM     25  C   UNL     1       1.317   2.730  21.688  0.00  0.00    +0.000 C 
ATOM     26  C   UNL     1       2.821   2.465  21.668  0.00  0.00    +0.000 C 
ENDBRANCH  24  26
BRANCH  24  27
ATOM     27  C   UNL     1       4.664   1.828  20.106  0.00  0.00    +0.000 C 
ATOM     28  C   UNL     1       5.245   1.171  21.371  0.00  0.00    +0.000 C 
ENDBRANCH  24  27
ENDBRANCH  23  24
ENDBRANCH  20  23
ENDBRANCH   1  20
TORSDOF 8
ENDMDL
MODEL 8
REMARK VINA RESULT:      -7.1      1.289      1.992
REMARK  Name = 
REMARK  11 active torsions:
REMARK  status: ('A' for Active; 'I' for Inactive)
REMARK    1  A    between atoms: C_1  and  C_2
REMARK    2  A    between atoms: C_2  and  N_3
REMARK    3  A    between atoms: N_3  and  C_4
REMARK    4  A    between atoms: N_3  and  C_6
REMARK    5  A    between atoms: C_4  and  C_5
REMARK    6  A    between atoms: C_6  and  C_7
REMARK    7  A    between atoms: C_7  and  O_8
REMARK    8  A    between atoms: C_7  and  C_9
REMARK    9  A    between atoms: C_11  and  C_12
REMARK   10  A    between atoms: C_15  and  O_16
REMARK   11  A    between atoms: O_16  and  C_17
REMARK                            x       y       z     vdW  Elec       q    Type
REMARK                         _______ _______ _______ _____ _____    ______ ____
ROOT
ATOM      1  C   UNL     1       3.451   4.038  17.607  0.00  0.00    +0.000 A 
ATOM      2  C   UNL     1       2.801   5.106  18.226  0.00  0.00    +0.000 A 
ATOM      3  C   UNL     1       3.117   6.431  17.933  0.00  0.00    +0.000 A 
ATOM      4  N   UNL     1       4.086   6.697  17.018  0.00  0.00    +0.000 NA
ATOM      5  C   UNL     1       4.779   5.704  16.398  0.00  0.00    +0.000 A 
ATOM      6  C   UNL     1       5.801   6.034  15.498  0.00  0.00    +0.000 A 
ATOM      7  C   UNL     1       6.519   5.035  14.842  0.00  0.00    +0.000 A 
ATOM      8 CL   UNL     1       7.808   5.455  13.731  0.00  0.00    +0.000 Cl
ATOM      9  C   UNL     1       6.205   3.691  15.072  0.00  0.00    +0.000 A 
ATOM     10  C   UNL     1       5.197   3.342  15.968  0.00  0.00    +0.000 A 
ATOM     11  C   UNL     1       4.471   4.338  16.657  0.00  0.00    +0.000 A 
ENDROOT
BRANCH   3  12
ATOM     12  C   UNL     1       2.335   7.513  18.580  0.00  0.00    +0.000 A 
ATOM     13  C   UNL     1       1.944   8.649  17.841  0.00  0.00    +0.000 A 
ATOM     14  C   UNL     1       1.291   9.708  18.452  0.00  0.00    +0.000 A 
ATOM     15  C   UNL     1       1.016   9.672  19.829  0.00  0.00    +0.000 A 
ATOM     16  C   UNL     1       1.379   8.534  20.567  0.00  0.00    +0.000 A 
ATOM     17  C   UNL     1       2.022   7.455  19.946  0.00  0.00    +0.000 A 
BRANCH  15  18
ATOM     18  O   UNL     1       0.426  10.714  20.468  0.00  0.00    +0.000 OA
ATOM     19  C   UNL     1      -0.833  11.203  20.182  0.00  0.00    +0.000 C 
ENDBRANCH  15  18
ENDBRANCH   3  12
BRANCH   1  20
ATOM     20  C   UNL     1       3.032   2.609  17.968  0.00  0.00    +0.000 C 
BRANCH  20  21
ATOM     21  O   UNL     1       2.409   1.992  16.874  0.00  0.00    +0.000 OA
ATOM     22  H   UNL     1       2.759   1.063  16.829  0.00  0.00    +0.000 HD
ENDBRANCH  20  21
BRANCH  20  23
ATOM     23  C   UNL     1       2.163   2.482  19.258  0.00  0.00    +0.000 C 
BRANCH  23  24
ATOM     24  N   UNL     1       2.943   2.319  20.509  0.00  0.00    +0.000 NA
BRANCH  24  26
ATOM     25  C   UNL     1       5.178   1.212  20.886  0.00  0.00    +0.000 C 
ATOM     26  C   UNL     1       4.407   2.383  20.280  0.00  0.00    +0.000 C 
ENDBRANCH  24  26
BRANCH  24  27
ATOM     27  C   UNL     1       2.447   3.257  21.559  0.00  0.00    +0.000 C 
ATOM     28  C   UNL     1       1.266   4.145  21.125  0.00  0.00    +0.000 C 
ENDBRANCH  24  27
ENDBRANCH  23  24
ENDBRANCH  20  23
ENDBRANCH   1  20
TORSDOF 8
ENDMDL
MODEL 9
REMARK VINA RESULT:      -7.1      0.678      1.780
REMARK  Name = 
REMARK  11 active torsions:
REMARK  status: ('A' for Active; 'I' for Inactive)
REMARK    1  A    between atoms: C_1  and  C_2
REMARK    2  A    between atoms: C_2  and  N_3
REMARK    3  A    between atoms: N_3  and  C_4
REMARK    4  A    between atoms: N_3  and  C_6
REMARK    5  A    between atoms: C_4  and  C_5
REMARK    6  A    between atoms: C_6  and  C_7
REMARK    7  A    between atoms: C_7  and  O_8
REMARK    8  A    between atoms: C_7  and  C_9
REMARK    9  A    between atoms: C_11  and  C_12
REMARK   10  A    between atoms: C_15  and  O_16
REMARK   11  A    between atoms: O_16  and  C_17
REMARK                            x       y       z     vdW  Elec       q    Type
REMARK                         _______ _______ _______ _____ _____    ______ ____
ROOT
ATOM      1  C   UNL     1       4.245   4.894  18.844  0.00  0.00    +0.000 A 
ATOM      2  C   UNL     1       3.424   5.972  19.177  0.00  0.00    +0.000 A 
ATOM      3  C   UNL     1       3.222   7.041  18.306  0.00  0.00    +0.000 A 
ATOM      4  N   UNL     1       3.841   7.038  17.096  0.00  0.00    +0.000 NA
ATOM      5  C   UNL     1       4.677   6.033  16.720  0.00  0.00    +0.000 A 
ATOM      6  C   UNL     1       5.327   6.103  15.480  0.00  0.00    +0.000 A 
ATOM      7  C   UNL     1       6.180   5.081  15.067  0.00  0.00    +0.000 A 
ATOM      8 CL   UNL     1       7.003   5.184  13.523  0.00  0.00    +0.000 Cl
ATOM      9  C   UNL     1       6.377   3.967  15.891  0.00  0.00    +0.000 A 
ATOM     10  C   UNL     1       5.746   3.881  17.129  0.00  0.00    +0.000 A 
ATOM     11  C   UNL     1       4.892   4.915  17.575  0.00  0.00    +0.000 A 
ENDROOT
BRANCH   3  12
ATOM     12  C   UNL     1       2.281   8.117  18.700  0.00  0.00    +0.000 A 
ATOM     13  C   UNL     1       1.991   9.171  17.808  0.00  0.00    +0.000 A 
ATOM     14  C   UNL     1       1.184  10.230  18.194  0.00  0.00    +0.000 A 
ATOM     15  C   UNL     1       0.646  10.277  19.491  0.00  0.00    +0.000 A 
ATOM     16  C   UNL     1       0.910   9.219  20.376  0.00  0.00    +0.000 A 
ATOM     17  C   UNL     1       1.710   8.139  19.981  0.00  0.00    +0.000 A 
BRANCH  15  18
ATOM     18  O   UNL     1      -0.103  11.324  19.918  0.00  0.00    +0.000 OA
ATOM     19  C   UNL     1      -0.787  11.368  21.117  0.00  0.00    +0.000 C 
ENDBRANCH  15  18
ENDBRANCH   3  12
BRANCH   1  20
ATOM     20  C   UNL     1       4.400   3.747  19.849  0.00  0.00    +0.000 C 
BRANCH  20  21
ATOM     21  O   UNL     1       5.615   3.077  19.641  0.00  0.00    +0.000 OA
ATOM     22  H   UNL     1       5.463   2.427  18.904  0.00  0.00    +0.000 HD
ENDBRANCH  20  21
BRANCH  20  23
ATOM     23  C   UNL     1       3.204   2.746  19.897  0.00  0.00    +0.000 C 
BRANCH  23  24
ATOM     24  N   UNL     1       1.891   3.342  19.546  0.00  0.00    +0.000 NA
BRANCH  24  26
ATOM     25  C   UNL     1       2.402   2.076  17.425  0.00  0.00    +0.000 C 
ATOM     26  C   UNL     1       1.372   2.848  18.247  0.00  0.00    +0.000 C 
ENDBRANCH  24  26
BRANCH  24  27
ATOM     27  C   UNL     1       0.933   3.198  20.682  0.00  0.00    +0.000 C 
ATOM     28  C   UNL     1       1.531   2.572  21.955  0.00  0.00    +0.000 C 
ENDBRANCH  24  27
ENDBRANCH  23  24
ENDBRANCH  20  23
ENDBRANCH   1  20
TORSDOF 8
ENDMDL
