MODEL 1
REMARK VINA RESULT:      -4.8      0.000      0.000
REMARK  Name = 
REMARK  1 active torsions:
REMARK  status: ('A' for Active; 'I' for Inactive)
REMARK    1  A    between atoms: O_1  and  C_2
REMARK                            x       y       z     vdW  Elec       q    Type
REMARK                         _______ _______ _______ _____ _____    ______ ____
ROOT
ATOM      1  C   UNL     1       1.721   2.923  18.983  0.00  0.00    +0.000 A 
ATOM      2  C   UNL     1       1.942   3.713  17.855  0.00  0.00    +0.000 A 
ATOM      3  C   UNL     1       2.148   5.086  18.005  0.00  0.00    +0.000 A 
ATOM      4  C   UNL     1       2.131   5.659  19.278  0.00  0.00    +0.000 A 
ATOM      5 CL   UNL     1       2.391   7.351  19.452  0.00  0.00    +0.000 Cl
ATOM      6  C   UNL     1       1.908   4.873  20.407  0.00  0.00    +0.000 A 
ATOM      7  C   UNL     1       1.702   3.502  20.258  0.00  0.00    +0.000 A 
ATOM      8 CL   UNL     1       1.430   2.551  21.673  0.00  0.00    +0.000 Cl
ENDROOT
BRANCH   1   9
ATOM      9  O   UNL     1       1.522   1.578  18.842  0.00  0.00    +0.000 OA
ATOM     10  H   UNL     1       0.915   1.412  18.102  0.00  0.00    +0.000 HD
ENDBRANCH   1   9
TORSDOF 1
ENDMDL
MODEL 2
REMARK VINA RESULT:      -4.7      4.481      5.227
REMARK  Name = 
REMARK  1 active torsions:
REMARK  status: ('A' for Active; 'I' for Inactive)
REMARK    1  A    between atoms: O_1  and  C_2
REMARK                            x       y       z     vdW  Elec       q    Type
REMARK                         _______ _______ _______ _____ _____    ______ ____
ROOT
ATOM      1  C   UNL     1       6.754   4.526  17.498  0.00  0.00    +0.000 A 
ATOM      2  C   UNL     1       6.379   5.033  18.742  0.00  0.00    +0.000 A 
ATOM      3  C   UNL     1       5.045   5.380  18.970  0.00  0.00    +0.000 A 
ATOM      4  C   UNL     1       4.100   5.220  17.956  0.00  0.00    +0.000 A 
ATOM      5 CL   UNL     1       2.459   5.646  18.249  0.00  0.00    +0.000 Cl
ATOM      6  C   UNL     1       4.472   4.717  16.711  0.00  0.00    +0.000 A 
ATOM      7  C   UNL     1       5.803   4.370  16.482  0.00  0.00    +0.000 A 
ATOM      8 CL   UNL     1       6.238   3.746  14.932  0.00  0.00    +0.000 Cl
ENDROOT
BRANCH   1   9
ATOM      9  O   UNL     1       8.058   4.182  17.270  0.00  0.00    +0.000 OA
ATOM     10  H   UNL     1       8.336   4.510  16.399  0.00  0.00    +0.000 HD
ENDBRANCH   1   9
TORSDOF 1
ENDMDL
MODEL 3
REMARK VINA RESULT:      -4.6      2.167      2.726
REMARK  Name = 
REMARK  1 active torsions:
REMARK  status: ('A' for Active; 'I' for Inactive)
REMARK    1  A    between atoms: O_1  and  C_2
REMARK                            x       y       z     vdW  Elec       q    Type
REMARK                         _______ _______ _______ _____ _____    ______ ____
ROOT
ATOM      1  C   UNL     1       1.310   3.383  19.412  0.00  0.00    +0.000 A 
ATOM      2  C   UNL     1       1.575   2.409  18.449  0.00  0.00    +0.000 A 
ATOM      3  C   UNL     1       2.581   2.630  17.506  0.00  0.00    +0.000 A 
ATOM      4  C   UNL     1       3.310   3.819  17.529  0.00  0.00    +0.000 A 
ATOM      5 CL   UNL     1       4.550   4.080  16.364  0.00  0.00    +0.000 Cl
ATOM      6  C   UNL     1       3.045   4.796  18.487  0.00  0.00    +0.000 A 
ATOM      7  C   UNL     1       2.042   4.576  19.430  0.00  0.00    +0.000 A 
ATOM      8 CL   UNL     1       1.735   5.801  20.608  0.00  0.00    +0.000 Cl
ENDROOT
BRANCH   1   9
ATOM      9  O   UNL     1       0.329   3.171  20.340  0.00  0.00    +0.000 OA
ATOM     10  H   UNL     1       0.043   4.020  20.715  0.00  0.00    +0.000 HD
ENDBRANCH   1   9
TORSDOF 1
ENDMDL
MODEL 4
REMARK VINA RESULT:      -4.6      4.335      5.357
REMARK  Name = 
REMARK  1 active torsions:
REMARK  status: ('A' for Active; 'I' for Inactive)
REMARK    1  A    between atoms: O_1  and  C_2
REMARK                            x       y       z     vdW  Elec       q    Type
REMARK                         _______ _______ _______ _____ _____    ______ ____
ROOT
ATOM      1  C   UNL     1       6.568   4.850  16.476  0.00  0.00    +0.000 A 
ATOM      2  C   UNL     1       5.565   3.903  16.265  0.00  0.00    +0.000 A 
ATOM      3  C   UNL     1       4.275   4.150  16.739  0.00  0.00    +0.000 A 
ATOM      4  C   UNL     1       3.997   5.336  17.420  0.00  0.00    +0.000 A 
ATOM      5 CL   UNL     1       2.403   5.632  17.997  0.00  0.00    +0.000 Cl
ATOM      6  C   UNL     1       4.997   6.282  17.636  0.00  0.00    +0.000 A 
ATOM      7  C   UNL     1       6.286   6.037  17.162  0.00  0.00    +0.000 A 
ATOM      8 CL   UNL     1       7.506   7.226  17.441  0.00  0.00    +0.000 Cl
ENDROOT
BRANCH   1   9
ATOM      9  O   UNL     1       7.832   4.615  16.011  0.00  0.00    +0.000 OA
ATOM     10  H   UNL     1       7.786   4.187  15.140  0.00  0.00    +0.000 HD
ENDBRANCH   1   9
TORSDOF 1
ENDMDL
MODEL 5
REMARK VINA RESULT:      -4.6      4.301      4.896
REMARK  Name = 
REMARK  1 active torsions:
REMARK  status: ('A' for Active; 'I' for Inactive)
REMARK    1  A    between atoms: O_1  and  C_2
REMARK                            x       y       z     vdW  Elec       q    Type
REMARK                         _______ _______ _______ _____ _____    ______ ____
ROOT
ATOM      1  C   UNL     1       6.712   4.576  17.198  0.00  0.00    +0.000 A 
ATOM      2  C   UNL     1       5.676   4.137  16.373  0.00  0.00    +0.000 A 
ATOM      3  C   UNL     1       4.351   4.325  16.773  0.00  0.00    +0.000 A 
ATOM      4  C   UNL     1       4.071   4.948  17.989  0.00  0.00    +0.000 A 
ATOM      5 CL   UNL     1       2.435   5.179  18.470  0.00  0.00    +0.000 Cl
ATOM      6  C   UNL     1       5.103   5.385  18.817  0.00  0.00    +0.000 A 
ATOM      7  C   UNL     1       6.427   5.198  18.419  0.00  0.00    +0.000 A 
ATOM      8 CL   UNL     1       7.687   5.751  19.462  0.00  0.00    +0.000 Cl
ENDROOT
BRANCH   1   9
ATOM      9  O   UNL     1       8.011   4.397  16.810  0.00  0.00    +0.000 OA
ATOM     10  H   UNL     1       8.063   3.675  16.164  0.00  0.00    +0.000 HD
ENDBRANCH   1   9
TORSDOF 1
ENDMDL
MODEL 6
REMARK VINA RESULT:      -4.6      1.802      2.081
REMARK  Name = 
REMARK  1 active torsions:
REMARK  status: ('A' for Active; 'I' for Inactive)
REMARK    1  A    between atoms: O_1  and  C_2
REMARK                            x       y       z     vdW  Elec       q    Type
REMARK                         _______ _______ _______ _____ _____    ______ ____
ROOT
ATOM      1  C   UNL     1       3.166   2.702  17.965  0.00  0.00    +0.000 A 
ATOM      2  C   UNL     1       4.269   3.463  17.578  0.00  0.00    +0.000 A 
ATOM      3  C   UNL     1       4.175   4.857  17.569  0.00  0.00    +0.000 A 
ATOM      4  C   UNL     1       2.983   5.477  17.944  0.00  0.00    +0.000 A 
ATOM      5 CL   UNL     1       2.879   7.195  17.934  0.00  0.00    +0.000 Cl
ATOM      6  C   UNL     1       1.879   4.721  18.328  0.00  0.00    +0.000 A 
ATOM      7  C   UNL     1       1.971   3.329  18.338  0.00  0.00    +0.000 A 
ATOM      8 CL   UNL     1       0.589   2.414  18.820  0.00  0.00    +0.000 Cl
ENDROOT
BRANCH   1   9
ATOM      9  O   UNL     1       3.254   1.338  17.978  0.00  0.00    +0.000 OA
ATOM     10  H   UNL     1       3.086   1.008  18.876  0.00  0.00    +0.000 HD
ENDBRANCH   1   9
TORSDOF 1
ENDMDL
MODEL 7
REMARK VINA RESULT:      -4.6      1.688      1.875
REMARK  Name = 
REMARK  1 active torsions:
REMARK  status: ('A' for Active; 'I' for Inactive)
REMARK    1  A    between atoms: O_1  and  C_2
REMARK                            x       y       z     vdW  Elec       q    Type
REMARK                         _______ _______ _______ _____ _____    ______ ____
ROOT
ATOM      1  C   UNL     1       2.520   2.781  18.407  0.00  0.00    +0.000 A 
ATOM      2  C   UNL     1       3.524   2.884  17.444  0.00  0.00    +0.000 A 
ATOM      3  C   UNL     1       4.033   4.141  17.112  0.00  0.00    +0.000 A 
ATOM      4  C   UNL     1       3.536   5.283  17.740  0.00  0.00    +0.000 A 
ATOM      5 CL   UNL     1       4.173   6.827  17.326  0.00  0.00    +0.000 Cl
ATOM      6  C   UNL     1       2.531   5.185  18.700  0.00  0.00    +0.000 A 
ATOM      7  C   UNL     1       2.022   3.930  19.033  0.00  0.00    +0.000 A 
ATOM      8 CL   UNL     1       0.778   3.836  20.227  0.00  0.00    +0.000 Cl
ENDROOT
BRANCH   1   9
ATOM      9  O   UNL     1       2.020   1.553  18.739  0.00  0.00    +0.000 OA
ATOM     10  H   UNL     1       1.441   1.232  18.028  0.00  0.00    +0.000 HD
ENDBRANCH   1   9
TORSDOF 1
ENDMDL
MODEL 8
REMARK VINA RESULT:      -4.6      3.102      4.283
REMARK  Name = 
REMARK  1 active torsions:
REMARK  status: ('A' for Active; 'I' for Inactive)
REMARK    1  A    between atoms: O_1  and  C_2
REMARK                            x       y       z     vdW  Elec       q    Type
REMARK                         _______ _______ _______ _____ _____    ______ ____
ROOT
ATOM      1  C   UNL     1       4.881   3.551  18.676  0.00  0.00    +0.000 A 
ATOM      2  C   UNL     1       4.331   2.951  19.809  0.00  0.00    +0.000 A 
ATOM      3  C   UNL     1       2.984   2.586  19.809  0.00  0.00    +0.000 A 
ATOM      4  C   UNL     1       2.197   2.821  18.680  0.00  0.00    +0.000 A 
ATOM      5 CL   UNL     1       0.539   2.362  18.689  0.00  0.00    +0.000 Cl
ATOM      6  C   UNL     1       2.742   3.423  17.548  0.00  0.00    +0.000 A 
ATOM      7  C   UNL     1       4.088   3.789  17.547  0.00  0.00    +0.000 A 
ATOM      8 CL   UNL     1       4.740   4.530  16.130  0.00  0.00    +0.000 Cl
ENDROOT
BRANCH   1   9
ATOM      9  O   UNL     1       6.201   3.909  18.669  0.00  0.00    +0.000 OA
ATOM     10  H   UNL     1       6.620   3.600  17.849  0.00  0.00    +0.000 HD
ENDBRANCH   1   9
TORSDOF 1
ENDMDL
MODEL 9
REMARK VINA RESULT:      -4.5      4.838      5.395
REMARK  Name = 
REMARK  1 active torsions:
REMARK  status: ('A' for Active; 'I' for Inactive)
REMARK    1  A    between atoms: O_1  and  C_2
REMARK                            x       y       z     vdW  Elec       q    Type
REMARK                         _______ _______ _______ _____ _____    ______ ____
ROOT
ATOM      1  C   UNL     1       6.278   4.821  18.393  0.00  0.00    +0.000 A 
ATOM      2  C   UNL     1       7.392   4.753  17.556  0.00  0.00    +0.000 A 
ATOM      3  C   UNL     1       7.215   4.506  16.193  0.00  0.00    +0.000 A 
ATOM      4  C   UNL     1       5.930   4.328  15.678  0.00  0.00    +0.000 A 
ATOM      5 CL   UNL     1       5.723   4.028  13.996  0.00  0.00    +0.000 Cl
ATOM      6  C   UNL     1       4.816   4.393  16.511  0.00  0.00    +0.000 A 
ATOM      7  C   UNL     1       4.991   4.639  17.873  0.00  0.00    +0.000 A 
ATOM      8 CL   UNL     1       3.594   4.717  18.884  0.00  0.00    +0.000 Cl
ENDROOT
BRANCH   1   9
ATOM      9  O   UNL     1       6.446   5.066  19.728  0.00  0.00    +0.000 OA
ATOM     10  H   UNL     1       7.393   5.079  19.943  0.00  0.00    +0.000 HD
ENDBRANCH   1   9
TORSDOF 1
ENDMDL
