MODEL 1
REMARK VINA RESULT:      -7.3      0.000      0.000
REMARK  Name = 
REMARK  3 active torsions:
REMARK  status: ('A' for Active; 'I' for Inactive)
REMARK    1  A    between atoms: C_2  and  C_5
REMARK    2  A    between atoms: C_10  and  N_11
REMARK    3  A    between atoms: C_14  and  N_15
REMARK                            x       y       z     vdW  Elec       q    Type
REMARK                         _______ _______ _______ _____ _____    ______ ____
ROOT
ATOM      1  N   UNL     1      -1.520  11.175  18.413  0.00  0.00    +0.000 N 
ATOM      2  C   UNL     1      -1.227   9.795  18.818  0.00  0.00    +0.000 C 
ATOM      3  C   UNL     1      -0.201   9.740  19.938  0.00  0.00    +0.000 C 
ATOM      4  C   UNL     1       1.065  10.516  19.578  0.00  0.00    +0.000 C 
ATOM      5  C   UNL     1       0.704  11.953  19.231  0.00  0.00    +0.000 C 
ATOM      6  C   UNL     1      -0.385  12.065  18.172  0.00  0.00    +0.000 C 
ENDROOT
BRANCH   4   7
ATOM      7  N   UNL     1       1.830   9.907  18.479  0.00  0.00    +0.000 N 
ATOM      8  C   UNL     1       2.239   8.634  18.615  0.00  0.00    +0.000 A 
ATOM      9  N   UNL     1       1.991   7.807  19.597  0.00  0.00    +0.000 NA
ATOM     10  C   UNL     1       2.624   6.637  19.270  0.00  0.00    +0.000 A 
ATOM     11  C   UNL     1       2.654   5.423  19.965  0.00  0.00    +0.000 A 
ATOM     12  C   UNL     1       3.427   4.388  19.438  0.00  0.00    +0.000 A 
ATOM     13 CL   UNL     1       3.510   2.889  20.283  0.00  0.00    +0.000 Cl
ATOM     14  C   UNL     1       4.139   4.546  18.245  0.00  0.00    +0.000 A 
ATOM     15  C   UNL     1       4.093   5.745  17.525  0.00  0.00    +0.000 A 
ATOM     16  C   UNL     1       3.315   6.767  18.071  0.00  0.00    +0.000 A 
ATOM     17  N   UNL     1       3.031   8.045  17.666  0.00  0.00    +0.000 N 
ATOM     18  H   UNL     1       1.655  10.284  17.553  0.00  0.00    +0.000 HD
ATOM     19  H   UNL     1       3.382   8.505  16.838  0.00  0.00    +0.000 HD
ENDBRANCH   4   7
BRANCH   1  25
ATOM     20  C   UNL     1      -3.842  11.574  17.707  0.00  0.00    +0.000 A 
ATOM     21  C   UNL     1      -5.096  12.124  18.050  0.00  0.00    +0.000 A 
ATOM     22  C   UNL     1      -5.301  12.702  19.292  0.00  0.00    +0.000 A 
ATOM     23  C   UNL     1      -4.233  12.724  20.156  0.00  0.00    +0.000 A 
ATOM     24  N   UNL     1      -3.013  12.235  19.847  0.00  0.00    +0.000 NA
ATOM     25  C   UNL     1      -2.793  11.669  18.631  0.00  0.00    +0.000 A 
BRANCH  20  27
ATOM     26  F   UNL     1      -4.899  10.868  15.679  0.00  0.00    +0.000 F 
ATOM     27  C   UNL     1      -3.738  10.826  16.407  0.00  0.00    +0.000 C 
ATOM     28  F   UNL     1      -3.467   9.498  16.548  0.00  0.00    +0.000 F 
ATOM     29  F   UNL     1      -2.799  11.317  15.549  0.00  0.00    +0.000 F 
ENDBRANCH  20  27
ENDBRANCH   1  25
TORSDOF 3
ENDMDL
MODEL 2
REMARK VINA RESULT:      -7.2      7.561      9.401
REMARK  Name = 
REMARK  3 active torsions:
REMARK  status: ('A' for Active; 'I' for Inactive)
REMARK    1  A    between atoms: C_2  and  C_5
REMARK    2  A    between atoms: C_10  and  N_11
REMARK    3  A    between atoms: C_14  and  N_15
REMARK                            x       y       z     vdW  Elec       q    Type
REMARK                         _______ _______ _______ _____ _____    ______ ____
ROOT
ATOM      1  N   UNL     1       5.033   4.709  18.437  0.00  0.00    +0.000 N 
ATOM      2  C   UNL     1       5.652   4.539  17.117  0.00  0.00    +0.000 C 
ATOM      3  C   UNL     1       7.169   4.539  17.200  0.00  0.00    +0.000 C 
ATOM      4  C   UNL     1       7.692   5.776  17.928  0.00  0.00    +0.000 C 
ATOM      5  C   UNL     1       7.064   5.861  19.312  0.00  0.00    +0.000 C 
ATOM      6  C   UNL     1       5.543   5.779  19.292  0.00  0.00    +0.000 C 
ENDROOT
BRANCH   4   7
ATOM      7  N   UNL     1       7.462   7.027  17.190  0.00  0.00    +0.000 N 
ATOM      8  C   UNL     1       7.955   8.169  17.699  0.00  0.00    +0.000 A 
ATOM      9  N   UNL     1       8.691   8.324  18.769  0.00  0.00    +0.000 NA
ATOM     10  C   UNL     1       8.935   9.669  18.864  0.00  0.00    +0.000 A 
ATOM     11  C   UNL     1       9.695  10.365  19.810  0.00  0.00    +0.000 A 
ATOM     12  C   UNL     1       9.741  11.756  19.714  0.00  0.00    +0.000 A 
ATOM     13 CL   UNL     1      10.644  12.648  20.879  0.00  0.00    +0.000 Cl
ATOM     14  C   UNL     1       9.064  12.439  18.698  0.00  0.00    +0.000 A 
ATOM     15  C   UNL     1       8.326  11.752  17.728  0.00  0.00    +0.000 A 
ATOM     16  C   UNL     1       8.293  10.361  17.844  0.00  0.00    +0.000 A 
ATOM     17  N   UNL     1       7.695   9.375  17.105  0.00  0.00    +0.000 N 
ATOM     18  H   UNL     1       7.340   6.935  16.186  0.00  0.00    +0.000 HD
ATOM     19  H   UNL     1       7.114   9.504  16.287  0.00  0.00    +0.000 HD
ENDBRANCH   4   7
BRANCH   1  25
ATOM     20  C   UNL     1       2.938   3.437  18.646  0.00  0.00    +0.000 A 
ATOM     21  C   UNL     1       2.286   2.336  19.244  0.00  0.00    +0.000 A 
ATOM     22  C   UNL     1       2.976   1.472  20.078  0.00  0.00    +0.000 A 
ATOM     23  C   UNL     1       4.304   1.744  20.301  0.00  0.00    +0.000 A 
ATOM     24  N   UNL     1       4.948   2.805  19.769  0.00  0.00    +0.000 NA
ATOM     25  C   UNL     1       4.285   3.666  18.953  0.00  0.00    +0.000 A 
BRANCH  20  27
ATOM     26  F   UNL     1       2.505   3.922  16.343  0.00  0.00    +0.000 F 
ATOM     27  C   UNL     1       2.169   4.238  17.633  0.00  0.00    +0.000 C 
ATOM     28  F   UNL     1       2.365   5.584  17.721  0.00  0.00    +0.000 F 
ATOM     29  F   UNL     1       0.819   4.048  17.673  0.00  0.00    +0.000 F 
ENDBRANCH  20  27
ENDBRANCH   1  25
TORSDOF 3
ENDMDL
MODEL 3
REMARK VINA RESULT:      -7.2      5.388      9.539
REMARK  Name = 
REMARK  3 active torsions:
REMARK  status: ('A' for Active; 'I' for Inactive)
REMARK    1  A    between atoms: C_2  and  C_5
REMARK    2  A    between atoms: C_10  and  N_11
REMARK    3  A    between atoms: C_14  and  N_15
REMARK                            x       y       z     vdW  Elec       q    Type
REMARK                         _______ _______ _______ _____ _____    ______ ____
ROOT
ATOM      1  N   UNL     1       4.625   5.901  17.699  0.00  0.00    +0.000 N 
ATOM      2  C   UNL     1       3.517   5.067  18.180  0.00  0.00    +0.000 C 
ATOM      3  C   UNL     1       2.165   5.670  17.835  0.00  0.00    +0.000 C 
ATOM      4  C   UNL     1       2.054   7.114  18.321  0.00  0.00    +0.000 C 
ATOM      5  C   UNL     1       3.191   7.940  17.739  0.00  0.00    +0.000 C 
ATOM      6  C   UNL     1       4.567   7.334  17.982  0.00  0.00    +0.000 C 
ENDROOT
BRANCH   4   7
ATOM      7  N   UNL     1       2.038   7.236  19.787  0.00  0.00    +0.000 N 
ATOM      8  C   UNL     1       1.269   8.189  20.340  0.00  0.00    +0.000 A 
ATOM      9  N   UNL     1       0.454   9.017  19.741  0.00  0.00    +0.000 NA
ATOM     10  C   UNL     1      -0.094   9.786  20.733  0.00  0.00    +0.000 A 
ATOM     11  C   UNL     1      -1.049  10.804  20.637  0.00  0.00    +0.000 A 
ATOM     12  C   UNL     1      -1.403  11.479  21.806  0.00  0.00    +0.000 A 
ATOM     13 CL   UNL     1      -2.555  12.758  21.721  0.00  0.00    +0.000 Cl
ATOM     14  C   UNL     1      -0.839  11.142  23.040  0.00  0.00    +0.000 A 
ATOM     15  C   UNL     1       0.094  10.106  23.154  0.00  0.00    +0.000 A 
ATOM     16  C   UNL     1       0.435   9.446  21.972  0.00  0.00    +0.000 A 
ATOM     17  N   UNL     1       1.285   8.408  21.691  0.00  0.00    +0.000 N 
ATOM     18  H   UNL     1       2.239   6.387  20.305  0.00  0.00    +0.000 HD
ATOM     19  H   UNL     1       1.870   7.915  22.352  0.00  0.00    +0.000 HD
ENDBRANCH   4   7
BRANCH   1  25
ATOM     20  C   UNL     1       6.818   5.123  16.901  0.00  0.00    +0.000 A 
ATOM     21  C   UNL     1       7.557   4.606  15.814  0.00  0.00    +0.000 A 
ATOM     22  C   UNL     1       6.939   4.324  14.607  0.00  0.00    +0.000 A 
ATOM     23  C   UNL     1       5.592   4.581  14.518  0.00  0.00    +0.000 A 
ATOM     24  N   UNL     1       4.864   5.103  15.528  0.00  0.00    +0.000 NA
ATOM     25  C   UNL     1       5.455   5.391  16.717  0.00  0.00    +0.000 A 
BRANCH  20  27
ATOM     26  F   UNL     1       8.559   4.375  18.362  0.00  0.00    +0.000 F 
ATOM     27  C   UNL     1       7.520   5.257  18.223  0.00  0.00    +0.000 C 
ATOM     28  F   UNL     1       6.723   5.024  19.303  0.00  0.00    +0.000 F 
ATOM     29  F   UNL     1       8.098   6.475  18.432  0.00  0.00    +0.000 F 
ENDBRANCH  20  27
ENDBRANCH   1  25
TORSDOF 3
ENDMDL
MODEL 4
REMARK VINA RESULT:      -7.1      6.988      9.185
REMARK  Name = 
REMARK  3 active torsions:
REMARK  status: ('A' for Active; 'I' for Inactive)
REMARK    1  A    between atoms: C_2  and  C_5
REMARK    2  A    between atoms: C_10  and  N_11
REMARK    3  A    between atoms: C_14  and  N_15
REMARK                            x       y       z     vdW  Elec       q    Type
REMARK                         _______ _______ _______ _____ _____    ______ ____
ROOT
ATOM      1  N   UNL     1       4.688   4.805  18.055  0.00  0.00    +0.000 N 
ATOM      2  C   UNL     1       5.333   4.679  16.742  0.00  0.00    +0.000 C 
ATOM      3  C   UNL     1       6.846   4.594  16.863  0.00  0.00    +0.000 C 
ATOM      4  C   UNL     1       7.412   5.759  17.674  0.00  0.00    +0.000 C 
ATOM      5  C   UNL     1       6.751   5.797  19.045  0.00  0.00    +0.000 C 
ATOM      6  C   UNL     1       5.229   5.796  18.984  0.00  0.00    +0.000 C 
ENDROOT
BRANCH   4   7
ATOM      7  N   UNL     1       7.266   7.060  17.006  0.00  0.00    +0.000 N 
ATOM      8  C   UNL     1       7.821   8.140  17.582  0.00  0.00    +0.000 A 
ATOM      9  N   UNL     1       8.552   8.191  18.665  0.00  0.00    +0.000 NA
ATOM     10  C   UNL     1       8.876   9.510  18.837  0.00  0.00    +0.000 A 
ATOM     11  C   UNL     1       9.666  10.105  19.826  0.00  0.00    +0.000 A 
ATOM     12  C   UNL     1       9.797  11.494  19.809  0.00  0.00    +0.000 A 
ATOM     13 CL   UNL     1      10.739  12.264  21.030  0.00  0.00    +0.000 Cl
ATOM     14  C   UNL     1       9.174  12.272  18.828  0.00  0.00    +0.000 A 
ATOM     15  C   UNL     1       8.407  11.686  17.815  0.00  0.00    +0.000 A 
ATOM     16  C   UNL     1       8.289  10.296  17.853  0.00  0.00    +0.000 A 
ATOM     17  N   UNL     1       7.641   9.390  17.054  0.00  0.00    +0.000 N 
ATOM     18  H   UNL     1       7.150   7.032  15.998  0.00  0.00    +0.000 HD
ATOM     19  H   UNL     1       7.078   9.600  16.241  0.00  0.00    +0.000 HD
ENDBRANCH   4   7
BRANCH   1  25
ATOM     20  C   UNL     1       2.702   3.959  19.234  0.00  0.00    +0.000 A 
ATOM     21  C   UNL     1       1.961   2.821  19.621  0.00  0.00    +0.000 A 
ATOM     22  C   UNL     1       2.358   1.552  19.233  0.00  0.00    +0.000 A 
ATOM     23  C   UNL     1       3.499   1.457  18.473  0.00  0.00    +0.000 A 
ATOM     24  N   UNL     1       4.246   2.523  18.113  0.00  0.00    +0.000 NA
ATOM     25  C   UNL     1       3.875   3.775  18.490  0.00  0.00    +0.000 A 
BRANCH  20  27
ATOM     26  F   UNL     1       0.909   5.232  20.180  0.00  0.00    +0.000 F 
ATOM     27  C   UNL     1       2.128   5.310  19.559  0.00  0.00    +0.000 C 
ATOM     28  F   UNL     1       1.911   6.100  18.470  0.00  0.00    +0.000 F 
ATOM     29  F   UNL     1       2.884   6.050  20.420  0.00  0.00    +0.000 F 
ENDBRANCH  20  27
ENDBRANCH   1  25
TORSDOF 3
ENDMDL
MODEL 5
REMARK VINA RESULT:      -7.1      3.312      4.104
REMARK  Name = 
REMARK  3 active torsions:
REMARK  status: ('A' for Active; 'I' for Inactive)
REMARK    1  A    between atoms: C_2  and  C_5
REMARK    2  A    between atoms: C_10  and  N_11
REMARK    3  A    between atoms: C_14  and  N_15
REMARK                            x       y       z     vdW  Elec       q    Type
REMARK                         _______ _______ _______ _____ _____    ______ ____
ROOT
ATOM      1  N   UNL     1      -0.005  12.148  19.983  0.00  0.00    +0.000 N 
ATOM      2  C   UNL     1       1.444  11.933  19.892  0.00  0.00    +0.000 C 
ATOM      3  C   UNL     1       1.833  11.253  18.590  0.00  0.00    +0.000 C 
ATOM      4  C   UNL     1       1.044   9.963  18.372  0.00  0.00    +0.000 C 
ATOM      5  C   UNL     1      -0.448  10.262  18.414  0.00  0.00    +0.000 C 
ATOM      6  C   UNL     1      -0.879  11.020  19.662  0.00  0.00    +0.000 C 
ENDROOT
BRANCH   4   7
ATOM      7  N   UNL     1       1.377   8.906  19.339  0.00  0.00    +0.000 N 
ATOM      8  C   UNL     1       2.226   7.937  18.959  0.00  0.00    +0.000 A 
ATOM      9  N   UNL     1       2.873   7.828  17.828  0.00  0.00    +0.000 NA
ATOM     10  C   UNL     1       3.607   6.676  17.926  0.00  0.00    +0.000 A 
ATOM     11  C   UNL     1       4.495   6.112  17.003  0.00  0.00    +0.000 A 
ATOM     12  C   UNL     1       5.081   4.888  17.325  0.00  0.00    +0.000 A 
ATOM     13 CL   UNL     1       6.157   4.150  16.200  0.00  0.00    +0.000 Cl
ATOM     14  C   UNL     1       4.806   4.246  18.537  0.00  0.00    +0.000 A 
ATOM     15  C   UNL     1       3.945   4.814  19.481  0.00  0.00    +0.000 A 
ATOM     16  C   UNL     1       3.369   6.039  19.137  0.00  0.00    +0.000 A 
ATOM     17  N   UNL     1       2.501   6.879  19.784  0.00  0.00    +0.000 N 
ATOM     18  H   UNL     1       1.312   9.164  20.319  0.00  0.00    +0.000 HD
ATOM     19  H   UNL     1       2.085   6.730  20.694  0.00  0.00    +0.000 HD
ENDBRANCH   4   7
BRANCH   1  25
ATOM     20  C   UNL     1      -1.279  13.979  21.019  0.00  0.00    +0.000 A 
ATOM     21  C   UNL     1      -1.701  15.323  20.916  0.00  0.00    +0.000 A 
ATOM     22  C   UNL     1      -1.292  16.114  19.855  0.00  0.00    +0.000 A 
ATOM     23  C   UNL     1      -0.477  15.529  18.916  0.00  0.00    +0.000 A 
ATOM     24  N   UNL     1      -0.082  14.239  18.970  0.00  0.00    +0.000 NA
ATOM     25  C   UNL     1      -0.478  13.447  20.000  0.00  0.00    +0.000 A 
BRANCH  20  27
ATOM     26  F   UNL     1      -2.146  14.045  23.249  0.00  0.00    +0.000 F 
ATOM     27  C   UNL     1      -1.634  13.230  22.274  0.00  0.00    +0.000 C 
ATOM     28  F   UNL     1      -0.579  12.604  22.866  0.00  0.00    +0.000 F 
ATOM     29  F   UNL     1      -2.596  12.278  22.107  0.00  0.00    +0.000 F 
ENDBRANCH  20  27
ENDBRANCH   1  25
TORSDOF 3
ENDMDL
MODEL 6
REMARK VINA RESULT:      -7.1      8.125      9.894
REMARK  Name = 
REMARK  3 active torsions:
REMARK  status: ('A' for Active; 'I' for Inactive)
REMARK    1  A    between atoms: C_2  and  C_5
REMARK    2  A    between atoms: C_10  and  N_11
REMARK    3  A    between atoms: C_14  and  N_15
REMARK                            x       y       z     vdW  Elec       q    Type
REMARK                         _______ _______ _______ _____ _____    ______ ____
ROOT
ATOM      1  N   UNL     1       5.600   5.210  18.428  0.00  0.00    +0.000 N 
ATOM      2  C   UNL     1       5.321   6.650  18.474  0.00  0.00    +0.000 C 
ATOM      3  C   UNL     1       6.081   7.407  17.397  0.00  0.00    +0.000 C 
ATOM      4  C   UNL     1       7.578   7.107  17.450  0.00  0.00    +0.000 C 
ATOM      5  C   UNL     1       7.804   5.606  17.333  0.00  0.00    +0.000 C 
ATOM      6  C   UNL     1       6.998   4.793  18.336  0.00  0.00    +0.000 C 
ENDROOT
BRANCH   4   7
ATOM      7  N   UNL     1       8.235   7.626  18.659  0.00  0.00    +0.000 N 
ATOM      8  C   UNL     1       8.600   8.919  18.682  0.00  0.00    +0.000 A 
ATOM      9  N   UNL     1       8.393   9.833  17.770  0.00  0.00    +0.000 NA
ATOM     10  C   UNL     1       8.951  10.984  18.259  0.00  0.00    +0.000 A 
ATOM     11  C   UNL     1       8.983  12.262  17.692  0.00  0.00    +0.000 A 
ATOM     12  C   UNL     1       9.673  13.263  18.377  0.00  0.00    +0.000 A 
ATOM     13 CL   UNL     1       9.757  14.843  17.694  0.00  0.00    +0.000 Cl
ATOM     14  C   UNL     1      10.301  13.008  19.600  0.00  0.00    +0.000 A 
ATOM     15  C   UNL     1      10.251  11.742  20.192  0.00  0.00    +0.000 A 
ATOM     16  C   UNL     1       9.557  10.755  19.489  0.00  0.00    +0.000 A 
ATOM     17  N   UNL     1       9.296   9.434  19.742  0.00  0.00    +0.000 N 
ATOM     18  H   UNL     1       8.007   7.151  19.526  0.00  0.00    +0.000 HD
ATOM     19  H   UNL     1       9.604   8.904  20.546  0.00  0.00    +0.000 HD
ENDBRANCH   4   7
BRANCH   1  25
ATOM     20  C   UNL     1       4.262   3.937  16.804  0.00  0.00    +0.000 A 
ATOM     21  C   UNL     1       3.175   3.056  16.610  0.00  0.00    +0.000 A 
ATOM     22  C   UNL     1       2.455   2.571  17.689  0.00  0.00    +0.000 A 
ATOM     23  C   UNL     1       2.838   2.994  18.939  0.00  0.00    +0.000 A 
ATOM     24  N   UNL     1       3.853   3.859  19.155  0.00  0.00    +0.000 NA
ATOM     25  C   UNL     1       4.566   4.349  18.108  0.00  0.00    +0.000 A 
BRANCH  20  27
ATOM     26  F   UNL     1       4.539   3.862  14.428  0.00  0.00    +0.000 F 
ATOM     27  C   UNL     1       5.092   4.297  15.603  0.00  0.00    +0.000 C 
ATOM     28  F   UNL     1       6.346   3.765  15.613  0.00  0.00    +0.000 F 
ATOM     29  F   UNL     1       5.250   5.638  15.411  0.00  0.00    +0.000 F 
ENDBRANCH  20  27
ENDBRANCH   1  25
TORSDOF 3
ENDMDL
MODEL 7
REMARK VINA RESULT:      -7.0      4.887      9.239
REMARK  Name = 
REMARK  3 active torsions:
REMARK  status: ('A' for Active; 'I' for Inactive)
REMARK    1  A    between atoms: C_2  and  C_5
REMARK    2  A    between atoms: C_10  and  N_11
REMARK    3  A    between atoms: C_14  and  N_15
REMARK                            x       y       z     vdW  Elec       q    Type
REMARK                         _______ _______ _______ _____ _____    ______ ____
ROOT
ATOM      1  N   UNL     1       4.605   6.015  18.171  0.00  0.00    +0.000 N 
ATOM      2  C   UNL     1       4.495   5.236  19.411  0.00  0.00    +0.000 C 
ATOM      3  C   UNL     1       3.076   4.746  19.645  0.00  0.00    +0.000 C 
ATOM      4  C   UNL     1       2.069   5.893  19.594  0.00  0.00    +0.000 C 
ATOM      5  C   UNL     1       2.187   6.619  18.261  0.00  0.00    +0.000 C 
ATOM      6  C   UNL     1       3.609   7.059  17.936  0.00  0.00    +0.000 C 
ENDROOT
BRANCH   4   7
ATOM      7  N   UNL     1       2.212   6.846  20.705  0.00  0.00    +0.000 N 
ATOM      8  C   UNL     1       1.471   7.966  20.685  0.00  0.00    +0.000 A 
ATOM      9  N   UNL     1       0.560   8.316  19.815  0.00  0.00    +0.000 NA
ATOM     10  C   UNL     1       0.095   9.536  20.229  0.00  0.00    +0.000 A 
ATOM     11  C   UNL     1      -0.906  10.337  19.670  0.00  0.00    +0.000 A 
ATOM     12  C   UNL     1      -1.155  11.577  20.260  0.00  0.00    +0.000 A 
ATOM     13 CL   UNL     1      -2.361  12.603  19.580  0.00  0.00    +0.000 Cl
ATOM     14  C   UNL     1      -0.442  12.005  21.385  0.00  0.00    +0.000 A 
ATOM     15  C   UNL     1       0.540  11.199  21.971  0.00  0.00    +0.000 A 
ATOM     16  C   UNL     1       0.773   9.964  21.364  0.00  0.00    +0.000 A 
ATOM     17  N   UNL     1       1.629   8.931  21.643  0.00  0.00    +0.000 N 
ATOM     18  H   UNL     1       2.506   6.451  21.593  0.00  0.00    +0.000 HD
ATOM     19  H   UNL     1       2.304   8.896  22.395  0.00  0.00    +0.000 HD
ENDBRANCH   4   7
BRANCH   1  25
ATOM     20  C   UNL     1       6.618   6.036  16.757  0.00  0.00    +0.000 A 
ATOM     21  C   UNL     1       7.308   5.428  15.686  0.00  0.00    +0.000 A 
ATOM     22  C   UNL     1       6.794   4.305  15.059  0.00  0.00    +0.000 A 
ATOM     23  C   UNL     1       5.591   3.827  15.518  0.00  0.00    +0.000 A 
ATOM     24  N   UNL     1       4.892   4.403  16.520  0.00  0.00    +0.000 NA
ATOM     25  C   UNL     1       5.378   5.509  17.142  0.00  0.00    +0.000 A 
BRANCH  20  27
ATOM     26  F   UNL     1       8.385   7.650  16.802  0.00  0.00    +0.000 F 
ATOM     27  C   UNL     1       7.308   7.154  17.488  0.00  0.00    +0.000 C 
ATOM     28  F   UNL     1       7.808   6.798  18.705  0.00  0.00    +0.000 F 
ATOM     29  F   UNL     1       6.528   8.251  17.705  0.00  0.00    +0.000 F 
ENDBRANCH  20  27
ENDBRANCH   1  25
TORSDOF 3
ENDMDL
MODEL 8
REMARK VINA RESULT:      -6.9      3.488      4.258
REMARK  Name = 
REMARK  3 active torsions:
REMARK  status: ('A' for Active; 'I' for Inactive)
REMARK    1  A    between atoms: C_2  and  C_5
REMARK    2  A    between atoms: C_10  and  N_11
REMARK    3  A    between atoms: C_14  and  N_15
REMARK                            x       y       z     vdW  Elec       q    Type
REMARK                         _______ _______ _______ _____ _____    ______ ____
ROOT
ATOM      1  N   UNL     1      -0.057  12.754  19.993  0.00  0.00    +0.000 N 
ATOM      2  C   UNL     1       1.382  12.462  19.974  0.00  0.00    +0.000 C 
ATOM      3  C   UNL     1       1.784  11.688  18.729  0.00  0.00    +0.000 C 
ATOM      4  C   UNL     1       0.937  10.429  18.552  0.00  0.00    +0.000 C 
ATOM      5  C   UNL     1      -0.537  10.804  18.515  0.00  0.00    +0.000 C 
ATOM      6  C   UNL     1      -0.975  11.655  19.700  0.00  0.00    +0.000 C 
ENDROOT
BRANCH   4   7
ATOM      7  N   UNL     1       1.176   9.415  19.590  0.00  0.00    +0.000 N 
ATOM      8  C   UNL     1       1.884   8.321  19.262  0.00  0.00    +0.000 A 
ATOM      9  N   UNL     1       2.465   8.046  18.124  0.00  0.00    +0.000 NA
ATOM     10  C   UNL     1       3.055   6.821  18.290  0.00  0.00    +0.000 A 
ATOM     11  C   UNL     1       3.828   6.082  17.388  0.00  0.00    +0.000 A 
ATOM     12  C   UNL     1       4.272   4.821  17.789  0.00  0.00    +0.000 A 
ATOM     13 CL   UNL     1       5.202   3.871  16.693  0.00  0.00    +0.000 Cl
ATOM     14  C   UNL     1       3.970   4.313  19.057  0.00  0.00    +0.000 A 
ATOM     15  C   UNL     1       3.225   5.055  19.978  0.00  0.00    +0.000 A 
ATOM     16  C   UNL     1       2.790   6.312  19.556  0.00  0.00    +0.000 A 
ATOM     17  N   UNL     1       2.060   7.302  20.160  0.00  0.00    +0.000 N 
ATOM     18  H   UNL     1       1.185   9.752  20.547  0.00  0.00    +0.000 HD
ATOM     19  H   UNL     1       1.667   7.276  21.091  0.00  0.00    +0.000 HD
ENDBRANCH   4   7
BRANCH   1  25
ATOM     20  C   UNL     1      -1.174  14.737  20.925  0.00  0.00    +0.000 A 
ATOM     21  C   UNL     1      -1.532  16.088  20.723  0.00  0.00    +0.000 A 
ATOM     22  C   UNL     1      -1.145  16.759  19.575  0.00  0.00    +0.000 A 
ATOM     23  C   UNL     1      -0.417  16.050  18.651  0.00  0.00    +0.000 A 
ATOM     24  N   UNL     1      -0.085  14.750  18.800  0.00  0.00    +0.000 NA
ATOM     25  C   UNL     1      -0.462  14.074  19.918  0.00  0.00    +0.000 A 
BRANCH  20  27
ATOM     26  F   UNL     1      -2.462  13.156  22.178  0.00  0.00    +0.000 F 
ATOM     27  C   UNL     1      -1.494  14.122  22.259  0.00  0.00    +0.000 C 
ATOM     28  F   UNL     1      -1.965  15.007  23.182  0.00  0.00    +0.000 F 
ATOM     29  F   UNL     1      -0.444  13.481  22.848  0.00  0.00    +0.000 F 
ENDBRANCH  20  27
ENDBRANCH   1  25
TORSDOF 3
ENDMDL
MODEL 9
REMARK VINA RESULT:      -6.9     10.233     11.169
REMARK  Name = 
REMARK  3 active torsions:
REMARK  status: ('A' for Active; 'I' for Inactive)
REMARK    1  A    between atoms: C_2  and  C_5
REMARK    2  A    between atoms: C_10  and  N_11
REMARK    3  A    between atoms: C_14  and  N_15
REMARK                            x       y       z     vdW  Elec       q    Type
REMARK                         _______ _______ _______ _____ _____    ______ ____
ROOT
ATOM      1  N   UNL     1       6.144  12.574  25.515  0.00  0.00    +0.000 N 
ATOM      2  C   UNL     1       7.439  11.970  25.853  0.00  0.00    +0.000 C 
ATOM      3  C   UNL     1       8.602  12.821  25.368  0.00  0.00    +0.000 C 
ATOM      4  C   UNL     1       8.484  13.137  23.878  0.00  0.00    +0.000 C 
ATOM      5  C   UNL     1       7.150  13.817  23.603  0.00  0.00    +0.000 C 
ATOM      6  C   UNL     1       5.954  13.047  24.145  0.00  0.00    +0.000 C 
ENDROOT
BRANCH   4   7
ATOM      7  N   UNL     1       8.636  11.954  23.017  0.00  0.00    +0.000 N 
ATOM      8  C   UNL     1       9.275  12.097  21.844  0.00  0.00    +0.000 A 
ATOM      9  N   UNL     1       9.856  13.166  21.366  0.00  0.00    +0.000 NA
ATOM     10  C   UNL     1      10.360  12.805  20.145  0.00  0.00    +0.000 A 
ATOM     11  C   UNL     1      11.098  13.566  19.232  0.00  0.00    +0.000 A 
ATOM     12  C   UNL     1      11.449  12.971  18.020  0.00  0.00    +0.000 A 
ATOM     13 CL   UNL     1      12.333  13.888  16.859  0.00  0.00    +0.000 Cl
ATOM     14  C   UNL     1      11.093  11.651  17.726  0.00  0.00    +0.000 A 
ATOM     15  C   UNL     1      10.382  10.870  18.643  0.00  0.00    +0.000 A 
ATOM     16  C   UNL     1      10.040  11.485  19.849  0.00  0.00    +0.000 A 
ATOM     17  N   UNL     1       9.367  11.054  20.961  0.00  0.00    +0.000 N 
ATOM     18  H   UNL     1       8.650  11.058  23.493  0.00  0.00    +0.000 HD
ATOM     19  H   UNL     1       8.957  10.140  21.100  0.00  0.00    +0.000 HD
ENDBRANCH   4   7
BRANCH   1  25
ATOM     20  C   UNL     1       4.475  12.154  27.273  0.00  0.00    +0.000 A 
ATOM     21  C   UNL     1       3.687  12.713  28.302  0.00  0.00    +0.000 A 
ATOM     22  C   UNL     1       3.787  14.057  28.620  0.00  0.00    +0.000 A 
ATOM     23  C   UNL     1       4.670  14.811  27.886  0.00  0.00    +0.000 A 
ATOM     24  N   UNL     1       5.416  14.313  26.876  0.00  0.00    +0.000 NA
ATOM     25  C   UNL     1       5.326  12.997  26.547  0.00  0.00    +0.000 A 
BRANCH  20  27
ATOM     26  F   UNL     1       4.478  10.291  25.770  0.00  0.00    +0.000 F 
ATOM     27  C   UNL     1       4.428  10.663  27.088  0.00  0.00    +0.000 C 
ATOM     28  F   UNL     1       3.295  10.077  27.569  0.00  0.00    +0.000 F 
ATOM     29  F   UNL     1       5.472   9.993  27.655  0.00  0.00    +0.000 F 
ENDBRANCH  20  27
ENDBRANCH   1  25
TORSDOF 3
ENDMDL
