MODEL 1
REMARK VINA RESULT:      -8.2      0.000      0.000
REMARK  Name = 
REMARK  5 active torsions:
REMARK  status: ('A' for Active; 'I' for Inactive)
REMARK    1  A    between atoms: C_1  and  C_2
REMARK    2  A    between atoms: C_7  and  C_8
REMARK    3  A    between atoms: N_16  and  C_17
REMARK    4  A    between atoms: C_17  and  C_18
REMARK    5  A    between atoms: C_18  and  N_19
REMARK                            x       y       z     vdW  Elec       q    Type
REMARK                         _______ _______ _______ _____ _____    ______ ____
ROOT
ATOM      1  C   UNL     1       4.392   3.677  17.177  0.00  0.00    +0.000 A 
ATOM      2  C   UNL     1       4.223   2.336  17.541  0.00  0.00    +0.000 A 
ATOM      3  C   UNL     1       3.265   1.947  18.488  0.00  0.00    +0.000 A 
ATOM      4  C   UNL     1       2.505   2.872  19.181  0.00  0.00    +0.000 A 
ATOM      5  N   UNL     1       1.672   2.412  20.115  0.00  0.00    +0.000 NA
ATOM      6  C   UNL     1       1.028   3.333  20.834  0.00  0.00    +0.000 A 
ATOM      7  N   UNL     1       1.133   4.657  20.705  0.00  0.00    +0.000 NA
ATOM      8  C   UNL     1       1.963   5.116  19.754  0.00  0.00    +0.000 A 
ATOM      9  N   UNL     1       2.103   6.517  19.614  0.00  0.00    +0.000 N 
ATOM     10  C   UNL     1       2.680   4.236  18.909  0.00  0.00    +0.000 A 
ATOM     11  C   UNL     1       3.587   4.606  17.879  0.00  0.00    +0.000 A 
ATOM     12  H   UNL     1       1.681   6.809  18.740  0.00  0.00    +0.000 HD
ENDROOT
BRANCH   1  19
ATOM     13  C   UNL     1       7.236   4.806  17.843  0.00  0.00    +0.000 C 
ATOM     14  C   UNL     1       6.693   4.616  16.449  0.00  0.00    +0.000 A 
ATOM     15  C   UNL     1       7.569   4.948  15.391  0.00  0.00    +0.000 A 
ATOM     16  C   UNL     1       7.195   4.790  14.059  0.00  0.00    +0.000 A 
ATOM     17  C   UNL     1       5.924   4.335  13.760  0.00  0.00    +0.000 A 
ATOM     18  C   UNL     1       5.036   4.026  14.792  0.00  0.00    +0.000 A 
ATOM     19  C   UNL     1       5.390   4.125  16.162  0.00  0.00    +0.000 A 
ENDBRANCH   1  19
BRANCH   9  20
ATOM     20  C   UNL     1       1.731   7.325  20.795  0.00  0.00    +0.000 C 
BRANCH  20  21
ATOM     21  C   UNL     1       1.297   8.763  20.419  0.00  0.00    +0.000 C 
BRANCH  21  22
ATOM     22  N   UNL     1      -0.117   9.094  20.711  0.00  0.00    +0.000 NA
ATOM     23  C   UNL     1      -0.469  10.527  20.603  0.00  0.00    +0.000 C 
ATOM     24  C   UNL     1      -0.013  11.418  21.778  0.00  0.00    +0.000 C 
ATOM     25  O   UNL     1      -0.344  10.870  23.060  0.00  0.00    +0.000 OA
ATOM     26  C   UNL     1       0.097   9.514  23.184  0.00  0.00    +0.000 C 
ATOM     27  C   UNL     1      -0.508   8.647  22.069  0.00  0.00    +0.000 C 
ENDBRANCH  21  22
ENDBRANCH  20  21
ENDBRANCH   9  20
TORSDOF 4
ENDMDL
MODEL 2
REMARK VINA RESULT:      -7.8      0.575      1.129
REMARK  Name = 
REMARK  5 active torsions:
REMARK  status: ('A' for Active; 'I' for Inactive)
REMARK    1  A    between atoms: C_1  and  C_2
REMARK    2  A    between atoms: C_7  and  C_8
REMARK    3  A    between atoms: N_16  and  C_17
REMARK    4  A    between atoms: C_17  and  C_18
REMARK    5  A    between atoms: C_18  and  N_19
REMARK                            x       y       z     vdW  Elec       q    Type
REMARK                         _______ _______ _______ _____ _____    ______ ____
ROOT
ATOM      1  C   UNL     1       4.362   3.665  17.123  0.00  0.00    +0.000 A 
ATOM      2  C   UNL     1       4.175   2.319  17.459  0.00  0.00    +0.000 A 
ATOM      3  C   UNL     1       3.213   1.922  18.397  0.00  0.00    +0.000 A 
ATOM      4  C   UNL     1       2.465   2.842  19.111  0.00  0.00    +0.000 A 
ATOM      5  N   UNL     1       1.627   2.373  20.035  0.00  0.00    +0.000 NA
ATOM      6  C   UNL     1       0.994   3.286  20.774  0.00  0.00    +0.000 A 
ATOM      7  N   UNL     1       1.117   4.612  20.673  0.00  0.00    +0.000 NA
ATOM      8  C   UNL     1       1.952   5.080  19.731  0.00  0.00    +0.000 A 
ATOM      9  N   UNL     1       2.110   6.482  19.621  0.00  0.00    +0.000 N 
ATOM     10  C   UNL     1       2.657   4.209  18.867  0.00  0.00    +0.000 A 
ATOM     11  C   UNL     1       3.569   4.589  17.845  0.00  0.00    +0.000 A 
ATOM     12  H   UNL     1       1.691   6.797  18.753  0.00  0.00    +0.000 HD
ENDROOT
BRANCH   1  19
ATOM     13  C   UNL     1       7.181   4.838  17.815  0.00  0.00    +0.000 C 
ATOM     14  C   UNL     1       6.657   4.632  16.416  0.00  0.00    +0.000 A 
ATOM     15  C   UNL     1       7.540   4.971  15.366  0.00  0.00    +0.000 A 
ATOM     16  C   UNL     1       7.184   4.800  14.031  0.00  0.00    +0.000 A 
ATOM     17  C   UNL     1       5.923   4.326  13.720  0.00  0.00    +0.000 A 
ATOM     18  C   UNL     1       5.028   4.010  14.744  0.00  0.00    +0.000 A 
ATOM     19  C   UNL     1       5.364   4.121  16.117  0.00  0.00    +0.000 A 
ENDBRANCH   1  19
BRANCH   9  20
ATOM     20  C   UNL     1       1.749   7.270  20.818  0.00  0.00    +0.000 C 
BRANCH  20  21
ATOM     21  C   UNL     1       1.130   8.644  20.463  0.00  0.00    +0.000 C 
BRANCH  21  22
ATOM     22  N   UNL     1       1.387   9.726  21.441  0.00  0.00    +0.000 NA
ATOM     23  C   UNL     1       0.861   9.487  22.803  0.00  0.00    +0.000 C 
ATOM     24  C   UNL     1      -0.659   9.686  22.977  0.00  0.00    +0.000 C 
ATOM     25  O   UNL     1      -1.133  10.918  22.416  0.00  0.00    +0.000 OA
ATOM     26  C   UNL     1      -0.700  11.081  21.062  0.00  0.00    +0.000 C 
ATOM     27  C   UNL     1       0.833  11.019  20.976  0.00  0.00    +0.000 C 
ENDBRANCH  21  22
ENDBRANCH  20  21
ENDBRANCH   9  20
TORSDOF 4
ENDMDL
MODEL 3
REMARK VINA RESULT:      -7.6      1.069      1.446
REMARK  Name = 
REMARK  5 active torsions:
REMARK  status: ('A' for Active; 'I' for Inactive)
REMARK    1  A    between atoms: C_1  and  C_2
REMARK    2  A    between atoms: C_7  and  C_8
REMARK    3  A    between atoms: N_16  and  C_17
REMARK    4  A    between atoms: C_17  and  C_18
REMARK    5  A    between atoms: C_18  and  N_19
REMARK                            x       y       z     vdW  Elec       q    Type
REMARK                         _______ _______ _______ _____ _____    ______ ____
ROOT
ATOM      1  C   UNL     1       4.383   3.730  17.153  0.00  0.00    +0.000 A 
ATOM      2  C   UNL     1       4.191   2.400  17.544  0.00  0.00    +0.000 A 
ATOM      3  C   UNL     1       3.252   2.050  18.524  0.00  0.00    +0.000 A 
ATOM      4  C   UNL     1       2.534   3.004  19.222  0.00  0.00    +0.000 A 
ATOM      5  N   UNL     1       1.718   2.581  20.187  0.00  0.00    +0.000 NA
ATOM      6  C   UNL     1       1.117   3.528  20.908  0.00  0.00    +0.000 A 
ATOM      7  N   UNL     1       1.250   4.848  20.753  0.00  0.00    +0.000 NA
ATOM      8  C   UNL     1       2.063   5.271  19.772  0.00  0.00    +0.000 A 
ATOM      9  N   UNL     1       2.233   6.665  19.604  0.00  0.00    +0.000 N 
ATOM     10  C   UNL     1       2.734   4.360  18.922  0.00  0.00    +0.000 A 
ATOM     11  C   UNL     1       3.620   4.690  17.861  0.00  0.00    +0.000 A 
ATOM     12  H   UNL     1       1.793   6.952  18.737  0.00  0.00    +0.000 HD
ENDROOT
BRANCH   1  19
ATOM     13  C   UNL     1       7.248   4.857  17.720  0.00  0.00    +0.000 C 
ATOM     14  C   UNL     1       6.673   4.627  16.345  0.00  0.00    +0.000 A 
ATOM     15  C   UNL     1       7.528   4.917  15.258  0.00  0.00    +0.000 A 
ATOM     16  C   UNL     1       7.125   4.719  13.941  0.00  0.00    +0.000 A 
ATOM     17  C   UNL     1       5.844   4.264  13.684  0.00  0.00    +0.000 A 
ATOM     18  C   UNL     1       4.977   3.997  14.745  0.00  0.00    +0.000 A 
ATOM     19  C   UNL     1       5.361   4.137  16.102  0.00  0.00    +0.000 A 
ENDBRANCH   1  19
BRANCH   9  20
ATOM     20  C   UNL     1       1.914   7.502  20.781  0.00  0.00    +0.000 C 
BRANCH  20  21
ATOM     21  C   UNL     1       0.715   8.449  20.531  0.00  0.00    +0.000 C 
BRANCH  21  22
ATOM     22  N   UNL     1       1.069   9.798  20.031  0.00  0.00    +0.000 NA
ATOM     23  C   UNL     1       0.719  10.919  20.930  0.00  0.00    +0.000 C 
ATOM     24  C   UNL     1      -0.772  11.316  20.956  0.00  0.00    +0.000 C 
ATOM     25  O   UNL     1      -1.336  11.469  19.647  0.00  0.00    +0.000 OA
ATOM     26  C   UNL     1      -1.076  10.327  18.824  0.00  0.00    +0.000 C 
ATOM     27  C   UNL     1       0.435  10.073  18.719  0.00  0.00    +0.000 C 
ENDBRANCH  21  22
ENDBRANCH  20  21
ENDBRANCH   9  20
TORSDOF 4
ENDMDL
MODEL 4
REMARK VINA RESULT:      -7.5      0.896      1.169
REMARK  Name = 
REMARK  5 active torsions:
REMARK  status: ('A' for Active; 'I' for Inactive)
REMARK    1  A    between atoms: C_1  and  C_2
REMARK    2  A    between atoms: C_7  and  C_8
REMARK    3  A    between atoms: N_16  and  C_17
REMARK    4  A    between atoms: C_17  and  C_18
REMARK    5  A    between atoms: C_18  and  N_19
REMARK                            x       y       z     vdW  Elec       q    Type
REMARK                         _______ _______ _______ _____ _____    ______ ____
ROOT
ATOM      1  C   UNL     1       4.392   3.753  17.110  0.00  0.00    +0.000 A 
ATOM      2  C   UNL     1       4.248   2.432  17.550  0.00  0.00    +0.000 A 
ATOM      3  C   UNL     1       3.315   2.084  18.536  0.00  0.00    +0.000 A 
ATOM      4  C   UNL     1       2.557   3.035  19.193  0.00  0.00    +0.000 A 
ATOM      5  N   UNL     1       1.749   2.617  20.168  0.00  0.00    +0.000 NA
ATOM      6  C   UNL     1       1.107   3.567  20.849  0.00  0.00    +0.000 A 
ATOM      7  N   UNL     1       1.192   4.884  20.646  0.00  0.00    +0.000 NA
ATOM      8  C   UNL     1       1.996   5.301  19.654  0.00  0.00    +0.000 A 
ATOM      9  N   UNL     1       2.113   6.693  19.435  0.00  0.00    +0.000 N 
ATOM     10  C   UNL     1       2.707   4.385  18.844  0.00  0.00    +0.000 A 
ATOM     11  C   UNL     1       3.588   4.709  17.776  0.00  0.00    +0.000 A 
ATOM     12  H   UNL     1       1.670   6.931  18.555  0.00  0.00    +0.000 HD
ENDROOT
BRANCH   1  19
ATOM     13  C   UNL     1       7.253   4.902  17.653  0.00  0.00    +0.000 C 
ATOM     14  C   UNL     1       6.673   4.657  16.283  0.00  0.00    +0.000 A 
ATOM     15  C   UNL     1       7.521   4.944  15.189  0.00  0.00    +0.000 A 
ATOM     16  C   UNL     1       7.112   4.732  13.876  0.00  0.00    +0.000 A 
ATOM     17  C   UNL     1       5.832   4.268  13.629  0.00  0.00    +0.000 A 
ATOM     18  C   UNL     1       4.972   4.004  14.696  0.00  0.00    +0.000 A 
ATOM     19  C   UNL     1       5.362   4.157  16.051  0.00  0.00    +0.000 A 
ENDBRANCH   1  19
BRANCH   9  20
ATOM     20  C   UNL     1       1.754   7.560  20.577  0.00  0.00    +0.000 C 
BRANCH  20  21
ATOM     21  C   UNL     1       1.461   9.019  20.148  0.00  0.00    +0.000 C 
BRANCH  21  22
ATOM     22  N   UNL     1       0.039   9.427  20.225  0.00  0.00    +0.000 NA
ATOM     23  C   UNL     1      -0.486  10.125  19.030  0.00  0.00    +0.000 C 
ATOM     24  C   UNL     1      -0.066  11.602  18.882  0.00  0.00    +0.000 C 
ATOM     25  O   UNL     1      -0.249  12.363  20.083  0.00  0.00    +0.000 OA
ATOM     26  C   UNL     1       0.356  11.721  21.210  0.00  0.00    +0.000 C 
ATOM     27  C   UNL     1      -0.211  10.305  21.392  0.00  0.00    +0.000 C 
ENDBRANCH  21  22
ENDBRANCH  20  21
ENDBRANCH   9  20
TORSDOF 4
ENDMDL
MODEL 5
REMARK VINA RESULT:      -7.5      1.428      1.806
REMARK  Name = 
REMARK  5 active torsions:
REMARK  status: ('A' for Active; 'I' for Inactive)
REMARK    1  A    between atoms: C_1  and  C_2
REMARK    2  A    between atoms: C_7  and  C_8
REMARK    3  A    between atoms: N_16  and  C_17
REMARK    4  A    between atoms: C_17  and  C_18
REMARK    5  A    between atoms: C_18  and  N_19
REMARK                            x       y       z     vdW  Elec       q    Type
REMARK                         _______ _______ _______ _____ _____    ______ ____
ROOT
ATOM      1  C   UNL     1       4.354   3.729  17.092  0.00  0.00    +0.000 A 
ATOM      2  C   UNL     1       4.145   2.390  17.441  0.00  0.00    +0.000 A 
ATOM      3  C   UNL     1       3.173   2.018  18.380  0.00  0.00    +0.000 A 
ATOM      4  C   UNL     1       2.438   2.957  19.082  0.00  0.00    +0.000 A 
ATOM      5  N   UNL     1       1.590   2.512  20.009  0.00  0.00    +0.000 NA
ATOM      6  C   UNL     1       0.971   3.442  20.736  0.00  0.00    +0.000 A 
ATOM      7  N   UNL     1       1.115   4.765  20.622  0.00  0.00    +0.000 NA
ATOM      8  C   UNL     1       1.961   5.210  19.679  0.00  0.00    +0.000 A 
ATOM      9  N   UNL     1       2.142   6.607  19.555  0.00  0.00    +0.000 N 
ATOM     10  C   UNL     1       2.654   4.319  18.826  0.00  0.00    +0.000 A 
ATOM     11  C   UNL     1       3.574   4.673  17.802  0.00  0.00    +0.000 A 
ATOM     12  H   UNL     1       1.731   6.921  18.683  0.00  0.00    +0.000 HD
ENDROOT
BRANCH   1  19
ATOM     13  C   UNL     1       7.186   4.872  17.782  0.00  0.00    +0.000 C 
ATOM     14  C   UNL     1       6.665   4.656  16.383  0.00  0.00    +0.000 A 
ATOM     15  C   UNL     1       7.557   4.969  15.333  0.00  0.00    +0.000 A 
ATOM     16  C   UNL     1       7.205   4.786  13.999  0.00  0.00    +0.000 A 
ATOM     17  C   UNL     1       5.938   4.324  13.688  0.00  0.00    +0.000 A 
ATOM     18  C   UNL     1       5.035   4.034  14.712  0.00  0.00    +0.000 A 
ATOM     19  C   UNL     1       5.367   4.158  16.084  0.00  0.00    +0.000 A 
ENDBRANCH   1  19
BRANCH   9  20
ATOM     20  C   UNL     1       1.791   7.413  20.744  0.00  0.00    +0.000 C 
BRANCH  20  21
ATOM     21  C   UNL     1       1.514   8.897  20.397  0.00  0.00    +0.000 C 
BRANCH  21  22
ATOM     22  N   UNL     1       0.995   9.141  19.031  0.00  0.00    +0.000 NA
ATOM     23  C   UNL     1       1.918   9.853  18.120  0.00  0.00    +0.000 C 
ATOM     24  C   UNL     1       2.042  11.374  18.348  0.00  0.00    +0.000 C 
ATOM     25  O   UNL     1       0.773  12.031  18.463  0.00  0.00    +0.000 OA
ATOM     26  C   UNL     1      -0.067  11.388  19.427  0.00  0.00    +0.000 C 
ATOM     27  C   UNL     1      -0.272   9.910  19.062  0.00  0.00    +0.000 C 
ENDBRANCH  21  22
ENDBRANCH  20  21
ENDBRANCH   9  20
TORSDOF 4
ENDMDL
MODEL 6
REMARK VINA RESULT:      -7.3      3.605      5.527
REMARK  Name = 
REMARK  5 active torsions:
REMARK  status: ('A' for Active; 'I' for Inactive)
REMARK    1  A    between atoms: C_1  and  C_2
REMARK    2  A    between atoms: C_7  and  C_8
REMARK    3  A    between atoms: N_16  and  C_17
REMARK    4  A    between atoms: C_17  and  C_18
REMARK    5  A    between atoms: C_18  and  N_19
REMARK                            x       y       z     vdW  Elec       q    Type
REMARK                         _______ _______ _______ _____ _____    ______ ____
ROOT
ATOM      1  C   UNL     1       2.724   6.787  18.814  0.00  0.00    +0.000 A 
ATOM      2  C   UNL     1       2.364   6.218  20.041  0.00  0.00    +0.000 A 
ATOM      3  C   UNL     1       1.507   6.877  20.933  0.00  0.00    +0.000 A 
ATOM      4  C   UNL     1       1.048   8.160  20.694  0.00  0.00    +0.000 A 
ATOM      5  N   UNL     1       0.297   8.735  21.633  0.00  0.00    +0.000 NA
ATOM      6  C   UNL     1      -0.045  10.005  21.418  0.00  0.00    +0.000 A 
ATOM      7  N   UNL     1       0.285  10.748  20.359  0.00  0.00    +0.000 NA
ATOM      8  C   UNL     1       1.031  10.162  19.408  0.00  0.00    +0.000 A 
ATOM      9  N   UNL     1       1.407  10.938  18.287  0.00  0.00    +0.000 N 
ATOM     10  C   UNL     1       1.432   8.809  19.511  0.00  0.00    +0.000 A 
ATOM     11  C   UNL     1       2.224   8.089  18.575  0.00  0.00    +0.000 A 
ATOM     12  H   UNL     1       0.918  10.598  17.466  0.00  0.00    +0.000 HD
ENDROOT
BRANCH   1  19
ATOM     13  C   UNL     1       2.407   3.820  17.866  0.00  0.00    +0.000 C 
ATOM     14  C   UNL     1       3.473   4.768  17.376  0.00  0.00    +0.000 A 
ATOM     15  C   UNL     1       4.352   4.260  16.393  0.00  0.00    +0.000 A 
ATOM     16  C   UNL     1       5.359   5.046  15.841  0.00  0.00    +0.000 A 
ATOM     17  C   UNL     1       5.532   6.343  16.290  0.00  0.00    +0.000 A 
ATOM     18  C   UNL     1       4.689   6.854  17.279  0.00  0.00    +0.000 A 
ATOM     19  C   UNL     1       3.619   6.106  17.834  0.00  0.00    +0.000 A 
ENDBRANCH   1  19
BRANCH   9  20
ATOM     20  C   UNL     1       1.379  12.404  18.476  0.00  0.00    +0.000 C 
BRANCH  20  21
ATOM     21  C   UNL     1       2.735  13.074  18.144  0.00  0.00    +0.000 C 
BRANCH  21  22
ATOM     22  N   UNL     1       3.167  14.130  19.088  0.00  0.00    +0.000 NA
ATOM     23  C   UNL     1       2.078  14.953  19.660  0.00  0.00    +0.000 C 
ATOM     24  C   UNL     1       1.488  16.027  18.723  0.00  0.00    +0.000 C 
ATOM     25  O   UNL     1       2.490  16.821  18.077  0.00  0.00    +0.000 OA
ATOM     26  C   UNL     1       3.479  16.006  17.439  0.00  0.00    +0.000 C 
ATOM     27  C   UNL     1       4.133  15.059  18.456  0.00  0.00    +0.000 C 
ENDBRANCH  21  22
ENDBRANCH  20  21
ENDBRANCH   9  20
TORSDOF 4
ENDMDL
MODEL 7
REMARK VINA RESULT:      -7.3      3.657      5.555
REMARK  Name = 
REMARK  5 active torsions:
REMARK  status: ('A' for Active; 'I' for Inactive)
REMARK    1  A    between atoms: C_1  and  C_2
REMARK    2  A    between atoms: C_7  and  C_8
REMARK    3  A    between atoms: N_16  and  C_17
REMARK    4  A    between atoms: C_17  and  C_18
REMARK    5  A    between atoms: C_18  and  N_19
REMARK                            x       y       z     vdW  Elec       q    Type
REMARK                         _______ _______ _______ _____ _____    ______ ____
ROOT
ATOM      1  C   UNL     1       2.679   6.874  18.817  0.00  0.00    +0.000 A 
ATOM      2  C   UNL     1       2.295   6.326  20.046  0.00  0.00    +0.000 A 
ATOM      3  C   UNL     1       1.440   7.011  20.921  0.00  0.00    +0.000 A 
ATOM      4  C   UNL     1       1.010   8.299  20.663  0.00  0.00    +0.000 A 
ATOM      5  N   UNL     1       0.260   8.898  21.588  0.00  0.00    +0.000 NA
ATOM      6  C   UNL     1      -0.056  10.173  21.356  0.00  0.00    +0.000 A 
ATOM      7  N   UNL     1       0.301  10.898  20.293  0.00  0.00    +0.000 NA
ATOM      8  C   UNL     1       1.046  10.287  19.357  0.00  0.00    +0.000 A 
ATOM      9  N   UNL     1       1.449  11.045  18.233  0.00  0.00    +0.000 N 
ATOM     10  C   UNL     1       1.419   8.929  19.478  0.00  0.00    +0.000 A 
ATOM     11  C   UNL     1       2.207   8.184  18.559  0.00  0.00    +0.000 A 
ATOM     12  H   UNL     1       0.963  10.705  17.410  0.00  0.00    +0.000 HD
ENDROOT
BRANCH   1  19
ATOM     13  C   UNL     1       2.339   3.892  17.926  0.00  0.00    +0.000 C 
ATOM     14  C   UNL     1       3.415   4.821  17.422  0.00  0.00    +0.000 A 
ATOM     15  C   UNL     1       4.295   4.286  16.453  0.00  0.00    +0.000 A 
ATOM     16  C   UNL     1       5.311   5.052  15.890  0.00  0.00    +0.000 A 
ATOM     17  C   UNL     1       5.494   6.356  16.314  0.00  0.00    +0.000 A 
ATOM     18  C   UNL     1       4.651   6.893  17.289  0.00  0.00    +0.000 A 
ATOM     19  C   UNL     1       3.573   6.167  17.854  0.00  0.00    +0.000 A 
ENDBRANCH   1  19
BRANCH   9  20
ATOM     20  C   UNL     1       1.447  12.513  18.406  0.00  0.00    +0.000 C 
BRANCH  20  21
ATOM     21  C   UNL     1       2.828  13.149  18.115  0.00  0.00    +0.000 C 
BRANCH  21  22
ATOM     22  N   UNL     1       2.897  14.618  18.288  0.00  0.00    +0.000 NA
ATOM     23  C   UNL     1       4.114  15.264  17.749  0.00  0.00    +0.000 C 
ATOM     24  C   UNL     1       5.391  15.100  18.599  0.00  0.00    +0.000 C 
ATOM     25  O   UNL     1       5.185  15.396  19.986  0.00  0.00    +0.000 OA
ATOM     26  C   UNL     1       4.066  14.681  20.517  0.00  0.00    +0.000 C 
ATOM     27  C   UNL     1       2.794  15.000  19.717  0.00  0.00    +0.000 C 
ENDBRANCH  21  22
ENDBRANCH  20  21
ENDBRANCH   9  20
TORSDOF 4
ENDMDL
MODEL 8
REMARK VINA RESULT:      -7.2      1.835      2.154
REMARK  Name = 
REMARK  5 active torsions:
REMARK  status: ('A' for Active; 'I' for Inactive)
REMARK    1  A    between atoms: C_1  and  C_2
REMARK    2  A    between atoms: C_7  and  C_8
REMARK    3  A    between atoms: N_16  and  C_17
REMARK    4  A    between atoms: C_17  and  C_18
REMARK    5  A    between atoms: C_18  and  N_19
REMARK                            x       y       z     vdW  Elec       q    Type
REMARK                         _______ _______ _______ _____ _____    ______ ____
ROOT
ATOM      1  C   UNL     1       4.683   4.230  16.968  0.00  0.00    +0.000 A 
ATOM      2  C   UNL     1       4.725   3.053  17.724  0.00  0.00    +0.000 A 
ATOM      3  C   UNL     1       3.907   2.872  18.848  0.00  0.00    +0.000 A 
ATOM      4  C   UNL     1       3.087   3.879  19.325  0.00  0.00    +0.000 A 
ATOM      5  N   UNL     1       2.401   3.640  20.443  0.00  0.00    +0.000 NA
ATOM      6  C   UNL     1       1.698   4.662  20.932  0.00  0.00    +0.000 A 
ATOM      7  N   UNL     1       1.614   5.889  20.411  0.00  0.00    +0.000 NA
ATOM      8  C   UNL     1       2.295   6.122  19.277  0.00  0.00    +0.000 A 
ATOM      9  N   UNL     1       2.233   7.420  18.720  0.00  0.00    +0.000 N 
ATOM     10  C   UNL     1       3.054   5.107  18.649  0.00  0.00    +0.000 A 
ATOM     11  C   UNL     1       3.818   5.239  17.457  0.00  0.00    +0.000 A 
ATOM     12  H   UNL     1       1.707   7.387  17.854  0.00  0.00    +0.000 HD
ENDROOT
BRANCH   1  19
ATOM     13  C   UNL     1       7.214   6.071  16.865  0.00  0.00    +0.000 C 
ATOM     14  C   UNL     1       6.691   5.263  15.703  0.00  0.00    +0.000 A 
ATOM     15  C   UNL     1       7.442   5.339  14.507  0.00  0.00    +0.000 A 
ATOM     16  C   UNL     1       7.079   4.618  13.373  0.00  0.00    +0.000 A 
ATOM     17  C   UNL     1       5.936   3.839  13.400  0.00  0.00    +0.000 A 
ATOM     18  C   UNL     1       5.168   3.773  14.564  0.00  0.00    +0.000 A 
ATOM     19  C   UNL     1       5.526   4.450  15.757  0.00  0.00    +0.000 A 
ENDBRANCH   1  19
BRANCH   9  20
ATOM     20  C   UNL     1       1.851   8.505  19.648  0.00  0.00    +0.000 C 
BRANCH  20  21
ATOM     21  C   UNL     1       1.099   9.658  18.939  0.00  0.00    +0.000 C 
BRANCH  21  22
ATOM     22  N   UNL     1       0.379  10.591  19.837  0.00  0.00    +0.000 NA
ATOM     23  C   UNL     1      -1.026  10.869  19.468  0.00  0.00    +0.000 C 
ATOM     24  C   UNL     1      -1.227  11.844  18.288  0.00  0.00    +0.000 C 
ATOM     25  O   UNL     1      -0.446  13.040  18.409  0.00  0.00    +0.000 OA
ATOM     26  C   UNL     1       0.931  12.748  18.663  0.00  0.00    +0.000 C 
ATOM     27  C   UNL     1       1.075  11.896  19.934  0.00  0.00    +0.000 C 
ENDBRANCH  21  22
ENDBRANCH  20  21
ENDBRANCH   9  20
TORSDOF 4
ENDMDL
MODEL 9
REMARK VINA RESULT:      -7.2      2.823      4.708
REMARK  Name = 
REMARK  5 active torsions:
REMARK  status: ('A' for Active; 'I' for Inactive)
REMARK    1  A    between atoms: C_1  and  C_2
REMARK    2  A    between atoms: C_7  and  C_8
REMARK    3  A    between atoms: N_16  and  C_17
REMARK    4  A    between atoms: C_17  and  C_18
REMARK    5  A    between atoms: C_18  and  N_19
REMARK                            x       y       z     vdW  Elec       q    Type
REMARK                         _______ _______ _______ _____ _____    ______ ____
ROOT
ATOM      1  C   UNL     1       3.037   6.605  18.582  0.00  0.00    +0.000 A 
ATOM      2  C   UNL     1       2.775   6.021  19.827  0.00  0.00    +0.000 A 
ATOM      3  C   UNL     1       1.904   6.616  20.749  0.00  0.00    +0.000 A 
ATOM      4  C   UNL     1       1.332   7.855  20.520  0.00  0.00    +0.000 A 
ATOM      5  N   UNL     1       0.575   8.375  21.487  0.00  0.00    +0.000 NA
ATOM      6  C   UNL     1       0.121   9.611  21.278  0.00  0.00    +0.000 A 
ATOM      7  N   UNL     1       0.347  10.368  20.202  0.00  0.00    +0.000 NA
ATOM      8  C   UNL     1       1.099   9.836  19.224  0.00  0.00    +0.000 A 
ATOM      9  N   UNL     1       1.365  10.630  18.084  0.00  0.00    +0.000 N 
ATOM     10  C   UNL     1       1.613   8.522  19.319  0.00  0.00    +0.000 A 
ATOM     11  C   UNL     1       2.423   7.860  18.356  0.00  0.00    +0.000 A 
ATOM     12  H   UNL     1       0.873  10.243  17.286  0.00  0.00    +0.000 HD
ENDROOT
BRANCH   1  19
ATOM     13  C   UNL     1       2.805   3.668  17.523  0.00  0.00    +0.000 C 
ATOM     14  C   UNL     1       3.837   4.668  17.062  0.00  0.00    +0.000 A 
ATOM     15  C   UNL     1       4.724   4.225  16.055  0.00  0.00    +0.000 A 
ATOM     16  C   UNL     1       5.701   5.063  15.526  0.00  0.00    +0.000 A 
ATOM     17  C   UNL     1       5.837   6.347  16.023  0.00  0.00    +0.000 A 
ATOM     18  C   UNL     1       4.987   6.792  17.037  0.00  0.00    +0.000 A 
ATOM     19  C   UNL     1       3.946   5.991  17.570  0.00  0.00    +0.000 A 
ENDBRANCH   1  19
BRANCH   9  20
ATOM     20  C   UNL     1       1.224  12.090  18.265  0.00  0.00    +0.000 C 
BRANCH  20  21
ATOM     21  C   UNL     1       2.562  12.777  18.632  0.00  0.00    +0.000 C 
BRANCH  21  22
ATOM     22  N   UNL     1       2.449  14.186  19.075  0.00  0.00    +0.000 NA
ATOM     23  C   UNL     1       3.583  14.691  19.880  0.00  0.00    +0.000 C 
ATOM     24  C   UNL     1       3.617  14.227  21.351  0.00  0.00    +0.000 C 
ATOM     25  O   UNL     1       2.360  14.387  22.020  0.00  0.00    +0.000 OA
ATOM     26  C   UNL     1       1.288  13.800  21.275  0.00  0.00    +0.000 C 
ATOM     27  C   UNL     1       1.216  14.408  19.866  0.00  0.00    +0.000 C 
ENDBRANCH  21  22
ENDBRANCH  20  21
ENDBRANCH   9  20
TORSDOF 4
ENDMDL
