MODEL 1
REMARK VINA RESULT:      -7.4      0.000      0.000
REMARK  Name = 
REMARK  7 active torsions:
REMARK  status: ('A' for Active; 'I' for Inactive)
REMARK    1  A    between atoms: C_1  and  C_2
REMARK    2  A    between atoms: N_5  and  C_6
REMARK    3  A    between atoms: C_6  and  C_7
REMARK    4  A    between atoms: C_7  and  C_8
REMARK    5  A    between atoms: N_12  and  S_13
REMARK    6  A    between atoms: S_13  and  C_16
REMARK    7  A    between atoms: C_20  and  O_21
REMARK                            x       y       z     vdW  Elec       q    Type
REMARK                         _______ _______ _______ _____ _____    ______ ____
ROOT
ATOM      1  C   UNL     1       2.458   4.239  20.414  0.00  0.00    +0.000 C 
ATOM      2  C   UNL     1       1.687   3.027  20.932  0.00  0.00    +0.000 C 
ATOM      3  C   UNL     1       0.667   2.769  19.839  0.00  0.00    +0.000 C 
ATOM      4  C   UNL     1       1.352   3.199  18.544  0.00  0.00    +0.000 C 
ATOM      5  N   UNL     1       2.593   3.942  18.941  0.00  0.00    +0.000 NA
ENDROOT
BRANCH   5   6
ATOM      6  S   UNL     1       4.064   3.141  18.537  0.00  0.00    +0.000 S 
ATOM      7  O   UNL     1       4.986   3.293  19.641  0.00  0.00    +0.000 OA
ATOM      8  O   UNL     1       3.718   1.833  18.016  0.00  0.00    +0.000 OA
BRANCH   6   9
ATOM      9  C   UNL     1       4.701   4.108  17.192  0.00  0.00    +0.000 A 
ATOM     10  C   UNL     1       4.573   5.502  17.204  0.00  0.00    +0.000 A 
ATOM     11  C   UNL     1       5.052   6.247  16.127  0.00  0.00    +0.000 A 
ATOM     12  C   UNL     1       5.665   5.601  15.049  0.00  0.00    +0.000 A 
ATOM     13  C   UNL     1       5.793   4.213  15.060  0.00  0.00    +0.000 A 
ATOM     14  C   UNL     1       5.306   3.455  16.115  0.00  0.00    +0.000 A 
BRANCH  13  15
ATOM     15  O   UNL     1       6.405   3.552  14.035  0.00  0.00    +0.000 OA
ATOM     16  H   UNL     1       6.014   2.667  13.955  0.00  0.00    +0.000 HD
ENDBRANCH  13  15
ENDBRANCH   6   9
ENDBRANCH   5   6
BRANCH   1  17
ATOM     17  C   UNL     1       1.700   5.570  20.580  0.00  0.00    +0.000 C 
BRANCH  17  18
ATOM     18  C   UNL     1       1.717   6.456  19.325  0.00  0.00    +0.000 C 
BRANCH  18  23
ATOM     19  C   UNL     1      -0.902  10.196  18.260  0.00  0.00    +0.000 C 
ATOM     20  C   UNL     1       0.499   9.847  18.754  0.00  0.00    +0.000 C 
ATOM     21  C   UNL     1       1.252   9.016  17.706  0.00  0.00    +0.000 C 
ATOM     22  C   UNL     1       2.581   8.493  18.254  0.00  0.00    +0.000 C 
ATOM     23  N   UNL     1       2.434   7.728  19.504  0.00  0.00    +0.000 NA
ATOM     24  C   UNL     1       1.801   8.579  20.525  0.00  0.00    +0.000 C 
ATOM     25  C   UNL     1       0.432   9.121  20.105  0.00  0.00    +0.000 C 
ENDBRANCH  18  23
ENDBRANCH  17  18
ENDBRANCH   1  17
TORSDOF 6
ENDMDL
MODEL 2
REMARK VINA RESULT:      -7.3      1.331      1.776
REMARK  Name = 
REMARK  7 active torsions:
REMARK  status: ('A' for Active; 'I' for Inactive)
REMARK    1  A    between atoms: C_1  and  C_2
REMARK    2  A    between atoms: N_5  and  C_6
REMARK    3  A    between atoms: C_6  and  C_7
REMARK    4  A    between atoms: C_7  and  C_8
REMARK    5  A    between atoms: N_12  and  S_13
REMARK    6  A    between atoms: S_13  and  C_16
REMARK    7  A    between atoms: C_20  and  O_21
REMARK                            x       y       z     vdW  Elec       q    Type
REMARK                         _______ _______ _______ _____ _____    ______ ____
ROOT
ATOM      1  C   UNL     1       2.620   4.449  20.576  0.00  0.00    +0.000 C 
ATOM      2  C   UNL     1       2.091   3.238  21.339  0.00  0.00    +0.000 C 
ATOM      3  C   UNL     1       1.022   2.684  20.415  0.00  0.00    +0.000 C 
ATOM      4  C   UNL     1       1.512   2.999  19.004  0.00  0.00    +0.000 C 
ATOM      5  N   UNL     1       2.660   3.953  19.151  0.00  0.00    +0.000 NA
ENDROOT
BRANCH   5   6
ATOM      6  S   UNL     1       4.189   3.304  18.695  0.00  0.00    +0.000 S 
ATOM      7  O   UNL     1       4.848   2.806  19.883  0.00  0.00    +0.000 OA
ATOM      8  O   UNL     1       3.974   2.455  17.539  0.00  0.00    +0.000 OA
BRANCH   6   9
ATOM      9  C   UNL     1       5.096   4.731  18.158  0.00  0.00    +0.000 A 
ATOM     10  C   UNL     1       4.628   5.502  17.088  0.00  0.00    +0.000 A 
ATOM     11  C   UNL     1       5.366   6.604  16.657  0.00  0.00    +0.000 A 
ATOM     12  C   UNL     1       6.561   6.939  17.301  0.00  0.00    +0.000 A 
ATOM     13  C   UNL     1       7.007   6.164  18.372  0.00  0.00    +0.000 A 
ATOM     14  C   UNL     1       6.294   5.055  18.801  0.00  0.00    +0.000 A 
BRANCH  13  15
ATOM     15  O   UNL     1       8.158   6.474  19.037  0.00  0.00    +0.000 OA
ATOM     16  H   UNL     1       8.454   5.693  19.530  0.00  0.00    +0.000 HD
ENDBRANCH  13  15
ENDBRANCH   6   9
ENDBRANCH   5   6
BRANCH   1  17
ATOM     17  C   UNL     1       1.692   5.677  20.643  0.00  0.00    +0.000 C 
BRANCH  17  18
ATOM     18  C   UNL     1       1.700   6.534  19.367  0.00  0.00    +0.000 C 
BRANCH  18  23
ATOM     19  C   UNL     1      -0.945  10.214  18.169  0.00  0.00    +0.000 C 
ATOM     20  C   UNL     1       0.455   9.894  18.687  0.00  0.00    +0.000 C 
ATOM     21  C   UNL     1       1.227   9.042  17.671  0.00  0.00    +0.000 C 
ATOM     22  C   UNL     1       2.555   8.548  18.248  0.00  0.00    +0.000 C 
ATOM     23  N   UNL     1       2.402   7.817  19.517  0.00  0.00    +0.000 NA
ATOM     24  C   UNL     1       1.750   8.691  20.507  0.00  0.00    +0.000 C 
ATOM     25  C   UNL     1       0.380   9.206  20.057  0.00  0.00    +0.000 C 
ENDBRANCH  18  23
ENDBRANCH  17  18
ENDBRANCH   1  17
TORSDOF 6
ENDMDL
MODEL 3
REMARK VINA RESULT:      -7.2      3.613      5.268
REMARK  Name = 
REMARK  7 active torsions:
REMARK  status: ('A' for Active; 'I' for Inactive)
REMARK    1  A    between atoms: C_1  and  C_2
REMARK    2  A    between atoms: N_5  and  C_6
REMARK    3  A    between atoms: C_6  and  C_7
REMARK    4  A    between atoms: C_7  and  C_8
REMARK    5  A    between atoms: N_12  and  S_13
REMARK    6  A    between atoms: S_13  and  C_16
REMARK    7  A    between atoms: C_20  and  O_21
REMARK                            x       y       z     vdW  Elec       q    Type
REMARK                         _______ _______ _______ _____ _____    ______ ____
ROOT
ATOM      1  C   UNL     1       4.293   4.869  16.932  0.00  0.00    +0.000 C 
ATOM      2  C   UNL     1       4.221   5.628  18.255  0.00  0.00    +0.000 C 
ATOM      3  C   UNL     1       5.306   4.976  19.091  0.00  0.00    +0.000 C 
ATOM      4  C   UNL     1       6.381   4.555  18.092  0.00  0.00    +0.000 C 
ATOM      5  N   UNL     1       5.779   4.702  16.726  0.00  0.00    +0.000 NA
ENDROOT
BRANCH   5   6
ATOM      6  S   UNL     1       6.481   5.949  15.767  0.00  0.00    +0.000 S 
ATOM      7  O   UNL     1       5.479   6.967  15.535  0.00  0.00    +0.000 OA
ATOM      8  O   UNL     1       7.767   6.275  16.352  0.00  0.00    +0.000 OA
BRANCH   6   9
ATOM      9  C   UNL     1       6.780   5.150  14.211  0.00  0.00    +0.000 A 
ATOM     10  C   UNL     1       7.747   5.655  13.334  0.00  0.00    +0.000 A 
ATOM     11  C   UNL     1       7.951   5.035  12.102  0.00  0.00    +0.000 A 
ATOM     12  C   UNL     1       7.199   3.908  11.754  0.00  0.00    +0.000 A 
ATOM     13  C   UNL     1       6.247   3.414  12.645  0.00  0.00    +0.000 A 
ATOM     14  C   UNL     1       6.019   4.030  13.867  0.00  0.00    +0.000 A 
BRANCH  13  15
ATOM     15  O   UNL     1       5.510   2.305  12.347  0.00  0.00    +0.000 OA
ATOM     16  H   UNL     1       4.646   2.378  12.781  0.00  0.00    +0.000 HD
ENDBRANCH  13  15
ENDBRANCH   6   9
ENDBRANCH   5   6
BRANCH   1  17
ATOM     17  C   UNL     1       3.644   3.472  16.985  0.00  0.00    +0.000 C 
BRANCH  17  18
ATOM     18  C   UNL     1       2.159   3.490  17.377  0.00  0.00    +0.000 C 
BRANCH  18  23
ATOM     19  C   UNL     1       2.299   3.647  22.060  0.00  0.00    +0.000 C 
ATOM     20  C   UNL     1       1.912   2.698  20.929  0.00  0.00    +0.000 C 
ATOM     21  C   UNL     1       3.132   2.369  20.058  0.00  0.00    +0.000 C 
ATOM     22  C   UNL     1       2.732   1.577  18.811  0.00  0.00    +0.000 C 
ATOM     23  N   UNL     1       1.695   2.244  18.007  0.00  0.00    +0.000 NA
ATOM     24  C   UNL     1       0.498   2.458  18.837  0.00  0.00    +0.000 C 
ATOM     25  C   UNL     1       0.767   3.289  20.094  0.00  0.00    +0.000 C 
ENDBRANCH  18  23
ENDBRANCH  17  18
ENDBRANCH   1  17
TORSDOF 6
ENDMDL
MODEL 4
REMARK VINA RESULT:      -7.2      2.052      2.793
REMARK  Name = 
REMARK  7 active torsions:
REMARK  status: ('A' for Active; 'I' for Inactive)
REMARK    1  A    between atoms: C_1  and  C_2
REMARK    2  A    between atoms: N_5  and  C_6
REMARK    3  A    between atoms: C_6  and  C_7
REMARK    4  A    between atoms: C_7  and  C_8
REMARK    5  A    between atoms: N_12  and  S_13
REMARK    6  A    between atoms: S_13  and  C_16
REMARK    7  A    between atoms: C_20  and  O_21
REMARK                            x       y       z     vdW  Elec       q    Type
REMARK                         _______ _______ _______ _____ _____    ______ ____
ROOT
ATOM      1  C   UNL     1       3.268   6.102  18.778  0.00  0.00    +0.000 C 
ATOM      2  C   UNL     1       2.694   5.338  19.968  0.00  0.00    +0.000 C 
ATOM      3  C   UNL     1       1.478   4.644  19.383  0.00  0.00    +0.000 C 
ATOM      4  C   UNL     1       1.845   4.353  17.930  0.00  0.00    +0.000 C 
ATOM      5  N   UNL     1       3.100   5.122  17.642  0.00  0.00    +0.000 NA
ENDROOT
BRANCH   5   6
ATOM      6  S   UNL     1       4.491   4.142  17.373  0.00  0.00    +0.000 S 
ATOM      7  O   UNL     1       4.458   3.034  18.303  0.00  0.00    +0.000 OA
ATOM      8  O   UNL     1       4.600   3.924  15.944  0.00  0.00    +0.000 OA
BRANCH   6   9
ATOM      9  C   UNL     1       5.834   5.192  17.864  0.00  0.00    +0.000 A 
ATOM     10  C   UNL     1       6.243   6.246  17.039  0.00  0.00    +0.000 A 
ATOM     11  C   UNL     1       7.319   7.045  17.424  0.00  0.00    +0.000 A 
ATOM     12  C   UNL     1       7.975   6.799  18.634  0.00  0.00    +0.000 A 
ATOM     13  C   UNL     1       7.546   5.751  19.448  0.00  0.00    +0.000 A 
ATOM     14  C   UNL     1       6.489   4.935  19.072  0.00  0.00    +0.000 A 
BRANCH  13  15
ATOM     15  O   UNL     1       8.149   5.495  20.645  0.00  0.00    +0.000 OA
ATOM     16  H   UNL     1       7.756   4.695  21.029  0.00  0.00    +0.000 HD
ENDBRANCH  13  15
ENDBRANCH   6   9
ENDBRANCH   5   6
BRANCH   1  17
ATOM     17  C   UNL     1       2.493   7.388  18.436  0.00  0.00    +0.000 C 
BRANCH  17  18
ATOM     18  C   UNL     1       1.772   8.019  19.638  0.00  0.00    +0.000 C 
BRANCH  18  23
ATOM     19  C   UNL     1      -2.223   9.991  18.179  0.00  0.00    +0.000 C 
ATOM     20  C   UNL     1      -0.839  10.383  18.690  0.00  0.00    +0.000 C 
ATOM     21  C   UNL     1       0.253   9.880  17.735  0.00  0.00    +0.000 C 
ATOM     22  C   UNL     1       1.650  10.091  18.322  0.00  0.00    +0.000 C 
ATOM     23  N   UNL     1       1.819   9.489  19.655  0.00  0.00    +0.000 NA
ATOM     24  C   UNL     1       0.825  10.062  20.578  0.00  0.00    +0.000 C 
ATOM     25  C   UNL     1      -0.621   9.863  20.118  0.00  0.00    +0.000 C 
ENDBRANCH  18  23
ENDBRANCH  17  18
ENDBRANCH   1  17
TORSDOF 6
ENDMDL
MODEL 5
REMARK VINA RESULT:      -7.2      1.212      1.426
REMARK  Name = 
REMARK  7 active torsions:
REMARK  status: ('A' for Active; 'I' for Inactive)
REMARK    1  A    between atoms: C_1  and  C_2
REMARK    2  A    between atoms: N_5  and  C_6
REMARK    3  A    between atoms: C_6  and  C_7
REMARK    4  A    between atoms: C_7  and  C_8
REMARK    5  A    between atoms: N_12  and  S_13
REMARK    6  A    between atoms: S_13  and  C_16
REMARK    7  A    between atoms: C_20  and  O_21
REMARK                            x       y       z     vdW  Elec       q    Type
REMARK                         _______ _______ _______ _____ _____    ______ ____
ROOT
ATOM      1  C   UNL     1       2.411   4.049  20.490  0.00  0.00    +0.000 C 
ATOM      2  C   UNL     1       1.622   2.772  20.762  0.00  0.00    +0.000 C 
ATOM      3  C   UNL     1       0.721   2.653  19.546  0.00  0.00    +0.000 C 
ATOM      4  C   UNL     1       1.521   3.259  18.396  0.00  0.00    +0.000 C 
ATOM      5  N   UNL     1       2.699   3.954  19.011  0.00  0.00    +0.000 NA
ENDROOT
BRANCH   5   6
ATOM      6  S   UNL     1       4.221   3.229  18.655  0.00  0.00    +0.000 S 
ATOM      7  O   UNL     1       4.823   2.797  19.898  0.00  0.00    +0.000 OA
ATOM      8  O   UNL     1       4.017   2.308  17.555  0.00  0.00    +0.000 OA
BRANCH   6   9
ATOM      9  C   UNL     1       5.191   4.587  18.053  0.00  0.00    +0.000 A 
ATOM     10  C   UNL     1       6.321   5.014  18.759  0.00  0.00    +0.000 A 
ATOM     11  C   UNL     1       7.057   6.102  18.289  0.00  0.00    +0.000 A 
ATOM     12  C   UNL     1       6.670   6.751  17.113  0.00  0.00    +0.000 A 
ATOM     13  C   UNL     1       5.547   6.304  16.417  0.00  0.00    +0.000 A 
ATOM     14  C   UNL     1       4.794   5.235  16.880  0.00  0.00    +0.000 A 
BRANCH  13  15
ATOM     15  O   UNL     1       5.154   6.900  15.255  0.00  0.00    +0.000 OA
ATOM     16  H   UNL     1       4.208   6.728  15.119  0.00  0.00    +0.000 HD
ENDBRANCH  13  15
ENDBRANCH   6   9
ENDBRANCH   5   6
BRANCH   1  17
ATOM     17  C   UNL     1       1.610   5.339  20.752  0.00  0.00    +0.000 C 
BRANCH  17  18
ATOM     18  C   UNL     1       1.545   6.288  19.546  0.00  0.00    +0.000 C 
BRANCH  18  23
ATOM     19  C   UNL     1      -0.595  10.208  18.121  0.00  0.00    +0.000 C 
ATOM     20  C   UNL     1       0.736   9.744  18.708  0.00  0.00    +0.000 C 
ATOM     21  C   UNL     1       1.439   8.770  17.752  0.00  0.00    +0.000 C 
ATOM     22  C   UNL     1       2.676   8.145  18.400  0.00  0.00    +0.000 C 
ATOM     23  N   UNL     1       2.389   7.485  19.684  0.00  0.00    +0.000 NA
ATOM     24  C   UNL     1       1.809   8.464  20.617  0.00  0.00    +0.000 C 
ATOM     25  C   UNL     1       0.528   9.120  20.095  0.00  0.00    +0.000 C 
ENDBRANCH  18  23
ENDBRANCH  17  18
ENDBRANCH   1  17
TORSDOF 6
ENDMDL
MODEL 6
REMARK VINA RESULT:      -7.1      2.255      3.217
REMARK  Name = 
REMARK  7 active torsions:
REMARK  status: ('A' for Active; 'I' for Inactive)
REMARK    1  A    between atoms: C_1  and  C_2
REMARK    2  A    between atoms: N_5  and  C_6
REMARK    3  A    between atoms: C_6  and  C_7
REMARK    4  A    between atoms: C_7  and  C_8
REMARK    5  A    between atoms: N_12  and  S_13
REMARK    6  A    between atoms: S_13  and  C_16
REMARK    7  A    between atoms: C_20  and  O_21
REMARK                            x       y       z     vdW  Elec       q    Type
REMARK                         _______ _______ _______ _____ _____    ______ ____
ROOT
ATOM      1  C   UNL     1       3.285   6.250  18.721  0.00  0.00    +0.000 C 
ATOM      2  C   UNL     1       2.740   5.542  19.958  0.00  0.00    +0.000 C 
ATOM      3  C   UNL     1       1.506   4.829  19.436  0.00  0.00    +0.000 C 
ATOM      4  C   UNL     1       1.833   4.473  17.988  0.00  0.00    +0.000 C 
ATOM      5  N   UNL     1       3.083   5.222  17.634  0.00  0.00    +0.000 NA
ENDROOT
BRANCH   5   6
ATOM      6  S   UNL     1       4.463   4.224  17.371  0.00  0.00    +0.000 S 
ATOM      7  O   UNL     1       4.415   3.121  18.306  0.00  0.00    +0.000 OA
ATOM      8  O   UNL     1       4.570   3.999  15.942  0.00  0.00    +0.000 OA
BRANCH   6   9
ATOM      9  C   UNL     1       5.817   5.261  17.859  0.00  0.00    +0.000 A 
ATOM     10  C   UNL     1       6.218   6.327  17.044  0.00  0.00    +0.000 A 
ATOM     11  C   UNL     1       7.303   7.116  17.426  0.00  0.00    +0.000 A 
ATOM     12  C   UNL     1       7.976   6.846  18.621  0.00  0.00    +0.000 A 
ATOM     13  C   UNL     1       7.556   5.786  19.424  0.00  0.00    +0.000 A 
ATOM     14  C   UNL     1       6.490   4.981  19.051  0.00  0.00    +0.000 A 
BRANCH  13  15
ATOM     15  O   UNL     1       8.177   5.508  20.607  0.00  0.00    +0.000 OA
ATOM     16  H   UNL     1       8.072   6.267  21.202  0.00  0.00    +0.000 HD
ENDBRANCH  13  15
ENDBRANCH   6   9
ENDBRANCH   5   6
BRANCH   1  17
ATOM     17  C   UNL     1       2.506   7.524  18.343  0.00  0.00    +0.000 C 
BRANCH  17  18
ATOM     18  C   UNL     1       2.027   8.342  19.553  0.00  0.00    +0.000 C 
BRANCH  18  23
ATOM     19  C   UNL     1       1.850  12.921  20.542  0.00  0.00    +0.000 C 
ATOM     20  C   UNL     1       0.941  11.783  20.085  0.00  0.00    +0.000 C 
ATOM     21  C   UNL     1       0.870  10.685  21.154  0.00  0.00    +0.000 C 
ATOM     22  C   UNL     1       0.123   9.451  20.641  0.00  0.00    +0.000 C 
ATOM     23  N   UNL     1       0.680   8.912  19.390  0.00  0.00    +0.000 NA
ATOM     24  C   UNL     1       0.645   9.955  18.351  0.00  0.00    +0.000 C 
ATOM     25  C   UNL     1       1.410  11.224  18.734  0.00  0.00    +0.000 C 
ENDBRANCH  18  23
ENDBRANCH  17  18
ENDBRANCH   1  17
TORSDOF 6
ENDMDL
MODEL 7
REMARK VINA RESULT:      -7.0      2.570      5.566
REMARK  Name = 
REMARK  7 active torsions:
REMARK  status: ('A' for Active; 'I' for Inactive)
REMARK    1  A    between atoms: C_1  and  C_2
REMARK    2  A    between atoms: N_5  and  C_6
REMARK    3  A    between atoms: C_6  and  C_7
REMARK    4  A    between atoms: C_7  and  C_8
REMARK    5  A    between atoms: N_12  and  S_13
REMARK    6  A    between atoms: S_13  and  C_16
REMARK    7  A    between atoms: C_20  and  O_21
REMARK                            x       y       z     vdW  Elec       q    Type
REMARK                         _______ _______ _______ _____ _____    ______ ____
ROOT
ATOM      1  C   UNL     1       2.857   3.038  18.197  0.00  0.00    +0.000 C 
ATOM      2  C   UNL     1       3.059   1.641  18.777  0.00  0.00    +0.000 C 
ATOM      3  C   UNL     1       4.358   1.771  19.552  0.00  0.00    +0.000 C 
ATOM      4  C   UNL     1       4.382   3.212  20.053  0.00  0.00    +0.000 C 
ATOM      5  N   UNL     1       3.282   3.936  19.334  0.00  0.00    +0.000 NA
ENDROOT
BRANCH   5   6
ATOM      6  S   UNL     1       1.975   4.431  20.341  0.00  0.00    +0.000 S 
ATOM      7  O   UNL     1       0.757   3.837  19.835  0.00  0.00    +0.000 OA
ATOM      8  O   UNL     1       2.392   4.242  21.717  0.00  0.00    +0.000 OA
BRANCH   6   9
ATOM      9  C   UNL     1       1.866   6.176  20.042  0.00  0.00    +0.000 A 
ATOM     10  C   UNL     1       1.353   7.029  21.026  0.00  0.00    +0.000 A 
ATOM     11  C   UNL     1       1.245   8.395  20.767  0.00  0.00    +0.000 A 
ATOM     12  C   UNL     1       1.660   8.906  19.533  0.00  0.00    +0.000 A 
ATOM     13  C   UNL     1       2.178   8.042  18.569  0.00  0.00    +0.000 A 
ATOM     14  C   UNL     1       2.275   6.679  18.804  0.00  0.00    +0.000 A 
BRANCH  13  15
ATOM     15  O   UNL     1       2.612   8.510  17.362  0.00  0.00    +0.000 OA
ATOM     16  H   UNL     1       3.206   7.852  16.968  0.00  0.00    +0.000 HD
ENDBRANCH  13  15
ENDBRANCH   6   9
ENDBRANCH   5   6
BRANCH   1  17
ATOM     17  C   UNL     1       3.748   3.336  16.976  0.00  0.00    +0.000 C 
BRANCH  17  18
ATOM     18  C   UNL     1       4.107   4.821  16.814  0.00  0.00    +0.000 C 
BRANCH  18  23
ATOM     19  C   UNL     1       7.977   6.536  18.828  0.00  0.00    +0.000 C 
ATOM     20  C   UNL     1       7.450   6.130  17.454  0.00  0.00    +0.000 C 
ATOM     21  C   UNL     1       6.249   6.999  17.056  0.00  0.00    +0.000 C 
ATOM     22  C   UNL     1       5.586   6.486  15.775  0.00  0.00    +0.000 C 
ATOM     23  N   UNL     1       5.191   5.070  15.852  0.00  0.00    +0.000 NA
ATOM     24  C   UNL     1       6.378   4.247  16.135  0.00  0.00    +0.000 C 
ATOM     25  C   UNL     1       7.097   4.637  17.428  0.00  0.00    +0.000 C 
ENDBRANCH  18  23
ENDBRANCH  17  18
ENDBRANCH   1  17
TORSDOF 6
ENDMDL
MODEL 8
REMARK VINA RESULT:      -7.0      1.383      1.796
REMARK  Name = 
REMARK  7 active torsions:
REMARK  status: ('A' for Active; 'I' for Inactive)
REMARK    1  A    between atoms: C_1  and  C_2
REMARK    2  A    between atoms: N_5  and  C_6
REMARK    3  A    between atoms: C_6  and  C_7
REMARK    4  A    between atoms: C_7  and  C_8
REMARK    5  A    between atoms: N_12  and  S_13
REMARK    6  A    between atoms: S_13  and  C_16
REMARK    7  A    between atoms: C_20  and  O_21
REMARK                            x       y       z     vdW  Elec       q    Type
REMARK                         _______ _______ _______ _____ _____    ______ ____
ROOT
ATOM      1  C   UNL     1       2.994   5.639  19.465  0.00  0.00    +0.000 C 
ATOM      2  C   UNL     1       2.271   5.056  20.677  0.00  0.00    +0.000 C 
ATOM      3  C   UNL     1       1.089   4.330  20.061  0.00  0.00    +0.000 C 
ATOM      4  C   UNL     1       1.584   3.841  18.703  0.00  0.00    +0.000 C 
ATOM      5  N   UNL     1       2.895   4.525  18.451  0.00  0.00    +0.000 NA
ENDROOT
BRANCH   5   6
ATOM      6  S   UNL     1       4.261   3.475  18.453  0.00  0.00    +0.000 S 
ATOM      7  O   UNL     1       4.990   3.674  19.687  0.00  0.00    +0.000 OA
ATOM      8  O   UNL     1       3.798   2.160  18.054  0.00  0.00    +0.000 OA
BRANCH   6   9
ATOM      9  C   UNL     1       5.272   4.115  17.143  0.00  0.00    +0.000 A 
ATOM     10  C   UNL     1       5.252   3.514  15.879  0.00  0.00    +0.000 A 
ATOM     11  C   UNL     1       6.074   4.009  14.868  0.00  0.00    +0.000 A 
ATOM     12  C   UNL     1       6.903   5.107  15.116  0.00  0.00    +0.000 A 
ATOM     13  C   UNL     1       6.902   5.699  16.379  0.00  0.00    +0.000 A 
ATOM     14  C   UNL     1       6.103   5.208  17.401  0.00  0.00    +0.000 A 
BRANCH  13  15
ATOM     15  O   UNL     1       7.682   6.785  16.650  0.00  0.00    +0.000 OA
ATOM     16  H   UNL     1       8.518   6.480  17.038  0.00  0.00    +0.000 HD
ENDBRANCH  13  15
ENDBRANCH   6   9
ENDBRANCH   5   6
BRANCH   1  17
ATOM     17  C   UNL     1       2.314   6.894  18.885  0.00  0.00    +0.000 C 
BRANCH  17  18
ATOM     18  C   UNL     1       1.599   7.757  19.935  0.00  0.00    +0.000 C 
BRANCH  18  23
ATOM     19  C   UNL     1      -2.061  10.064  18.130  0.00  0.00    +0.000 C 
ATOM     20  C   UNL     1      -0.646  10.324  18.641  0.00  0.00    +0.000 C 
ATOM     21  C   UNL     1       0.384   9.572  17.786  0.00  0.00    +0.000 C 
ATOM     22  C   UNL     1       1.787   9.661  18.392  0.00  0.00    +0.000 C 
ATOM     23  N   UNL     1       1.847   9.200  19.789  0.00  0.00    +0.000 NA
ATOM     24  C   UNL     1       0.924  10.003  20.608  0.00  0.00    +0.000 C 
ATOM     25  C   UNL     1      -0.527   9.948  20.124  0.00  0.00    +0.000 C 
ENDBRANCH  18  23
ENDBRANCH  17  18
ENDBRANCH   1  17
TORSDOF 6
ENDMDL
MODEL 9
REMARK VINA RESULT:      -7.0      3.386      5.318
REMARK  Name = 
REMARK  7 active torsions:
REMARK  status: ('A' for Active; 'I' for Inactive)
REMARK    1  A    between atoms: C_1  and  C_2
REMARK    2  A    between atoms: N_5  and  C_6
REMARK    3  A    between atoms: C_6  and  C_7
REMARK    4  A    between atoms: C_7  and  C_8
REMARK    5  A    between atoms: N_12  and  S_13
REMARK    6  A    between atoms: S_13  and  C_16
REMARK    7  A    between atoms: C_20  and  O_21
REMARK                            x       y       z     vdW  Elec       q    Type
REMARK                         _______ _______ _______ _____ _____    ______ ____
ROOT
ATOM      1  C   UNL     1       4.915   4.357  16.722  0.00  0.00    +0.000 C 
ATOM      2  C   UNL     1       5.142   5.433  17.781  0.00  0.00    +0.000 C 
ATOM      3  C   UNL     1       6.499   5.075  18.357  0.00  0.00    +0.000 C 
ATOM      4  C   UNL     1       7.274   4.455  17.197  0.00  0.00    +0.000 C 
ATOM      5  N   UNL     1       6.282   4.209  16.099  0.00  0.00    +0.000 NA
ENDROOT
BRANCH   5   6
ATOM      6  S   UNL     1       6.506   5.191  14.702  0.00  0.00    +0.000 S 
ATOM      7  O   UNL     1       5.555   6.280  14.749  0.00  0.00    +0.000 OA
ATOM      8  O   UNL     1       7.929   5.437  14.567  0.00  0.00    +0.000 OA
BRANCH   6   9
ATOM      9  C   UNL     1       6.012   4.128  13.370  0.00  0.00    +0.000 A 
ATOM     10  C   UNL     1       4.680   4.109  12.940  0.00  0.00    +0.000 A 
ATOM     11  C   UNL     1       4.300   3.246  11.913  0.00  0.00    +0.000 A 
ATOM     12  C   UNL     1       5.250   2.415  11.311  0.00  0.00    +0.000 A 
ATOM     13  C   UNL     1       6.574   2.455  11.746  0.00  0.00    +0.000 A 
ATOM     14  C   UNL     1       6.966   3.294  12.779  0.00  0.00    +0.000 A 
BRANCH  13  15
ATOM     15  O   UNL     1       7.531   1.674  11.167  0.00  0.00    +0.000 OA
ATOM     16  H   UNL     1       8.397   1.919  11.530  0.00  0.00    +0.000 HD
ENDBRANCH  13  15
ENDBRANCH   6   9
ENDBRANCH   5   6
BRANCH   1  17
ATOM     17  C   UNL     1       4.491   2.995  17.306  0.00  0.00    +0.000 C 
BRANCH  17  18
ATOM     18  C   UNL     1       2.970   2.815  17.424  0.00  0.00    +0.000 C 
BRANCH  18  23
ATOM     19  C   UNL     1       1.540   5.595  20.917  0.00  0.00    +0.000 C 
ATOM     20  C   UNL     1       1.717   4.114  20.593  0.00  0.00    +0.000 C 
ATOM     21  C   UNL     1       3.192   3.792  20.320  0.00  0.00    +0.000 C 
ATOM     22  C   UNL     1       3.368   2.361  19.807  0.00  0.00    +0.000 C 
ATOM     23  N   UNL     1       2.551   2.065  18.619  0.00  0.00    +0.000 NA
ATOM     24  C   UNL     1       1.130   2.285  18.937  0.00  0.00    +0.000 C 
ATOM     25  C   UNL     1       0.824   3.707  19.413  0.00  0.00    +0.000 C 
ENDBRANCH  18  23
ENDBRANCH  17  18
ENDBRANCH   1  17
TORSDOF 6
ENDMDL
