MODEL 1
REMARK VINA RESULT:      -7.7      0.000      0.000
REMARK  Name = 
REMARK  5 active torsions:
REMARK  status: ('A' for Active; 'I' for Inactive)
REMARK    1  A    between atoms: C_2  and  C_3
REMARK    2  A    between atoms: C_3  and  S_4
REMARK    3  A    between atoms: S_4  and  C_5
REMARK    4  A    between atoms: C_7  and  O_8
REMARK    5  A    between atoms: N_15  and  C_16
REMARK                            x       y       z     vdW  Elec       q    Type
REMARK                         _______ _______ _______ _____ _____    ______ ____
ROOT
ATOM      1  C   UNL     1       2.734   3.567  20.997  0.00  0.00    +0.000 C 
ENDROOT
BRANCH   1   3
ATOM      2  O   UNL     1       0.696   4.582  20.306  0.00  0.00    +0.000 OA
ATOM      3  C   UNL     1       1.896   4.747  20.521  0.00  0.00    +0.000 C 
ATOM      4  N   UNL     1       2.587   5.920  20.281  0.00  0.00    +0.000 N 
ATOM      5  H   UNL     1       3.603   5.880  20.302  0.00  0.00    +0.000 HD
BRANCH   4   6
ATOM      6  C   UNL     1       2.031   7.197  20.021  0.00  0.00    +0.000 A 
ATOM      7  C   UNL     1       1.265   7.889  20.965  0.00  0.00    +0.000 A 
ATOM      8  C   UNL     1       0.776   9.172  20.696  0.00  0.00    +0.000 A 
ATOM      9  C   UNL     1       1.048   9.785  19.477  0.00  0.00    +0.000 A 
ATOM     10  C   UNL     1       1.806   9.111  18.521  0.00  0.00    +0.000 A 
ATOM     11  C   UNL     1       2.298   7.829  18.792  0.00  0.00    +0.000 A 
ATOM     12 CL   UNL     1       3.217   7.033  17.560  0.00  0.00    +0.000 Cl
ENDBRANCH   4   6
ENDBRANCH   1   3
BRANCH   1  13
ATOM     13  S   UNL     1       3.157   2.374  19.693  0.00  0.00    +0.000 S 
BRANCH  13  14
ATOM     14  C   UNL     1       4.436   3.293  18.869  0.00  0.00    +0.000 A 
ATOM     15  N   UNL     1       5.316   3.980  19.628  0.00  0.00    +0.000 NA
ATOM     16  C   UNL     1       6.161   4.772  18.959  0.00  0.00    +0.000 A 
ATOM     17  C   UNL     1       6.178   4.886  17.608  0.00  0.00    +0.000 A 
ATOM     18  C   UNL     1       5.257   4.120  16.935  0.00  0.00    +0.000 A 
ATOM     19  N   UNL     1       4.364   3.320  17.526  0.00  0.00    +0.000 NA
ATOM     20  C   UNL     1       5.318   4.380  15.458  0.00  0.00    +0.000 C 
ATOM     21  C   UNL     1       6.681   5.083  15.341  0.00  0.00    +0.000 C 
ATOM     22  C   UNL     1       6.956   5.760  16.694  0.00  0.00    +0.000 C 
BRANCH  16  23
ATOM     23  O   UNL     1       6.994   5.499  19.740  0.00  0.00    +0.000 OA
ATOM     24  H   UNL     1       6.469   6.307  19.875  0.00  0.00    +0.000 HD
ENDBRANCH  16  23
ENDBRANCH  13  14
ENDBRANCH   1  13
TORSDOF 5
ENDMDL
MODEL 2
REMARK VINA RESULT:      -7.5      1.266      1.939
REMARK  Name = 
REMARK  5 active torsions:
REMARK  status: ('A' for Active; 'I' for Inactive)
REMARK    1  A    between atoms: C_2  and  C_3
REMARK    2  A    between atoms: C_3  and  S_4
REMARK    3  A    between atoms: S_4  and  C_5
REMARK    4  A    between atoms: C_7  and  O_8
REMARK    5  A    between atoms: N_15  and  C_16
REMARK                            x       y       z     vdW  Elec       q    Type
REMARK                         _______ _______ _______ _____ _____    ______ ____
ROOT
ATOM      1  C   UNL     1       2.853   3.262  20.572  0.00  0.00    +0.000 C 
ENDROOT
BRANCH   1   3
ATOM      2  O   UNL     1       1.161   4.290  19.251  0.00  0.00    +0.000 OA
ATOM      3  C   UNL     1       2.115   4.469  20.006  0.00  0.00    +0.000 C 
ATOM      4  N   UNL     1       2.645   5.705  20.328  0.00  0.00    +0.000 N 
ATOM      5  H   UNL     1       3.549   5.723  20.794  0.00  0.00    +0.000 HD
BRANCH   4   6
ATOM      6  C   UNL     1       2.053   6.971  20.096  0.00  0.00    +0.000 A 
ATOM      7  C   UNL     1       1.259   7.616  21.050  0.00  0.00    +0.000 A 
ATOM      8  C   UNL     1       0.734   8.890  20.809  0.00  0.00    +0.000 A 
ATOM      9  C   UNL     1       0.998   9.542  19.609  0.00  0.00    +0.000 A 
ATOM     10  C   UNL     1       1.783   8.916  18.643  0.00  0.00    +0.000 A 
ATOM     11  C   UNL     1       2.311   7.643  18.886  0.00  0.00    +0.000 A 
ATOM     12 CL   UNL     1       3.265   6.907  17.643  0.00  0.00    +0.000 Cl
ENDBRANCH   4   6
ENDBRANCH   1   3
BRANCH   1  13
ATOM     13  S   UNL     1       3.634   2.206  19.318  0.00  0.00    +0.000 S 
BRANCH  13  14
ATOM     14  C   UNL     1       4.601   3.434  18.471  0.00  0.00    +0.000 A 
ATOM     15  N   UNL     1       4.504   3.504  17.126  0.00  0.00    +0.000 NA
ATOM     16  C   UNL     1       5.361   4.340  16.529  0.00  0.00    +0.000 A 
ATOM     17  C   UNL     1       6.265   5.099  17.197  0.00  0.00    +0.000 A 
ATOM     18  C   UNL     1       6.256   4.967  18.564  0.00  0.00    +0.000 A 
ATOM     19  N   UNL     1       5.450   4.142  19.239  0.00  0.00    +0.000 NA
ATOM     20  C   UNL     1       7.340   5.794  19.190  0.00  0.00    +0.000 C 
ATOM     21  C   UNL     1       7.696   6.739  18.030  0.00  0.00    +0.000 C 
ATOM     22  C   UNL     1       7.346   6.001  16.727  0.00  0.00    +0.000 C 
BRANCH  16  23
ATOM     23  O   UNL     1       5.290   4.351  15.177  0.00  0.00    +0.000 OA
ATOM     24  H   UNL     1       4.329   4.279  15.038  0.00  0.00    +0.000 HD
ENDBRANCH  16  23
ENDBRANCH  13  14
ENDBRANCH   1  13
TORSDOF 5
ENDMDL
MODEL 3
REMARK VINA RESULT:      -7.5      3.395      6.563
REMARK  Name = 
REMARK  5 active torsions:
REMARK  status: ('A' for Active; 'I' for Inactive)
REMARK    1  A    between atoms: C_2  and  C_3
REMARK    2  A    between atoms: C_3  and  S_4
REMARK    3  A    between atoms: S_4  and  C_5
REMARK    4  A    between atoms: C_7  and  O_8
REMARK    5  A    between atoms: N_15  and  C_16
REMARK                            x       y       z     vdW  Elec       q    Type
REMARK                         _______ _______ _______ _____ _____    ______ ____
ROOT
ATOM      1  C   UNL     1       7.309   5.876  18.240  0.00  0.00    +0.000 C 
ENDROOT
BRANCH   1   3
ATOM      2  O   UNL     1       8.198   4.072  16.969  0.00  0.00    +0.000 OA
ATOM      3  C   UNL     1       7.524   5.101  16.947  0.00  0.00    +0.000 C 
ATOM      4  N   UNL     1       6.999   5.676  15.805  0.00  0.00    +0.000 N 
ATOM      5  H   UNL     1       6.636   6.623  15.878  0.00  0.00    +0.000 HD
BRANCH   4   6
ATOM      6  C   UNL     1       6.892   5.079  14.523  0.00  0.00    +0.000 A 
ATOM      7  C   UNL     1       7.776   5.376  13.480  0.00  0.00    +0.000 A 
ATOM      8  C   UNL     1       7.675   4.729  12.244  0.00  0.00    +0.000 A 
ATOM      9  C   UNL     1       6.689   3.771  12.032  0.00  0.00    +0.000 A 
ATOM     10  C   UNL     1       5.796   3.463  13.057  0.00  0.00    +0.000 A 
ATOM     11  C   UNL     1       5.899   4.108  14.295  0.00  0.00    +0.000 A 
ATOM     12 CL   UNL     1       4.751   3.698  15.524  0.00  0.00    +0.000 Cl
ENDBRANCH   4   6
ENDBRANCH   1   3
BRANCH   1  13
ATOM     13  S   UNL     1       5.685   6.680  18.372  0.00  0.00    +0.000 S 
BRANCH  13  14
ATOM     14  C   UNL     1       4.688   5.252  18.733  0.00  0.00    +0.000 A 
ATOM     15  N   UNL     1       5.283   4.195  19.326  0.00  0.00    +0.000 NA
ATOM     16  C   UNL     1       4.528   3.097  19.438  0.00  0.00    +0.000 A 
ATOM     17  C   UNL     1       3.242   3.019  19.015  0.00  0.00    +0.000 A 
ATOM     18  C   UNL     1       2.731   4.163  18.452  0.00  0.00    +0.000 A 
ATOM     19  N   UNL     1       3.421   5.295  18.283  0.00  0.00    +0.000 NA
ATOM     20  C   UNL     1       1.331   3.940  17.958  0.00  0.00    +0.000 C 
ATOM     21  C   UNL     1       0.965   2.640  18.694  0.00  0.00    +0.000 C 
ATOM     22  C   UNL     1       2.279   1.889  18.962  0.00  0.00    +0.000 C 
BRANCH  16  23
ATOM     23  O   UNL     1       5.160   2.029  19.979  0.00  0.00    +0.000 OA
ATOM     24  H   UNL     1       5.201   1.427  19.215  0.00  0.00    +0.000 HD
ENDBRANCH  16  23
ENDBRANCH  13  14
ENDBRANCH   1  13
TORSDOF 5
ENDMDL
MODEL 4
REMARK VINA RESULT:      -7.5      3.195      6.743
REMARK  Name = 
REMARK  5 active torsions:
REMARK  status: ('A' for Active; 'I' for Inactive)
REMARK    1  A    between atoms: C_2  and  C_3
REMARK    2  A    between atoms: C_3  and  S_4
REMARK    3  A    between atoms: S_4  and  C_5
REMARK    4  A    between atoms: C_7  and  O_8
REMARK    5  A    between atoms: N_15  and  C_16
REMARK                            x       y       z     vdW  Elec       q    Type
REMARK                         _______ _______ _______ _____ _____    ______ ____
ROOT
ATOM      1  C   UNL     1       7.455   6.291  17.681  0.00  0.00    +0.000 C 
ENDROOT
BRANCH   1   3
ATOM      2  O   UNL     1       7.963   4.153  16.769  0.00  0.00    +0.000 OA
ATOM      3  C   UNL     1       7.471   5.261  16.560  0.00  0.00    +0.000 C 
ATOM      4  N   UNL     1       6.994   5.693  15.336  0.00  0.00    +0.000 N 
ATOM      5  H   UNL     1       6.799   6.686  15.231  0.00  0.00    +0.000 HD
BRANCH   4   6
ATOM      6  C   UNL     1       6.724   4.894  14.197  0.00  0.00    +0.000 A 
ATOM      7  C   UNL     1       5.610   4.052  14.118  0.00  0.00    +0.000 A 
ATOM      8  C   UNL     1       5.343   3.317  12.957  0.00  0.00    +0.000 A 
ATOM      9  C   UNL     1       6.186   3.416  11.855  0.00  0.00    +0.000 A 
ATOM     10  C   UNL     1       7.304   4.247  11.915  0.00  0.00    +0.000 A 
ATOM     11  C   UNL     1       7.569   4.984  13.075  0.00  0.00    +0.000 A 
ATOM     12 CL   UNL     1       8.981   5.985  13.098  0.00  0.00    +0.000 Cl
ENDBRANCH   4   6
ENDBRANCH   1   3
BRANCH   1  13
ATOM     13  S   UNL     1       6.991   5.624  19.306  0.00  0.00    +0.000 S 
BRANCH  13  14
ATOM     14  C   UNL     1       5.336   5.090  18.934  0.00  0.00    +0.000 A 
ATOM     15  N   UNL     1       4.446   6.018  18.521  0.00  0.00    +0.000 NA
ATOM     16  C   UNL     1       3.184   5.594  18.400  0.00  0.00    +0.000 A 
ATOM     17  C   UNL     1       2.790   4.319  18.645  0.00  0.00    +0.000 A 
ATOM     18  C   UNL     1       3.784   3.454  19.033  0.00  0.00    +0.000 A 
ATOM     19  N   UNL     1       5.064   3.799  19.199  0.00  0.00    +0.000 NA
ATOM     20  C   UNL     1       3.223   2.097  19.346  0.00  0.00    +0.000 C 
ATOM     21  C   UNL     1       1.840   2.192  18.680  0.00  0.00    +0.000 C 
ATOM     22  C   UNL     1       1.450   3.679  18.661  0.00  0.00    +0.000 C 
BRANCH  16  23
ATOM     23  O   UNL     1       2.296   6.552  18.044  0.00  0.00    +0.000 OA
ATOM     24  H   UNL     1       1.955   6.191  17.207  0.00  0.00    +0.000 HD
ENDBRANCH  16  23
ENDBRANCH  13  14
ENDBRANCH   1  13
TORSDOF 5
ENDMDL
MODEL 5
REMARK VINA RESULT:      -7.4      2.942      6.532
REMARK  Name = 
REMARK  5 active torsions:
REMARK  status: ('A' for Active; 'I' for Inactive)
REMARK    1  A    between atoms: C_2  and  C_3
REMARK    2  A    between atoms: C_3  and  S_4
REMARK    3  A    between atoms: S_4  and  C_5
REMARK    4  A    between atoms: C_7  and  O_8
REMARK    5  A    between atoms: N_15  and  C_16
REMARK                            x       y       z     vdW  Elec       q    Type
REMARK                         _______ _______ _______ _____ _____    ______ ____
ROOT
ATOM      1  C   UNL     1       7.419   6.915  17.757  0.00  0.00    +0.000 C 
ENDROOT
BRANCH   1   3
ATOM      2  O   UNL     1       5.660   6.916  16.155  0.00  0.00    +0.000 OA
ATOM      3  C   UNL     1       6.743   6.433  16.480  0.00  0.00    +0.000 C 
ATOM      4  N   UNL     1       7.378   5.401  15.814  0.00  0.00    +0.000 N 
ATOM      5  H   UNL     1       8.160   4.948  16.283  0.00  0.00    +0.000 HD
BRANCH   4   6
ATOM      6  C   UNL     1       7.070   4.904  14.523  0.00  0.00    +0.000 A 
ATOM      7  C   UNL     1       7.839   5.213  13.396  0.00  0.00    +0.000 A 
ATOM      8  C   UNL     1       7.539   4.663  12.146  0.00  0.00    +0.000 A 
ATOM      9  C   UNL     1       6.465   3.790  12.003  0.00  0.00    +0.000 A 
ATOM     10  C   UNL     1       5.684   3.471  13.112  0.00  0.00    +0.000 A 
ATOM     11  C   UNL     1       5.986   4.020  14.364  0.00  0.00    +0.000 A 
ATOM     12 CL   UNL     1       4.970   3.603  15.702  0.00  0.00    +0.000 Cl
ENDBRANCH   4   6
ENDBRANCH   1   3
BRANCH   1  13
ATOM     13  S   UNL     1       7.558   5.651  19.055  0.00  0.00    +0.000 S 
BRANCH  13  14
ATOM     14  C   UNL     1       5.858   5.134  19.134  0.00  0.00    +0.000 A 
ATOM     15  N   UNL     1       4.921   6.069  19.400  0.00  0.00    +0.000 NA
ATOM     16  C   UNL     1       3.682   5.605  19.597  0.00  0.00    +0.000 A 
ATOM     17  C   UNL     1       3.347   4.293  19.519  0.00  0.00    +0.000 A 
ATOM     18  C   UNL     1       4.375   3.434  19.215  0.00  0.00    +0.000 A 
ATOM     19  N   UNL     1       5.643   3.811  19.024  0.00  0.00    +0.000 NA
ATOM     20  C   UNL     1       3.906   2.009  19.227  0.00  0.00    +0.000 C 
ATOM     21  C   UNL     1       2.381   2.202  19.166  0.00  0.00    +0.000 C 
ATOM     22  C   UNL     1       2.077   3.574  19.789  0.00  0.00    +0.000 C 
BRANCH  16  23
ATOM     23  O   UNL     1       2.769   6.550  19.923  0.00  0.00    +0.000 OA
ATOM     24  H   UNL     1       2.599   6.954  19.054  0.00  0.00    +0.000 HD
ENDBRANCH  16  23
ENDBRANCH  13  14
ENDBRANCH   1  13
TORSDOF 5
ENDMDL
MODEL 6
REMARK VINA RESULT:      -7.4      3.625      6.753
REMARK  Name = 
REMARK  5 active torsions:
REMARK  status: ('A' for Active; 'I' for Inactive)
REMARK    1  A    between atoms: C_2  and  C_3
REMARK    2  A    between atoms: C_3  and  S_4
REMARK    3  A    between atoms: S_4  and  C_5
REMARK    4  A    between atoms: C_7  and  O_8
REMARK    5  A    between atoms: N_15  and  C_16
REMARK                            x       y       z     vdW  Elec       q    Type
REMARK                         _______ _______ _______ _____ _____    ______ ____
ROOT
ATOM      1  C   UNL     1       7.051   6.275  17.526  0.00  0.00    +0.000 C 
ENDROOT
BRANCH   1   3
ATOM      2  O   UNL     1       7.929   4.278  16.575  0.00  0.00    +0.000 OA
ATOM      3  C   UNL     1       7.241   5.280  16.388  0.00  0.00    +0.000 C 
ATOM      4  N   UNL     1       6.678   5.635  15.176  0.00  0.00    +0.000 N 
ATOM      5  H   UNL     1       6.303   6.577  15.089  0.00  0.00    +0.000 HD
BRANCH   4   6
ATOM      6  C   UNL     1       6.544   4.817  14.027  0.00  0.00    +0.000 A 
ATOM      7  C   UNL     1       5.465   3.944  13.848  0.00  0.00    +0.000 A 
ATOM      8  C   UNL     1       5.335   3.189  12.677  0.00  0.00    +0.000 A 
ATOM      9  C   UNL     1       6.282   3.298  11.664  0.00  0.00    +0.000 A 
ATOM     10  C   UNL     1       7.366   4.159  11.824  0.00  0.00    +0.000 A 
ATOM     11  C   UNL     1       7.494   4.916  12.994  0.00  0.00    +0.000 A 
ATOM     12 CL   UNL     1       8.871   5.954  13.145  0.00  0.00    +0.000 Cl
ENDBRANCH   4   6
ENDBRANCH   1   3
BRANCH   1  13
ATOM     13  S   UNL     1       5.379   6.978  17.636  0.00  0.00    +0.000 S 
BRANCH  13  14
ATOM     14  C   UNL     1       4.503   5.542  18.212  0.00  0.00    +0.000 A 
ATOM     15  N   UNL     1       5.189   4.619  18.919  0.00  0.00    +0.000 NA
ATOM     16  C   UNL     1       4.523   3.493  19.197  0.00  0.00    +0.000 A 
ATOM     17  C   UNL     1       3.237   3.267  18.831  0.00  0.00    +0.000 A 
ATOM     18  C   UNL     1       2.628   4.287  18.141  0.00  0.00    +0.000 A 
ATOM     19  N   UNL     1       3.226   5.433  17.803  0.00  0.00    +0.000 NA
ATOM     20  C   UNL     1       1.238   3.900  17.727  0.00  0.00    +0.000 C 
ATOM     21  C   UNL     1       0.989   2.685  18.637  0.00  0.00    +0.000 C 
ATOM     22  C   UNL     1       2.363   2.074  18.958  0.00  0.00    +0.000 C 
BRANCH  16  23
ATOM     23  O   UNL     1       5.247   2.555  19.852  0.00  0.00    +0.000 OA
ATOM     24  H   UNL     1       5.118   1.781  19.275  0.00  0.00    +0.000 HD
ENDBRANCH  16  23
ENDBRANCH  13  14
ENDBRANCH   1  13
TORSDOF 5
ENDMDL
MODEL 7
REMARK VINA RESULT:      -7.3      2.779      6.612
REMARK  Name = 
REMARK  5 active torsions:
REMARK  status: ('A' for Active; 'I' for Inactive)
REMARK    1  A    between atoms: C_2  and  C_3
REMARK    2  A    between atoms: C_3  and  S_4
REMARK    3  A    between atoms: S_4  and  C_5
REMARK    4  A    between atoms: C_7  and  O_8
REMARK    5  A    between atoms: N_15  and  C_16
REMARK                            x       y       z     vdW  Elec       q    Type
REMARK                         _______ _______ _______ _____ _____    ______ ____
ROOT
ATOM      1  C   UNL     1       7.011   7.089  17.668  0.00  0.00    +0.000 C 
ENDROOT
BRANCH   1   3
ATOM      2  O   UNL     1       5.340   6.888  15.987  0.00  0.00    +0.000 OA
ATOM      3  C   UNL     1       6.447   6.518  16.374  0.00  0.00    +0.000 C 
ATOM      4  N   UNL     1       7.209   5.538  15.765  0.00  0.00    +0.000 N 
ATOM      5  H   UNL     1       8.007   5.173  16.281  0.00  0.00    +0.000 HD
BRANCH   4   6
ATOM      6  C   UNL     1       7.013   4.987  14.474  0.00  0.00    +0.000 A 
ATOM      7  C   UNL     1       7.783   5.368  13.370  0.00  0.00    +0.000 A 
ATOM      8  C   UNL     1       7.600   4.765  12.121  0.00  0.00    +0.000 A 
ATOM      9  C   UNL     1       6.644   3.768  11.957  0.00  0.00    +0.000 A 
ATOM     10  C   UNL     1       5.863   3.376  13.043  0.00  0.00    +0.000 A 
ATOM     11  C   UNL     1       6.050   3.977  14.294  0.00  0.00    +0.000 A 
ATOM     12 CL   UNL     1       5.039   3.463  15.602  0.00  0.00    +0.000 Cl
ENDBRANCH   4   6
ENDBRANCH   1   3
BRANCH   1  13
ATOM     13  S   UNL     1       7.513   5.836  18.885  0.00  0.00    +0.000 S 
BRANCH  13  14
ATOM     14  C   UNL     1       5.926   5.106  19.214  0.00  0.00    +0.000 A 
ATOM     15  N   UNL     1       5.802   3.767  19.084  0.00  0.00    +0.000 NA
ATOM     16  C   UNL     1       4.558   3.289  19.195  0.00  0.00    +0.000 A 
ATOM     17  C   UNL     1       3.472   4.063  19.443  0.00  0.00    +0.000 A 
ATOM     18  C   UNL     1       3.719   5.406  19.584  0.00  0.00    +0.000 A 
ATOM     19  N   UNL     1       4.926   5.969  19.468  0.00  0.00    +0.000 NA
ATOM     20  C   UNL     1       2.442   6.169  19.783  0.00  0.00    +0.000 C 
ATOM     21  C   UNL     1       1.476   5.032  20.156  0.00  0.00    +0.000 C 
ATOM     22  C   UNL     1       2.023   3.748  19.509  0.00  0.00    +0.000 C 
BRANCH  16  23
ATOM     23  O   UNL     1       4.446   1.954  19.002  0.00  0.00    +0.000 OA
ATOM     24  H   UNL     1       4.394   1.908  18.031  0.00  0.00    +0.000 HD
ENDBRANCH  16  23
ENDBRANCH  13  14
ENDBRANCH   1  13
TORSDOF 5
ENDMDL
MODEL 8
REMARK VINA RESULT:      -7.2      1.673      2.452
REMARK  Name = 
REMARK  5 active torsions:
REMARK  status: ('A' for Active; 'I' for Inactive)
REMARK    1  A    between atoms: C_2  and  C_3
REMARK    2  A    between atoms: C_3  and  S_4
REMARK    3  A    between atoms: S_4  and  C_5
REMARK    4  A    between atoms: C_7  and  O_8
REMARK    5  A    between atoms: N_15  and  C_16
REMARK                            x       y       z     vdW  Elec       q    Type
REMARK                         _______ _______ _______ _____ _____    ______ ____
ROOT
ATOM      1  C   UNL     1       2.580   3.826  20.839  0.00  0.00    +0.000 C 
ENDROOT
BRANCH   1   3
ATOM      2  O   UNL     1       1.375   4.636  18.953  0.00  0.00    +0.000 OA
ATOM      3  C   UNL     1       2.132   4.922  19.880  0.00  0.00    +0.000 C 
ATOM      4  N   UNL     1       2.693   6.168  20.084  0.00  0.00    +0.000 N 
ATOM      5  H   UNL     1       3.455   6.238  20.755  0.00  0.00    +0.000 HD
BRANCH   4   6
ATOM      6  C   UNL     1       2.311   7.386  19.467  0.00  0.00    +0.000 A 
ATOM      7  C   UNL     1       2.689   7.717  18.161  0.00  0.00    +0.000 A 
ATOM      8  C   UNL     1       2.249   8.903  17.563  0.00  0.00    +0.000 A 
ATOM      9  C   UNL     1       1.421   9.776  18.261  0.00  0.00    +0.000 A 
ATOM     10  C   UNL     1       1.036   9.466  19.564  0.00  0.00    +0.000 A 
ATOM     11  C   UNL     1       1.473   8.278  20.162  0.00  0.00    +0.000 A 
ATOM     12 CL   UNL     1       0.978   7.955  21.788  0.00  0.00    +0.000 Cl
ENDBRANCH   4   6
ENDBRANCH   1   3
BRANCH   1  13
ATOM     13  S   UNL     1       3.692   2.594  20.100  0.00  0.00    +0.000 S 
BRANCH  13  14
ATOM     14  C   UNL     1       4.592   3.650  18.989  0.00  0.00    +0.000 A 
ATOM     15  N   UNL     1       4.360   3.525  17.665  0.00  0.00    +0.000 NA
ATOM     16  C   UNL     1       5.168   4.233  16.868  0.00  0.00    +0.000 A 
ATOM     17  C   UNL     1       6.150   5.050  17.324  0.00  0.00    +0.000 A 
ATOM     18  C   UNL     1       6.278   5.120  18.689  0.00  0.00    +0.000 A 
ATOM     19  N   UNL     1       5.529   4.432  19.556  0.00  0.00    +0.000 NA
ATOM     20  C   UNL     1       7.437   5.992  19.076  0.00  0.00    +0.000 C 
ATOM     21  C   UNL     1       7.692   6.743  17.757  0.00  0.00    +0.000 C 
ATOM     22  C   UNL     1       7.196   5.835  16.620  0.00  0.00    +0.000 C 
BRANCH  16  23
ATOM     23  O   UNL     1       4.959   4.049  15.543  0.00  0.00    +0.000 OA
ATOM     24  H   UNL     1       5.869   3.906  15.228  0.00  0.00    +0.000 HD
ENDBRANCH  16  23
ENDBRANCH  13  14
ENDBRANCH   1  13
TORSDOF 5
ENDMDL
MODEL 9
REMARK VINA RESULT:      -7.2      1.209      1.616
REMARK  Name = 
REMARK  5 active torsions:
REMARK  status: ('A' for Active; 'I' for Inactive)
REMARK    1  A    between atoms: C_2  and  C_3
REMARK    2  A    between atoms: C_3  and  S_4
REMARK    3  A    between atoms: S_4  and  C_5
REMARK    4  A    between atoms: C_7  and  O_8
REMARK    5  A    between atoms: N_15  and  C_16
REMARK                            x       y       z     vdW  Elec       q    Type
REMARK                         _______ _______ _______ _____ _____    ______ ____
ROOT
ATOM      1  C   UNL     1       2.377   3.809  20.580  0.00  0.00    +0.000 C 
ENDROOT
BRANCH   1   3
ATOM      2  O   UNL     1       1.322   4.743  18.663  0.00  0.00    +0.000 OA
ATOM      3  C   UNL     1       2.027   4.961  19.647  0.00  0.00    +0.000 C 
ATOM      4  N   UNL     1       2.616   6.177  19.942  0.00  0.00    +0.000 N 
ATOM      5  H   UNL     1       3.336   6.189  20.661  0.00  0.00    +0.000 HD
BRANCH   4   6
ATOM      6  C   UNL     1       2.314   7.432  19.359  0.00  0.00    +0.000 A 
ATOM      7  C   UNL     1       2.717   7.776  18.064  0.00  0.00    +0.000 A 
ATOM      8  C   UNL     1       2.356   9.003  17.498  0.00  0.00    +0.000 A 
ATOM      9  C   UNL     1       1.581   9.907  18.219  0.00  0.00    +0.000 A 
ATOM     10  C   UNL     1       1.172   9.586  19.512  0.00  0.00    +0.000 A 
ATOM     11  C   UNL     1       1.531   8.356  20.076  0.00  0.00    +0.000 A 
ATOM     12 CL   UNL     1       1.010   8.020  21.692  0.00  0.00    +0.000 Cl
ENDBRANCH   4   6
ENDBRANCH   1   3
BRANCH   1  13
ATOM     13  S   UNL     1       3.261   2.438  19.780  0.00  0.00    +0.000 S 
BRANCH  13  14
ATOM     14  C   UNL     1       4.521   3.365  18.935  0.00  0.00    +0.000 A 
ATOM     15  N   UNL     1       5.408   4.058  19.681  0.00  0.00    +0.000 NA
ATOM     16  C   UNL     1       6.238   4.854  18.998  0.00  0.00    +0.000 A 
ATOM     17  C   UNL     1       6.234   4.967  17.646  0.00  0.00    +0.000 A 
ATOM     18  C   UNL     1       5.307   4.195  16.989  0.00  0.00    +0.000 A 
ATOM     19  N   UNL     1       4.429   3.389  17.593  0.00  0.00    +0.000 NA
ATOM     20  C   UNL     1       5.345   4.454  15.511  0.00  0.00    +0.000 C 
ATOM     21  C   UNL     1       6.701   5.165  15.372  0.00  0.00    +0.000 C 
ATOM     22  C   UNL     1       6.992   5.845  16.720  0.00  0.00    +0.000 C 
BRANCH  16  23
ATOM     23  O   UNL     1       7.078   5.587  19.766  0.00  0.00    +0.000 OA
ATOM     24  H   UNL     1       6.567   6.408  19.874  0.00  0.00    +0.000 HD
ENDBRANCH  16  23
ENDBRANCH  13  14
ENDBRANCH   1  13
TORSDOF 5
ENDMDL
