MODEL 1
REMARK VINA RESULT:      -8.2      0.000      0.000
REMARK  Name = 
REMARK  4 active torsions:
REMARK  status: ('A' for Active; 'I' for Inactive)
REMARK    1  A    between atoms: N_4  and  C_5
REMARK    2  A    between atoms: C_8  and  C_9
REMARK    3  A    between atoms: C_9  and  C_11
REMARK    4  A    between atoms: C_15  and  N_16
REMARK                            x       y       z     vdW  Elec       q    Type
REMARK                         _______ _______ _______ _____ _____    ______ ____
ROOT
ATOM      1  C   UNL     1       2.216   6.333  19.920  0.00  0.00    +0.000 C 
ATOM      2  O   UNL     1       1.998   6.009  21.085  0.00  0.00    +0.000 OA
ENDROOT
BRANCH   1   6
ATOM      3  C   UNL     1       1.051  10.298  18.689  0.00  0.00    +0.000 A 
ATOM      4  C   UNL     1       0.762   9.809  19.972  0.00  0.00    +0.000 A 
ATOM      5  C   UNL     1       1.167   8.531  20.366  0.00  0.00    +0.000 A 
ATOM      6  C   UNL     1       1.873   7.712  19.481  0.00  0.00    +0.000 A 
ATOM      7  C   UNL     1       2.177   8.190  18.203  0.00  0.00    +0.000 A 
ATOM      8  C   UNL     1       1.791   9.483  17.826  0.00  0.00    +0.000 A 
BRANCH   3  12
ATOM      9  N   UNL     1      -1.540  11.257  17.460  0.00  0.00    +0.000 NA
ATOM     10  C   UNL     1      -0.600  12.002  17.925  0.00  0.00    +0.000 C 
ATOM     11  N   UNL     1      -0.754  13.347  17.992  0.00  0.00    +0.000 N 
ATOM     12  N   UNL     1       0.623  11.600  18.362  0.00  0.00    +0.000 N 
ATOM     13  H   UNL     1      -2.348  11.826  17.212  0.00  0.00    +0.000 HD
ATOM     14  H   UNL     1      -1.524  13.716  17.448  0.00  0.00    +0.000 HD
ATOM     15  H   UNL     1       0.086  13.890  17.844  0.00  0.00    +0.000 HD
ATOM     16  H   UNL     1       1.208  12.309  18.778  0.00  0.00    +0.000 HD
ENDBRANCH   3  12
ENDBRANCH   1   6
BRANCH   1  17
ATOM     17  C   UNL     1       2.809   5.329  19.002  0.00  0.00    +0.000 A 
ATOM     18  C   UNL     1       2.028   4.627  18.081  0.00  0.00    +0.000 A 
ATOM     19  C   UNL     1       2.630   3.701  17.235  0.00  0.00    +0.000 A 
ATOM     20  C   UNL     1       4.012   3.507  17.287  0.00  0.00    +0.000 A 
ATOM     21  C   UNL     1       4.827   4.230  18.176  0.00  0.00    +0.000 A 
ATOM     22  C   UNL     1       4.201   5.135  19.038  0.00  0.00    +0.000 A 
BRANCH  21  23
ATOM     23  N   UNL     1       6.213   3.999  18.152  0.00  0.00    +0.000 N 
ATOM     24  C   UNL     1       7.211   4.681  17.541  0.00  0.00    +0.000 C 
ATOM     25  N   UNL     1       7.185   5.644  16.695  0.00  0.00    +0.000 NA
ATOM     26  N   UNL     1       8.427   4.196  17.885  0.00  0.00    +0.000 N 
ATOM     27  H   UNL     1       6.478   3.059  18.413  0.00  0.00    +0.000 HD
ATOM     28  H   UNL     1       6.218   5.878  16.463  0.00  0.00    +0.000 HD
ATOM     29  H   UNL     1       8.571   4.166  18.886  0.00  0.00    +0.000 HD
ATOM     30  H   UNL     1       9.137   4.785  17.456  0.00  0.00    +0.000 HD
ENDBRANCH  21  23
ENDBRANCH   1  17
TORSDOF 4
ENDMDL
MODEL 2
REMARK VINA RESULT:      -7.9      1.772      2.733
REMARK  Name = 
REMARK  4 active torsions:
REMARK  status: ('A' for Active; 'I' for Inactive)
REMARK    1  A    between atoms: N_4  and  C_5
REMARK    2  A    between atoms: C_8  and  C_9
REMARK    3  A    between atoms: C_9  and  C_11
REMARK    4  A    between atoms: C_15  and  N_16
REMARK                            x       y       z     vdW  Elec       q    Type
REMARK                         _______ _______ _______ _____ _____    ______ ____
ROOT
ATOM      1  C   UNL     1       3.552   5.585  19.333  0.00  0.00    +0.000 C 
ATOM      2  O   UNL     1       3.111   4.745  20.115  0.00  0.00    +0.000 OA
ENDROOT
BRANCH   1   6
ATOM      3  C   UNL     1       1.512   9.332  18.706  0.00  0.00    +0.000 A 
ATOM      4  C   UNL     1       2.293   8.741  17.702  0.00  0.00    +0.000 A 
ATOM      5  C   UNL     1       2.930   7.514  17.910  0.00  0.00    +0.000 A 
ATOM      6  C   UNL     1       2.796   6.850  19.133  0.00  0.00    +0.000 A 
ATOM      7  C   UNL     1       2.011   7.422  20.139  0.00  0.00    +0.000 A 
ATOM      8  C   UNL     1       1.355   8.639  19.911  0.00  0.00    +0.000 A 
BRANCH   3  12
ATOM      9  N   UNL     1      -1.167   9.927  17.437  0.00  0.00    +0.000 NA
ATOM     10  C   UNL     1      -0.371  10.787  17.967  0.00  0.00    +0.000 C 
ATOM     11  N   UNL     1      -0.741  12.086  18.090  0.00  0.00    +0.000 N 
ATOM     12  N   UNL     1       0.889  10.564  18.425  0.00  0.00    +0.000 N 
ATOM     13  H   UNL     1      -2.050  10.372  17.188  0.00  0.00    +0.000 HD
ATOM     14  H   UNL     1      -1.547  12.355  17.539  0.00  0.00    +0.000 HD
ATOM     15  H   UNL     1       0.004  12.762  17.995  0.00  0.00    +0.000 HD
ATOM     16  H   UNL     1       1.341  11.335  18.893  0.00  0.00    +0.000 HD
ENDBRANCH   3  12
ENDBRANCH   1   6
BRANCH   1  17
ATOM     17  C   UNL     1       4.820   5.294  18.619  0.00  0.00    +0.000 A 
ATOM     18  C   UNL     1       6.064   5.502  19.220  0.00  0.00    +0.000 A 
ATOM     19  C   UNL     1       7.225   5.207  18.514  0.00  0.00    +0.000 A 
ATOM     20  C   UNL     1       7.140   4.672  17.227  0.00  0.00    +0.000 A 
ATOM     21  C   UNL     1       5.901   4.414  16.614  0.00  0.00    +0.000 A 
ATOM     22  C   UNL     1       4.744   4.744  17.327  0.00  0.00    +0.000 A 
BRANCH  21  23
ATOM     23  N   UNL     1       5.895   3.851  15.327  0.00  0.00    +0.000 N 
ATOM     24  C   UNL     1       6.544   4.223  14.198  0.00  0.00    +0.000 C 
ATOM     25  N   UNL     1       7.238   5.266  13.924  0.00  0.00    +0.000 NA
ATOM     26  N   UNL     1       6.366   3.323  13.203  0.00  0.00    +0.000 N 
ATOM     27  H   UNL     1       5.110   3.240  15.148  0.00  0.00    +0.000 HD
ATOM     28  H   UNL     1       7.246   5.900  14.725  0.00  0.00    +0.000 HD
ATOM     29  H   UNL     1       6.621   2.382  13.471  0.00  0.00    +0.000 HD
ATOM     30  H   UNL     1       6.928   3.615  12.406  0.00  0.00    +0.000 HD
ENDBRANCH  21  23
ENDBRANCH   1  17
TORSDOF 4
ENDMDL
MODEL 3
REMARK VINA RESULT:      -7.9      1.870      2.740
REMARK  Name = 
REMARK  4 active torsions:
REMARK  status: ('A' for Active; 'I' for Inactive)
REMARK    1  A    between atoms: N_4  and  C_5
REMARK    2  A    between atoms: C_8  and  C_9
REMARK    3  A    between atoms: C_9  and  C_11
REMARK    4  A    between atoms: C_15  and  N_16
REMARK                            x       y       z     vdW  Elec       q    Type
REMARK                         _______ _______ _______ _____ _____    ______ ____
ROOT
ATOM      1  C   UNL     1       3.241   5.850  18.178  0.00  0.00    +0.000 C 
ATOM      2  O   UNL     1       2.524   4.874  17.968  0.00  0.00    +0.000 OA
ENDROOT
BRANCH   1   6
ATOM      3  C   UNL     1       1.253   9.510  19.297  0.00  0.00    +0.000 A 
ATOM      4  C   UNL     1       1.415   8.451  20.204  0.00  0.00    +0.000 A 
ATOM      5  C   UNL     1       2.082   7.279  19.836  0.00  0.00    +0.000 A 
ATOM      6  C   UNL     1       2.605   7.143  18.546  0.00  0.00    +0.000 A 
ATOM      7  C   UNL     1       2.461   8.194  17.636  0.00  0.00    +0.000 A 
ATOM      8  C   UNL     1       1.815   9.375  18.023  0.00  0.00    +0.000 A 
BRANCH   3  12
ATOM      9  N   UNL     1      -1.005  11.066  18.026  0.00  0.00    +0.000 NA
ATOM     10  C   UNL     1      -0.514  11.264  19.197  0.00  0.00    +0.000 C 
ATOM     11  N   UNL     1      -1.071  12.172  20.035  0.00  0.00    +0.000 N 
ATOM     12  N   UNL     1       0.581  10.666  19.738  0.00  0.00    +0.000 N 
ATOM     13  H   UNL     1      -1.830  11.648  17.888  0.00  0.00    +0.000 HD
ATOM     14  H   UNL     1      -1.714  12.820  19.596  0.00  0.00    +0.000 HD
ATOM     15  H   UNL     1      -0.426  12.659  20.642  0.00  0.00    +0.000 HD
ATOM     16  H   UNL     1       0.775  10.874  20.707  0.00  0.00    +0.000 HD
ENDBRANCH   3  12
ENDBRANCH   1   6
BRANCH   1  17
ATOM     17  C   UNL     1       4.711   5.693  18.050  0.00  0.00    +0.000 A 
ATOM     18  C   UNL     1       5.519   5.431  19.160  0.00  0.00    +0.000 A 
ATOM     19  C   UNL     1       6.891   5.283  18.989  0.00  0.00    +0.000 A 
ATOM     20  C   UNL     1       7.446   5.361  17.709  0.00  0.00    +0.000 A 
ATOM     21  C   UNL     1       6.651   5.583  16.571  0.00  0.00    +0.000 A 
ATOM     22  C   UNL     1       5.277   5.758  16.765  0.00  0.00    +0.000 A 
BRANCH  21  23
ATOM     23  N   UNL     1       7.277   5.624  15.314  0.00  0.00    +0.000 N 
ATOM     24  C   UNL     1       7.110   4.844  14.220  0.00  0.00    +0.000 C 
ATOM     25  N   UNL     1       6.447   3.760  14.045  0.00  0.00    +0.000 NA
ATOM     26  N   UNL     1       7.820   5.309  13.165  0.00  0.00    +0.000 N 
ATOM     27  H   UNL     1       8.147   6.139  15.303  0.00  0.00    +0.000 HD
ATOM     28  H   UNL     1       6.011   3.472  14.923  0.00  0.00    +0.000 HD
ATOM     29  H   UNL     1       7.620   6.277  12.952  0.00  0.00    +0.000 HD
ATOM     30  H   UNL     1       7.605   4.729  12.357  0.00  0.00    +0.000 HD
ENDBRANCH  21  23
ENDBRANCH   1  17
TORSDOF 4
ENDMDL
MODEL 4
REMARK VINA RESULT:      -7.9      1.933      2.959
REMARK  Name = 
REMARK  4 active torsions:
REMARK  status: ('A' for Active; 'I' for Inactive)
REMARK    1  A    between atoms: N_4  and  C_5
REMARK    2  A    between atoms: C_8  and  C_9
REMARK    3  A    between atoms: C_9  and  C_11
REMARK    4  A    between atoms: C_15  and  N_16
REMARK                            x       y       z     vdW  Elec       q    Type
REMARK                         _______ _______ _______ _____ _____    ______ ____
ROOT
ATOM      1  C   UNL     1       3.204   5.701  18.206  0.00  0.00    +0.000 C 
ATOM      2  O   UNL     1       2.544   4.708  17.907  0.00  0.00    +0.000 OA
ENDROOT
BRANCH   1   6
ATOM      3  C   UNL     1       1.287   9.335  19.515  0.00  0.00    +0.000 A 
ATOM      4  C   UNL     1       1.699   9.156  18.186  0.00  0.00    +0.000 A 
ATOM      5  C   UNL     1       2.298   7.963  17.769  0.00  0.00    +0.000 A 
ATOM      6  C   UNL     1       2.496   6.920  18.678  0.00  0.00    +0.000 A 
ATOM      7  C   UNL     1       2.081   7.080  20.003  0.00  0.00    +0.000 A 
ATOM      8  C   UNL     1       1.457   8.269  20.405  0.00  0.00    +0.000 A 
BRANCH   3  12
ATOM      9  N   UNL     1      -1.460  10.415  18.860  0.00  0.00    +0.000 NA
ATOM     10  C   UNL     1      -0.603  10.953  19.654  0.00  0.00    +0.000 C 
ATOM     11  N   UNL     1      -0.926  12.056  20.373  0.00  0.00    +0.000 N 
ATOM     12  N   UNL     1       0.681  10.557  19.864  0.00  0.00    +0.000 N 
ATOM     13  H   UNL     1      -2.345  10.917  18.906  0.00  0.00    +0.000 HD
ATOM     14  H   UNL     1      -1.762  12.537  20.065  0.00  0.00    +0.000 HD
ATOM     15  H   UNL     1      -0.171  12.709  20.532  0.00  0.00    +0.000 HD
ATOM     16  H   UNL     1       1.188  11.041  20.590  0.00  0.00    +0.000 HD
ENDBRANCH   3  12
ENDBRANCH   1   6
BRANCH   1  17
ATOM     17  C   UNL     1       4.681   5.637  18.076  0.00  0.00    +0.000 A 
ATOM     18  C   UNL     1       5.508   5.466  19.190  0.00  0.00    +0.000 A 
ATOM     19  C   UNL     1       6.886   5.404  19.018  0.00  0.00    +0.000 A 
ATOM     20  C   UNL     1       7.431   5.477  17.734  0.00  0.00    +0.000 A 
ATOM     21  C   UNL     1       6.620   5.608  16.593  0.00  0.00    +0.000 A 
ATOM     22  C   UNL     1       5.238   5.698  16.787  0.00  0.00    +0.000 A 
BRANCH  21  23
ATOM     23  N   UNL     1       7.240   5.649  15.333  0.00  0.00    +0.000 N 
ATOM     24  C   UNL     1       7.083   4.855  14.246  0.00  0.00    +0.000 C 
ATOM     25  N   UNL     1       6.439   3.758  14.084  0.00  0.00    +0.000 NA
ATOM     26  N   UNL     1       7.778   5.324  13.183  0.00  0.00    +0.000 N 
ATOM     27  H   UNL     1       8.099   6.180  15.312  0.00  0.00    +0.000 HD
ATOM     28  H   UNL     1       6.013   3.470  14.967  0.00  0.00    +0.000 HD
ATOM     29  H   UNL     1       7.559   6.286  12.962  0.00  0.00    +0.000 HD
ATOM     30  H   UNL     1       7.570   4.733  12.382  0.00  0.00    +0.000 HD
ENDBRANCH  21  23
ENDBRANCH   1  17
TORSDOF 4
ENDMDL
MODEL 5
REMARK VINA RESULT:      -7.8      0.819      1.086
REMARK  Name = 
REMARK  4 active torsions:
REMARK  status: ('A' for Active; 'I' for Inactive)
REMARK    1  A    between atoms: N_4  and  C_5
REMARK    2  A    between atoms: C_8  and  C_9
REMARK    3  A    between atoms: C_9  and  C_11
REMARK    4  A    between atoms: C_15  and  N_16
REMARK                            x       y       z     vdW  Elec       q    Type
REMARK                         _______ _______ _______ _____ _____    ______ ____
ROOT
ATOM      1  C   UNL     1       2.280   6.396  19.682  0.00  0.00    +0.000 C 
ATOM      2  O   UNL     1       2.116   5.987  20.830  0.00  0.00    +0.000 OA
ENDROOT
BRANCH   1   6
ATOM      3  C   UNL     1       1.068  10.440  18.804  0.00  0.00    +0.000 A 
ATOM      4  C   UNL     1       0.888   9.875  20.076  0.00  0.00    +0.000 A 
ATOM      5  C   UNL     1       1.308   8.571  20.354  0.00  0.00    +0.000 A 
ATOM      6  C   UNL     1       1.920   7.802  19.360  0.00  0.00    +0.000 A 
ATOM      7  C   UNL     1       2.115   8.355  18.091  0.00  0.00    +0.000 A 
ATOM      8  C   UNL     1       1.716   9.673  17.830  0.00  0.00    +0.000 A 
BRANCH   3  12
ATOM      9  N   UNL     1      -1.517  11.490  17.640  0.00  0.00    +0.000 NA
ATOM     10  C   UNL     1      -0.589  12.195  18.185  0.00  0.00    +0.000 C 
ATOM     11  N   UNL     1      -0.757  13.526  18.377  0.00  0.00    +0.000 N 
ATOM     12  N   UNL     1       0.632  11.763  18.597  0.00  0.00    +0.000 N 
ATOM     13  H   UNL     1      -2.328  12.073  17.438  0.00  0.00    +0.000 HD
ATOM     14  H   UNL     1      -1.524  13.939  17.862  0.00  0.00    +0.000 HD
ATOM     15  H   UNL     1       0.080  14.088  18.291  0.00  0.00    +0.000 HD
ATOM     16  H   UNL     1       1.206  12.434  19.085  0.00  0.00    +0.000 HD
ENDBRANCH   3  12
ENDBRANCH   1   6
BRANCH   1  17
ATOM     17  C   UNL     1       2.828   5.462  18.667  0.00  0.00    +0.000 A 
ATOM     18  C   UNL     1       2.227   4.228  18.407  0.00  0.00    +0.000 A 
ATOM     19  C   UNL     1       2.771   3.389  17.440  0.00  0.00    +0.000 A 
ATOM     20  C   UNL     1       3.892   3.800  16.714  0.00  0.00    +0.000 A 
ATOM     21  C   UNL     1       4.492   5.053  16.927  0.00  0.00    +0.000 A 
ATOM     22  C   UNL     1       3.948   5.871  17.922  0.00  0.00    +0.000 A 
BRANCH  21  23
ATOM     23  N   UNL     1       5.600   5.407  16.139  0.00  0.00    +0.000 N 
ATOM     24  C   UNL     1       6.900   5.037  16.228  0.00  0.00    +0.000 C 
ATOM     25  N   UNL     1       7.533   4.377  17.126  0.00  0.00    +0.000 NA
ATOM     26  N   UNL     1       7.622   5.504  15.183  0.00  0.00    +0.000 N 
ATOM     27  H   UNL     1       5.464   6.245  15.589  0.00  0.00    +0.000 HD
ATOM     28  H   UNL     1       6.902   4.137  17.893  0.00  0.00    +0.000 HD
ATOM     29  H   UNL     1       7.233   5.244  14.286  0.00  0.00    +0.000 HD
ATOM     30  H   UNL     1       8.569   5.142  15.263  0.00  0.00    +0.000 HD
ENDBRANCH  21  23
ENDBRANCH   1  17
TORSDOF 4
ENDMDL
MODEL 6
REMARK VINA RESULT:      -7.8      2.360      2.863
REMARK  Name = 
REMARK  4 active torsions:
REMARK  status: ('A' for Active; 'I' for Inactive)
REMARK    1  A    between atoms: N_4  and  C_5
REMARK    2  A    between atoms: C_8  and  C_9
REMARK    3  A    between atoms: C_9  and  C_11
REMARK    4  A    between atoms: C_15  and  N_16
REMARK                            x       y       z     vdW  Elec       q    Type
REMARK                         _______ _______ _______ _____ _____    ______ ____
ROOT
ATOM      1  C   UNL     1       2.727   7.722  17.901  0.00  0.00    +0.000 C 
ATOM      2  O   UNL     1       3.178   8.388  16.972  0.00  0.00    +0.000 OA
ENDROOT
BRANCH   1   6
ATOM      3  C   UNL     1       0.131   9.764  20.674  0.00  0.00    +0.000 A 
ATOM      4  C   UNL     1       0.207  10.136  19.323  0.00  0.00    +0.000 A 
ATOM      5  C   UNL     1       1.034   9.450  18.429  0.00  0.00    +0.000 A 
ATOM      6  C   UNL     1       1.806   8.372  18.872  0.00  0.00    +0.000 A 
ATOM      7  C   UNL     1       1.733   7.983  20.212  0.00  0.00    +0.000 A 
ATOM      8  C   UNL     1       0.879   8.660  21.094  0.00  0.00    +0.000 A 
BRANCH   3  12
ATOM      9  N   UNL     1      -0.240   9.643  23.672  0.00  0.00    +0.000 NA
ATOM     10  C   UNL     1      -0.780  10.495  22.875  0.00  0.00    +0.000 C 
ATOM     11  N   UNL     1      -1.520  11.522  23.361  0.00  0.00    +0.000 N 
ATOM     12  N   UNL     1      -0.732  10.491  21.516  0.00  0.00    +0.000 N 
ATOM     13  H   UNL     1      -0.435   9.894  24.640  0.00  0.00    +0.000 HD
ATOM     14  H   UNL     1      -1.801  11.425  24.328  0.00  0.00    +0.000 HD
ATOM     15  H   UNL     1      -2.300  11.808  22.785  0.00  0.00    +0.000 HD
ATOM     16  H   UNL     1      -1.139  11.288  21.049  0.00  0.00    +0.000 HD
ENDBRANCH   3  12
ENDBRANCH   1   6
BRANCH   1  17
ATOM     17  C   UNL     1       3.127   6.297  18.015  0.00  0.00    +0.000 A 
ATOM     18  C   UNL     1       2.186   5.265  17.969  0.00  0.00    +0.000 A 
ATOM     19  C   UNL     1       2.610   3.945  18.071  0.00  0.00    +0.000 A 
ATOM     20  C   UNL     1       3.973   3.658  18.182  0.00  0.00    +0.000 A 
ATOM     21  C   UNL     1       4.944   4.675  18.189  0.00  0.00    +0.000 A 
ATOM     22  C   UNL     1       4.497   5.998  18.115  0.00  0.00    +0.000 A 
BRANCH  21  23
ATOM     23  N   UNL     1       6.297   4.307  18.278  0.00  0.00    +0.000 N 
ATOM     24  C   UNL     1       7.323   4.505  17.417  0.00  0.00    +0.000 C 
ATOM     25  N   UNL     1       7.347   4.953  16.215  0.00  0.00    +0.000 NA
ATOM     26  N   UNL     1       8.503   4.108  17.949  0.00  0.00    +0.000 N 
ATOM     27  H   UNL     1       6.483   3.578  18.953  0.00  0.00    +0.000 HD
ATOM     28  H   UNL     1       6.396   5.155  15.900  0.00  0.00    +0.000 HD
ATOM     29  H   UNL     1       8.695   4.537  18.844  0.00  0.00    +0.000 HD
ATOM     30  H   UNL     1       9.243   4.342  17.291  0.00  0.00    +0.000 HD
ENDBRANCH  21  23
ENDBRANCH   1  17
TORSDOF 4
ENDMDL
MODEL 7
REMARK VINA RESULT:      -7.8      2.902      7.254
REMARK  Name = 
REMARK  4 active torsions:
REMARK  status: ('A' for Active; 'I' for Inactive)
REMARK    1  A    between atoms: N_4  and  C_5
REMARK    2  A    between atoms: C_8  and  C_9
REMARK    3  A    between atoms: C_9  and  C_11
REMARK    4  A    between atoms: C_15  and  N_16
REMARK                            x       y       z     vdW  Elec       q    Type
REMARK                         _______ _______ _______ _____ _____    ______ ____
ROOT
ATOM      1  C   UNL     1       4.607   3.301  19.361  0.00  0.00    +0.000 C 
ATOM      2  O   UNL     1       5.124   2.409  20.031  0.00  0.00    +0.000 OA
ENDROOT
BRANCH   1   6
ATOM      3  C   UNL     1       6.795   4.786  15.954  0.00  0.00    +0.000 A 
ATOM      4  C   UNL     1       5.551   4.153  15.813  0.00  0.00    +0.000 A 
ATOM      5  C   UNL     1       4.841   3.698  16.928  0.00  0.00    +0.000 A 
ATOM      6  C   UNL     1       5.364   3.869  18.213  0.00  0.00    +0.000 A 
ATOM      7  C   UNL     1       6.597   4.507  18.370  0.00  0.00    +0.000 A 
ATOM      8  C   UNL     1       7.289   4.984  17.248  0.00  0.00    +0.000 A 
BRANCH   3  12
ATOM      9  N   UNL     1       6.710   3.713  13.129  0.00  0.00    +0.000 NA
ATOM     10  C   UNL     1       7.289   4.795  13.512  0.00  0.00    +0.000 C 
ATOM     11  N   UNL     1       7.852   5.634  12.607  0.00  0.00    +0.000 N 
ATOM     12  N   UNL     1       7.451   5.230  14.790  0.00  0.00    +0.000 N 
ATOM     13  H   UNL     1       6.731   3.643  12.113  0.00  0.00    +0.000 HD
ATOM     14  H   UNL     1       7.989   5.238  11.685  0.00  0.00    +0.000 HD
ATOM     15  H   UNL     1       8.683   6.118  12.919  0.00  0.00    +0.000 HD
ATOM     16  H   UNL     1       7.853   6.149  14.905  0.00  0.00    +0.000 HD
ENDBRANCH   3  12
ENDBRANCH   1   6
BRANCH   1  17
ATOM     17  C   UNL     1       3.251   3.775  19.733  0.00  0.00    +0.000 A 
ATOM     18  C   UNL     1       2.155   2.909  19.762  0.00  0.00    +0.000 A 
ATOM     19  C   UNL     1       0.905   3.397  20.125  0.00  0.00    +0.000 A 
ATOM     20  C   UNL     1       0.760   4.737  20.492  0.00  0.00    +0.000 A 
ATOM     21  C   UNL     1       1.854   5.620  20.511  0.00  0.00    +0.000 A 
ATOM     22  C   UNL     1       3.098   5.119  20.115  0.00  0.00    +0.000 A 
BRANCH  21  23
ATOM     23  N   UNL     1       1.636   6.947  20.916  0.00  0.00    +0.000 N 
ATOM     24  C   UNL     1       1.618   8.097  20.200  0.00  0.00    +0.000 C 
ATOM     25  N   UNL     1       1.930   8.341  18.980  0.00  0.00    +0.000 NA
ATOM     26  N   UNL     1       1.235   9.150  20.960  0.00  0.00    +0.000 N 
ATOM     27  H   UNL     1       1.760   7.102  21.908  0.00  0.00    +0.000 HD
ATOM     28  H   UNL     1       2.265   7.488  18.529  0.00  0.00    +0.000 HD
ATOM     29  H   UNL     1       0.349   9.000  21.424  0.00  0.00    +0.000 HD
ATOM     30  H   UNL     1       1.172   9.969  20.360  0.00  0.00    +0.000 HD
ENDBRANCH  21  23
ENDBRANCH   1  17
TORSDOF 4
ENDMDL
MODEL 8
REMARK VINA RESULT:      -7.8      2.242      2.666
REMARK  Name = 
REMARK  4 active torsions:
REMARK  status: ('A' for Active; 'I' for Inactive)
REMARK    1  A    between atoms: N_4  and  C_5
REMARK    2  A    between atoms: C_8  and  C_9
REMARK    3  A    between atoms: C_9  and  C_11
REMARK    4  A    between atoms: C_15  and  N_16
REMARK                            x       y       z     vdW  Elec       q    Type
REMARK                         _______ _______ _______ _____ _____    ______ ____
ROOT
ATOM      1  C   UNL     1       2.641   7.751  17.964  0.00  0.00    +0.000 C 
ATOM      2  O   UNL     1       3.032   8.422  17.010  0.00  0.00    +0.000 OA
ENDROOT
BRANCH   1   6
ATOM      3  C   UNL     1       0.132   9.474  21.018  0.00  0.00    +0.000 A 
ATOM      4  C   UNL     1       1.013   8.417  21.296  0.00  0.00    +0.000 A 
ATOM      5  C   UNL     1       1.838   7.884  20.302  0.00  0.00    +0.000 A 
ATOM      6  C   UNL     1       1.799   8.400  19.004  0.00  0.00    +0.000 A 
ATOM      7  C   UNL     1       0.935   9.459  18.714  0.00  0.00    +0.000 A 
ATOM      8  C   UNL     1       0.131  10.005  19.724  0.00  0.00    +0.000 A 
BRANCH   3  12
ATOM      9  N   UNL     1      -0.062  12.258  22.178  0.00  0.00    +0.000 NA
ATOM     10  C   UNL     1      -0.812  11.258  22.479  0.00  0.00    +0.000 C 
ATOM     11  N   UNL     1      -1.869  11.414  23.314  0.00  0.00    +0.000 N 
ATOM     12  N   UNL     1      -0.663   9.970  22.069  0.00  0.00    +0.000 N 
ATOM     13  H   UNL     1      -0.412  13.106  22.623  0.00  0.00    +0.000 HD
ATOM     14  H   UNL     1      -1.871  12.276  23.844  0.00  0.00    +0.000 HD
ATOM     15  H   UNL     1      -2.075  10.623  23.909  0.00  0.00    +0.000 HD
ATOM     16  H   UNL     1      -1.396   9.327  22.330  0.00  0.00    +0.000 HD
ENDBRANCH   3  12
ENDBRANCH   1   6
BRANCH   1  17
ATOM     17  C   UNL     1       3.035   6.322  18.035  0.00  0.00    +0.000 A 
ATOM     18  C   UNL     1       2.087   5.297  17.964  0.00  0.00    +0.000 A 
ATOM     19  C   UNL     1       2.505   3.972  18.027  0.00  0.00    +0.000 A 
ATOM     20  C   UNL     1       3.866   3.674  18.124  0.00  0.00    +0.000 A 
ATOM     21  C   UNL     1       4.843   4.685  18.156  0.00  0.00    +0.000 A 
ATOM     22  C   UNL     1       4.403   6.012  18.121  0.00  0.00    +0.000 A 
BRANCH  21  23
ATOM     23  N   UNL     1       6.194   4.308  18.229  0.00  0.00    +0.000 N 
ATOM     24  C   UNL     1       7.231   4.580  17.402  0.00  0.00    +0.000 C 
ATOM     25  N   UNL     1       7.271   5.134  16.246  0.00  0.00    +0.000 NA
ATOM     26  N   UNL     1       8.404   4.134  17.911  0.00  0.00    +0.000 N 
ATOM     27  H   UNL     1       6.370   3.521  18.838  0.00  0.00    +0.000 HD
ATOM     28  H   UNL     1       6.325   5.366  15.938  0.00  0.00    +0.000 HD
ATOM     29  H   UNL     1       8.585   4.481  18.844  0.00  0.00    +0.000 HD
ATOM     30  H   UNL     1       9.153   4.424  17.287  0.00  0.00    +0.000 HD
ENDBRANCH  21  23
ENDBRANCH   1  17
TORSDOF 4
ENDMDL
MODEL 9
REMARK VINA RESULT:      -7.7      2.142      3.284
REMARK  Name = 
REMARK  4 active torsions:
REMARK  status: ('A' for Active; 'I' for Inactive)
REMARK    1  A    between atoms: N_4  and  C_5
REMARK    2  A    between atoms: C_8  and  C_9
REMARK    3  A    between atoms: C_9  and  C_11
REMARK    4  A    between atoms: C_15  and  N_16
REMARK                            x       y       z     vdW  Elec       q    Type
REMARK                         _______ _______ _______ _____ _____    ______ ____
ROOT
ATOM      1  C   UNL     1       3.228   5.630  18.211  0.00  0.00    +0.000 C 
ATOM      2  O   UNL     1       2.572   4.645  17.879  0.00  0.00    +0.000 OA
ENDROOT
BRANCH   1   6
ATOM      3  C   UNL     1       1.292   9.215  19.625  0.00  0.00    +0.000 A 
ATOM      4  C   UNL     1       1.700   9.074  18.290  0.00  0.00    +0.000 A 
ATOM      5  C   UNL     1       2.304   7.897  17.839  0.00  0.00    +0.000 A 
ATOM      6  C   UNL     1       2.514   6.832  18.719  0.00  0.00    +0.000 A 
ATOM      7  C   UNL     1       2.103   6.954  20.049  0.00  0.00    +0.000 A 
ATOM      8  C   UNL     1       1.473   8.127  20.485  0.00  0.00    +0.000 A 
BRANCH   3  12
ATOM      9  N   UNL     1       0.703  10.325  22.374  0.00  0.00    +0.000 NA
ATOM     10  C   UNL     1       0.545  10.942  21.258  0.00  0.00    +0.000 C 
ATOM     11  N   UNL     1       0.174  12.246  21.237  0.00  0.00    +0.000 N 
ATOM     12  N   UNL     1       0.679  10.423  20.008  0.00  0.00    +0.000 N 
ATOM     13  H   UNL     1       0.542  10.961  23.154  0.00  0.00    +0.000 HD
ATOM     14  H   UNL     1      -0.188  12.602  22.113  0.00  0.00    +0.000 HD
ATOM     15  H   UNL     1      -0.419  12.519  20.465  0.00  0.00    +0.000 HD
ATOM     16  H   UNL     1       0.604  11.074  19.240  0.00  0.00    +0.000 HD
ENDBRANCH   3  12
ENDBRANCH   1   6
BRANCH   1  17
ATOM     17  C   UNL     1       4.705   5.576  18.084  0.00  0.00    +0.000 A 
ATOM     18  C   UNL     1       5.530   5.390  19.197  0.00  0.00    +0.000 A 
ATOM     19  C   UNL     1       6.909   5.338  19.028  0.00  0.00    +0.000 A 
ATOM     20  C   UNL     1       7.457   5.435  17.746  0.00  0.00    +0.000 A 
ATOM     21  C   UNL     1       6.649   5.582  16.606  0.00  0.00    +0.000 A 
ATOM     22  C   UNL     1       5.266   5.662  16.798  0.00  0.00    +0.000 A 
BRANCH  21  23
ATOM     23  N   UNL     1       7.271   5.648  15.348  0.00  0.00    +0.000 N 
ATOM     24  C   UNL     1       7.120   4.873  14.248  0.00  0.00    +0.000 C 
ATOM     25  N   UNL     1       6.481   3.776  14.065  0.00  0.00    +0.000 NA
ATOM     26  N   UNL     1       7.816   5.363  13.195  0.00  0.00    +0.000 N 
ATOM     27  H   UNL     1       8.129   6.182  15.339  0.00  0.00    +0.000 HD
ATOM     28  H   UNL     1       6.054   3.471  14.941  0.00  0.00    +0.000 HD
ATOM     29  H   UNL     1       7.593   6.328  12.990  0.00  0.00    +0.000 HD
ATOM     30  H   UNL     1       7.612   4.785  12.382  0.00  0.00    +0.000 HD
ENDBRANCH  21  23
ENDBRANCH   1  17
TORSDOF 4
ENDMDL
