MODEL 1
REMARK VINA RESULT:      -7.1      0.000      0.000
REMARK  Name = 
REMARK  7 active torsions:
REMARK  status: ('A' for Active; 'I' for Inactive)
REMARK    1  A    between atoms: C_1  and  C_2
REMARK    2  A    between atoms: C_2  and  N_3
REMARK    3  A    between atoms: C_2  and  C_13
REMARK    4  A    between atoms: N_3  and  C_4
REMARK    5  A    between atoms: C_4  and  C_5
REMARK    6  A    between atoms: C_13  and  O_14
REMARK    7  A    between atoms: C_13  and  C_15
REMARK                            x       y       z     vdW  Elec       q    Type
REMARK                         _______ _______ _______ _____ _____    ______ ____
ROOT
ATOM      1  C   UNL     1       2.996   2.101  17.373  0.00  0.00    +0.000 C 
ATOM      2  C   UNL     1       3.081   2.571  18.835  0.00  0.00    +0.000 C 
ENDROOT
BRANCH   2   3
ATOM      3  N   UNL     1       4.459   3.076  19.057  0.00  0.00    +0.000 NA
ATOM      4  H   UNL     1       4.388   3.952  19.581  0.00  0.00    +0.000 HD
BRANCH   3   5
ATOM      5  C   UNL     1       5.184   3.379  17.817  0.00  0.00    +0.000 C 
BRANCH   5   6
ATOM      6  C   UNL     1       6.063   4.610  17.934  0.00  0.00    +0.000 A 
ATOM      7  N   UNL     1       6.663   4.780  19.152  0.00  0.00    +0.000 NA
ATOM      8  C   UNL     1       7.436   5.874  19.309  0.00  0.00    +0.000 A 
ATOM      9  C   UNL     1       7.661   6.814  18.324  0.00  0.00    +0.000 A 
ATOM     10 CL   UNL     1       8.641   8.189  18.621  0.00  0.00    +0.000 Cl
ATOM     11  C   UNL     1       7.071   6.621  17.082  0.00  0.00    +0.000 A 
ATOM     12  C   UNL     1       6.263   5.502  16.874  0.00  0.00    +0.000 A 
ATOM     13 BR   UNL     1       5.468   5.285  15.164  0.00  0.00    +0.000 Br
ENDBRANCH   5   6
ENDBRANCH   3   5
ENDBRANCH   2   3
BRANCH   2  14
ATOM     14  C   UNL     1       1.888   3.555  19.131  0.00  0.00    +0.000 C 
BRANCH  14  15
ATOM     15  C   UNL     1       2.207   5.048  19.199  0.00  0.00    +0.000 A 
ATOM     16  C   UNL     1       2.521   5.778  18.019  0.00  0.00    +0.000 A 
ATOM     17  C   UNL     1       2.481   7.179  17.995  0.00  0.00    +0.000 A 
ATOM     18  C   UNL     1       2.083   7.815  19.147  0.00  0.00    +0.000 A 
ATOM     19  C   UNL     1       1.869   7.124  20.314  0.00  0.00    +0.000 A 
ATOM     20  C   UNL     1       1.952   5.760  20.381  0.00  0.00    +0.000 A 
ATOM     21  O   UNL     1       1.376   7.915  21.307  0.00  0.00    +0.000 OA
ATOM     22  C   UNL     1       0.928   9.009  20.489  0.00  0.00    +0.000 C 
ATOM     23  O   UNL     1       1.698   9.118  19.270  0.00  0.00    +0.000 OA
ENDBRANCH  14  15
BRANCH  14  24
ATOM     24  O   UNL     1       0.774   3.275  18.284  0.00  0.00    +0.000 OA
ATOM     25  H   UNL     1       1.119   2.839  17.487  0.00  0.00    +0.000 HD
ENDBRANCH  14  24
ENDBRANCH   2  14
TORSDOF 6
ENDMDL
MODEL 2
REMARK VINA RESULT:      -7.0      3.496      5.833
REMARK  Name = 
REMARK  7 active torsions:
REMARK  status: ('A' for Active; 'I' for Inactive)
REMARK    1  A    between atoms: C_1  and  C_2
REMARK    2  A    between atoms: C_2  and  N_3
REMARK    3  A    between atoms: C_2  and  C_13
REMARK    4  A    between atoms: N_3  and  C_4
REMARK    5  A    between atoms: C_4  and  C_5
REMARK    6  A    between atoms: C_13  and  O_14
REMARK    7  A    between atoms: C_13  and  C_15
REMARK                            x       y       z     vdW  Elec       q    Type
REMARK                         _______ _______ _______ _____ _____    ______ ____
ROOT
ATOM      1  C   UNL     1       2.745   3.196  21.023  0.00  0.00    +0.000 C 
ATOM      2  C   UNL     1       2.485   3.332  19.513  0.00  0.00    +0.000 C 
ENDROOT
BRANCH   2   3
ATOM      3  N   UNL     1       2.049   4.728  19.264  0.00  0.00    +0.000 NA
ATOM      4  H   UNL     1       2.367   4.990  18.327  0.00  0.00    +0.000 HD
BRANCH   3   5
ATOM      5  C   UNL     1       2.627   5.703  20.197  0.00  0.00    +0.000 C 
BRANCH   5   6
ATOM      6  C   UNL     1       1.982   7.072  20.093  0.00  0.00    +0.000 A 
ATOM      7  N   UNL     1       1.187   7.421  21.150  0.00  0.00    +0.000 NA
ATOM      8  C   UNL     1       0.575   8.621  21.090  0.00  0.00    +0.000 A 
ATOM      9  C   UNL     1       0.709   9.510  20.043  0.00  0.00    +0.000 A 
ATOM     10 CL   UNL     1      -0.127  11.007  20.040  0.00  0.00    +0.000 Cl
ATOM     11  C   UNL     1       1.539   9.162  18.986  0.00  0.00    +0.000 A 
ATOM     12  C   UNL     1       2.194   7.929  19.005  0.00  0.00    +0.000 A 
ATOM     13 BR   UNL     1       3.310   7.491  17.535  0.00  0.00    +0.000 Br
ENDBRANCH   5   6
ENDBRANCH   3   5
ENDBRANCH   2   3
BRANCH   2  14
ATOM     14  C   UNL     1       3.743   2.809  18.724  0.00  0.00    +0.000 C 
BRANCH  14  15
ATOM     15  C   UNL     1       4.575   3.841  17.964  0.00  0.00    +0.000 A 
ATOM     16  C   UNL     1       5.686   4.476  18.583  0.00  0.00    +0.000 A 
ATOM     17  C   UNL     1       6.656   5.152  17.829  0.00  0.00    +0.000 A 
ATOM     18  C   UNL     1       6.511   5.134  16.462  0.00  0.00    +0.000 A 
ATOM     19  C   UNL     1       5.395   4.604  15.862  0.00  0.00    +0.000 A 
ATOM     20  C   UNL     1       4.406   3.985  16.578  0.00  0.00    +0.000 A 
ATOM     21  O   UNL     1       5.491   4.582  14.504  0.00  0.00    +0.000 OA
ATOM     22  C   UNL     1       6.915   4.747  14.401  0.00  0.00    +0.000 C 
ATOM     23  O   UNL     1       7.457   5.463  15.535  0.00  0.00    +0.000 OA
ENDBRANCH  14  15
BRANCH  14  24
ATOM     24  O   UNL     1       4.545   1.962  19.546  0.00  0.00    +0.000 OA
ATOM     25  H   UNL     1       5.207   2.524  19.981  0.00  0.00    +0.000 HD
ENDBRANCH  14  24
ENDBRANCH   2  14
TORSDOF 6
ENDMDL
MODEL 3
REMARK VINA RESULT:      -6.9      3.818      5.982
REMARK  Name = 
REMARK  7 active torsions:
REMARK  status: ('A' for Active; 'I' for Inactive)
REMARK    1  A    between atoms: C_1  and  C_2
REMARK    2  A    between atoms: C_2  and  N_3
REMARK    3  A    between atoms: C_2  and  C_13
REMARK    4  A    between atoms: N_3  and  C_4
REMARK    5  A    between atoms: C_4  and  C_5
REMARK    6  A    between atoms: C_13  and  O_14
REMARK    7  A    between atoms: C_13  and  C_15
REMARK                            x       y       z     vdW  Elec       q    Type
REMARK                         _______ _______ _______ _____ _____    ______ ____
ROOT
ATOM      1  C   UNL     1       0.845   4.050  20.283  0.00  0.00    +0.000 C 
ATOM      2  C   UNL     1       2.023   4.739  19.573  0.00  0.00    +0.000 C 
ENDROOT
BRANCH   2   3
ATOM      3  N   UNL     1       2.410   5.910  20.398  0.00  0.00    +0.000 NA
ATOM      4  H   UNL     1       1.724   6.000  21.152  0.00  0.00    +0.000 HD
BRANCH   3   5
ATOM      5  C   UNL     1       2.403   7.180  19.662  0.00  0.00    +0.000 C 
BRANCH   5   6
ATOM      6  C   UNL     1       1.584   8.256  20.351  0.00  0.00    +0.000 A 
ATOM      7  N   UNL     1       1.368   8.054  21.687  0.00  0.00    +0.000 NA
ATOM      8  C   UNL     1       0.626   8.974  22.336  0.00  0.00    +0.000 A 
ATOM      9  C   UNL     1       0.085  10.096  21.741  0.00  0.00    +0.000 A 
ATOM     10 CL   UNL     1      -0.868  11.202  22.641  0.00  0.00    +0.000 Cl
ATOM     11  C   UNL     1       0.331  10.309  20.391  0.00  0.00    +0.000 A 
ATOM     12  C   UNL     1       1.095   9.383  19.679  0.00  0.00    +0.000 A 
ATOM     13 BR   UNL     1       1.395   9.709  17.834  0.00  0.00    +0.000 Br
ENDBRANCH   5   6
ENDBRANCH   3   5
ENDBRANCH   2   3
BRANCH   2  14
ATOM     14  C   UNL     1       3.134   3.669  19.260  0.00  0.00    +0.000 C 
BRANCH  14  15
ATOM     15  C   UNL     1       4.313   4.111  18.396  0.00  0.00    +0.000 A 
ATOM     16  C   UNL     1       4.171   4.248  16.988  0.00  0.00    +0.000 A 
ATOM     17  C   UNL     1       5.104   4.964  16.225  0.00  0.00    +0.000 A 
ATOM     18  C   UNL     1       6.138   5.565  16.902  0.00  0.00    +0.000 A 
ATOM     19  C   UNL     1       6.335   5.361  18.246  0.00  0.00    +0.000 A 
ATOM     20  C   UNL     1       5.469   4.623  19.007  0.00  0.00    +0.000 A 
ATOM     21  O   UNL     1       7.341   6.128  18.750  0.00  0.00    +0.000 OA
ATOM     22  C   UNL     1       7.414   7.089  17.683  0.00  0.00    +0.000 C 
ATOM     23  O   UNL     1       6.978   6.528  16.423  0.00  0.00    +0.000 OA
ENDBRANCH  14  15
BRANCH  14  24
ATOM     24  O   UNL     1       3.551   3.003  20.452  0.00  0.00    +0.000 OA
ATOM     25  H   UNL     1       2.784   2.513  20.792  0.00  0.00    +0.000 HD
ENDBRANCH  14  24
ENDBRANCH   2  14
TORSDOF 6
ENDMDL
MODEL 4
REMARK VINA RESULT:      -6.8      3.956      6.197
REMARK  Name = 
REMARK  7 active torsions:
REMARK  status: ('A' for Active; 'I' for Inactive)
REMARK    1  A    between atoms: C_1  and  C_2
REMARK    2  A    between atoms: C_2  and  N_3
REMARK    3  A    between atoms: C_2  and  C_13
REMARK    4  A    between atoms: N_3  and  C_4
REMARK    5  A    between atoms: C_4  and  C_5
REMARK    6  A    between atoms: C_13  and  O_14
REMARK    7  A    between atoms: C_13  and  C_15
REMARK                            x       y       z     vdW  Elec       q    Type
REMARK                         _______ _______ _______ _____ _____    ______ ____
ROOT
ATOM      1  C   UNL     1       2.323   3.693  20.741  0.00  0.00    +0.000 C 
ATOM      2  C   UNL     1       1.617   4.844  20.004  0.00  0.00    +0.000 C 
ENDROOT
BRANCH   2   3
ATOM      3  N   UNL     1       1.711   6.045  20.871  0.00  0.00    +0.000 NA
ATOM      4  H   UNL     1       0.801   6.176  21.321  0.00  0.00    +0.000 HD
BRANCH   3   5
ATOM      5  C   UNL     1       2.003   7.282  20.136  0.00  0.00    +0.000 C 
BRANCH   5   6
ATOM      6  C   UNL     1       1.265   8.486  20.691  0.00  0.00    +0.000 A 
ATOM      7  N   UNL     1       0.944   8.408  22.018  0.00  0.00    +0.000 NA
ATOM      8  C   UNL     1       0.266   9.445  22.550  0.00  0.00    +0.000 A 
ATOM      9  C   UNL     1      -0.109  10.571  21.844  0.00  0.00    +0.000 A 
ATOM     10 CL   UNL     1      -0.991  11.834  22.597  0.00  0.00    +0.000 Cl
ATOM     11  C   UNL     1       0.244  10.656  20.504  0.00  0.00    +0.000 A 
ATOM     12  C   UNL     1       0.946   9.605  19.912  0.00  0.00    +0.000 A 
ATOM     13 BR   UNL     1       1.398   9.760  18.076  0.00  0.00    +0.000 Br
ENDBRANCH   5   6
ENDBRANCH   3   5
ENDBRANCH   2   3
BRANCH   2  14
ATOM     14  C   UNL     1       2.195   4.952  18.544  0.00  0.00    +0.000 C 
BRANCH  14  15
ATOM     15  C   UNL     1       3.662   4.579  18.338  0.00  0.00    +0.000 A 
ATOM     16  C   UNL     1       4.133   4.160  17.063  0.00  0.00    +0.000 A 
ATOM     17  C   UNL     1       5.501   4.142  16.759  0.00  0.00    +0.000 A 
ATOM     18  C   UNL     1       6.365   4.589  17.730  0.00  0.00    +0.000 A 
ATOM     19  C   UNL     1       5.928   4.907  18.992  0.00  0.00    +0.000 A 
ATOM     20  C   UNL     1       4.603   4.883  19.334  0.00  0.00    +0.000 A 
ATOM     21  O   UNL     1       6.914   5.433  19.771  0.00  0.00    +0.000 OA
ATOM     22  C   UNL     1       7.833   5.782  18.722  0.00  0.00    +0.000 C 
ATOM     23  O   UNL     1       7.676   4.929  17.564  0.00  0.00    +0.000 OA
ENDBRANCH  14  15
BRANCH  14  24
ATOM     24  O   UNL     1       1.333   4.310  17.605  0.00  0.00    +0.000 OA
ATOM     25  H   UNL     1       1.621   3.386  17.534  0.00  0.00    +0.000 HD
ENDBRANCH  14  24
ENDBRANCH   2  14
TORSDOF 6
ENDMDL
MODEL 5
REMARK VINA RESULT:      -6.8      4.015      6.098
REMARK  Name = 
REMARK  7 active torsions:
REMARK  status: ('A' for Active; 'I' for Inactive)
REMARK    1  A    between atoms: C_1  and  C_2
REMARK    2  A    between atoms: C_2  and  N_3
REMARK    3  A    between atoms: C_2  and  C_13
REMARK    4  A    between atoms: N_3  and  C_4
REMARK    5  A    between atoms: C_4  and  C_5
REMARK    6  A    between atoms: C_13  and  O_14
REMARK    7  A    between atoms: C_13  and  C_15
REMARK                            x       y       z     vdW  Elec       q    Type
REMARK                         _______ _______ _______ _____ _____    ______ ____
ROOT
ATOM      1  C   UNL     1       1.321   4.521  20.322  0.00  0.00    +0.000 C 
ATOM      2  C   UNL     1       2.268   5.262  19.362  0.00  0.00    +0.000 C 
ENDROOT
BRANCH   2   3
ATOM      3  N   UNL     1       2.676   6.522  20.031  0.00  0.00    +0.000 NA
ATOM      4  H   UNL     1       3.368   6.285  20.747  0.00  0.00    +0.000 HD
BRANCH   3   5
ATOM      5  C   UNL     1       1.575   7.212  20.715  0.00  0.00    +0.000 C 
BRANCH   5   6
ATOM      6  C   UNL     1       1.352   8.622  20.199  0.00  0.00    +0.000 A 
ATOM      7  N   UNL     1       1.712   8.826  18.895  0.00  0.00    +0.000 NA
ATOM      8  C   UNL     1       1.552  10.069  18.399  0.00  0.00    +0.000 A 
ATOM      9  C   UNL     1       1.045  11.133  19.119  0.00  0.00    +0.000 A 
ATOM     10 CL   UNL     1       0.900  12.689  18.414  0.00  0.00    +0.000 Cl
ATOM     11  C   UNL     1       0.657  10.912  20.434  0.00  0.00    +0.000 A 
ATOM     12  C   UNL     1       0.804   9.640  20.988  0.00  0.00    +0.000 A 
ATOM     13 BR   UNL     1       0.270   9.388  22.792  0.00  0.00    +0.000 Br
ENDBRANCH   5   6
ENDBRANCH   3   5
ENDBRANCH   2   3
BRANCH   2  14
ATOM     14  C   UNL     1       3.408   4.279  18.902  0.00  0.00    +0.000 C 
BRANCH  14  15
ATOM     15  C   UNL     1       4.590   4.879  18.142  0.00  0.00    +0.000 A 
ATOM     16  C   UNL     1       4.397   5.525  16.890  0.00  0.00    +0.000 A 
ATOM     17  C   UNL     1       5.375   6.367  16.343  0.00  0.00    +0.000 A 
ATOM     18  C   UNL     1       6.510   6.578  17.090  0.00  0.00    +0.000 A 
ATOM     19  C   UNL     1       6.745   5.888  18.254  0.00  0.00    +0.000 A 
ATOM     20  C   UNL     1       5.831   5.018  18.785  0.00  0.00    +0.000 A 
ATOM     21  O   UNL     1       7.864   6.316  18.900  0.00  0.00    +0.000 OA
ATOM     22  C   UNL     1       8.007   7.582  18.234  0.00  0.00    +0.000 C 
ATOM     23  O   UNL     1       7.441   7.557  16.903  0.00  0.00    +0.000 OA
ENDBRANCH  14  15
BRANCH  14  24
ATOM     24  O   UNL     1       3.823   3.439  19.978  0.00  0.00    +0.000 OA
ATOM     25  H   UNL     1       3.032   3.231  20.503  0.00  0.00    +0.000 HD
ENDBRANCH  14  24
ENDBRANCH   2  14
TORSDOF 6
ENDMDL
MODEL 6
REMARK VINA RESULT:      -6.8      4.085      6.462
REMARK  Name = 
REMARK  7 active torsions:
REMARK  status: ('A' for Active; 'I' for Inactive)
REMARK    1  A    between atoms: C_1  and  C_2
REMARK    2  A    between atoms: C_2  and  N_3
REMARK    3  A    between atoms: C_2  and  C_13
REMARK    4  A    between atoms: N_3  and  C_4
REMARK    5  A    between atoms: C_4  and  C_5
REMARK    6  A    between atoms: C_13  and  O_14
REMARK    7  A    between atoms: C_13  and  C_15
REMARK                            x       y       z     vdW  Elec       q    Type
REMARK                         _______ _______ _______ _____ _____    ______ ____
ROOT
ATOM      1  C   UNL     1       1.502   4.490  20.714  0.00  0.00    +0.000 C 
ATOM      2  C   UNL     1       2.240   5.109  19.514  0.00  0.00    +0.000 C 
ENDROOT
BRANCH   2   3
ATOM      3  N   UNL     1       2.653   6.479  19.909  0.00  0.00    +0.000 NA
ATOM      4  H   UNL     1       3.476   6.394  20.511  0.00  0.00    +0.000 HD
BRANCH   3   5
ATOM      5  C   UNL     1       1.635   7.203  20.681  0.00  0.00    +0.000 C 
BRANCH   5   6
ATOM      6  C   UNL     1       1.383   8.604  20.154  0.00  0.00    +0.000 A 
ATOM      7  N   UNL     1       1.729   8.802  18.845  0.00  0.00    +0.000 NA
ATOM      8  C   UNL     1       1.543  10.038  18.340  0.00  0.00    +0.000 A 
ATOM      9  C   UNL     1       1.022  11.098  19.053  0.00  0.00    +0.000 A 
ATOM     10 CL   UNL     1       0.842  12.645  18.335  0.00  0.00    +0.000 Cl
ATOM     11  C   UNL     1       0.647  10.883  20.373  0.00  0.00    +0.000 A 
ATOM     12  C   UNL     1       0.821   9.619  20.938  0.00  0.00    +0.000 A 
ATOM     13 BR   UNL     1       0.304   9.373  22.747  0.00  0.00    +0.000 Br
ENDBRANCH   5   6
ENDBRANCH   3   5
ENDBRANCH   2   3
BRANCH   2  14
ATOM     14  C   UNL     1       3.365   4.119  19.034  0.00  0.00    +0.000 C 
BRANCH  14  15
ATOM     15  C   UNL     1       4.540   4.712  18.258  0.00  0.00    +0.000 A 
ATOM     16  C   UNL     1       5.854   4.692  18.802  0.00  0.00    +0.000 A 
ATOM     17  C   UNL     1       6.982   4.907  17.998  0.00  0.00    +0.000 A 
ATOM     18  C   UNL     1       6.766   5.093  16.653  0.00  0.00    +0.000 A 
ATOM     19  C   UNL     1       5.500   5.205  16.135  0.00  0.00    +0.000 A 
ATOM     20  C   UNL     1       4.379   5.052  16.906  0.00  0.00    +0.000 A 
ATOM     21  O   UNL     1       5.494   5.274  14.775  0.00  0.00    +0.000 OA
ATOM     22  C   UNL     1       6.818   4.765  14.543  0.00  0.00    +0.000 C 
ATOM     23  O   UNL     1       7.699   5.031  15.659  0.00  0.00    +0.000 OA
ENDBRANCH  14  15
BRANCH  14  24
ATOM     24  O   UNL     1       3.790   3.272  20.102  0.00  0.00    +0.000 OA
ATOM     25  H   UNL     1       3.939   2.389  19.727  0.00  0.00    +0.000 HD
ENDBRANCH  14  24
ENDBRANCH   2  14
TORSDOF 6
ENDMDL
MODEL 7
REMARK VINA RESULT:      -6.8      4.033      6.465
REMARK  Name = 
REMARK  7 active torsions:
REMARK  status: ('A' for Active; 'I' for Inactive)
REMARK    1  A    between atoms: C_1  and  C_2
REMARK    2  A    between atoms: C_2  and  N_3
REMARK    3  A    between atoms: C_2  and  C_13
REMARK    4  A    between atoms: N_3  and  C_4
REMARK    5  A    between atoms: C_4  and  C_5
REMARK    6  A    between atoms: C_13  and  O_14
REMARK    7  A    between atoms: C_13  and  C_15
REMARK                            x       y       z     vdW  Elec       q    Type
REMARK                         _______ _______ _______ _____ _____    ______ ____
ROOT
ATOM      1  C   UNL     1       1.428   4.036  20.744  0.00  0.00    +0.000 C 
ATOM      2  C   UNL     1       1.555   5.217  19.767  0.00  0.00    +0.000 C 
ENDROOT
BRANCH   2   3
ATOM      3  N   UNL     1       2.219   6.325  20.496  0.00  0.00    +0.000 NA
ATOM      4  H   UNL     1       1.754   6.423  21.403  0.00  0.00    +0.000 HD
BRANCH   3   5
ATOM      5  C   UNL     1       2.114   7.624  19.821  0.00  0.00    +0.000 C 
BRANCH   5   6
ATOM      6  C   UNL     1       1.258   8.617  20.585  0.00  0.00    +0.000 A 
ATOM      7  N   UNL     1       1.284   8.479  21.945  0.00  0.00    +0.000 NA
ATOM      8  C   UNL     1       0.521   9.326  22.665  0.00  0.00    +0.000 A 
ATOM      9  C   UNL     1      -0.267  10.318  22.116  0.00  0.00    +0.000 A 
ATOM     10 CL   UNL     1      -1.226  11.336  23.108  0.00  0.00    +0.000 Cl
ATOM     11  C   UNL     1      -0.268  10.470  20.736  0.00  0.00    +0.000 A 
ATOM     12  C   UNL     1       0.508   9.615  19.951  0.00  0.00    +0.000 A 
ATOM     13 BR   UNL     1       0.468   9.854  18.069  0.00  0.00    +0.000 Br
ENDBRANCH   5   6
ENDBRANCH   3   5
ENDBRANCH   2   3
BRANCH   2  14
ATOM     14  C   UNL     1       2.228   4.714  18.435  0.00  0.00    +0.000 C 
BRANCH  14  15
ATOM     15  C   UNL     1       3.713   5.014  18.241  0.00  0.00    +0.000 A 
ATOM     16  C   UNL     1       4.691   4.416  19.082  0.00  0.00    +0.000 A 
ATOM     17  C   UNL     1       6.047   4.396  18.727  0.00  0.00    +0.000 A 
ATOM     18  C   UNL     1       6.384   4.937  17.509  0.00  0.00    +0.000 A 
ATOM     19  C   UNL     1       5.463   5.597  16.734  0.00  0.00    +0.000 A 
ATOM     20  C   UNL     1       4.141   5.679  17.082  0.00  0.00    +0.000 A 
ATOM     21  O   UNL     1       5.964   5.962  15.522  0.00  0.00    +0.000 OA
ATOM     22  C   UNL     1       7.104   5.087  15.504  0.00  0.00    +0.000 C 
ATOM     23  O   UNL     1       7.562   4.774  16.840  0.00  0.00    +0.000 OA
ENDBRANCH  14  15
BRANCH  14  24
ATOM     24  O   UNL     1       1.912   3.343  18.190  0.00  0.00    +0.000 OA
ATOM     25  H   UNL     1       1.803   2.914  19.055  0.00  0.00    +0.000 HD
ENDBRANCH  14  24
ENDBRANCH   2  14
TORSDOF 6
ENDMDL
MODEL 8
REMARK VINA RESULT:      -6.7      4.340      6.767
REMARK  Name = 
REMARK  7 active torsions:
REMARK  status: ('A' for Active; 'I' for Inactive)
REMARK    1  A    between atoms: C_1  and  C_2
REMARK    2  A    between atoms: C_2  and  N_3
REMARK    3  A    between atoms: C_2  and  C_13
REMARK    4  A    between atoms: N_3  and  C_4
REMARK    5  A    between atoms: C_4  and  C_5
REMARK    6  A    between atoms: C_13  and  O_14
REMARK    7  A    between atoms: C_13  and  C_15
REMARK                            x       y       z     vdW  Elec       q    Type
REMARK                         _______ _______ _______ _____ _____    ______ ____
ROOT
ATOM      1  C   UNL     1       1.680   4.758  20.714  0.00  0.00    +0.000 C 
ATOM      2  C   UNL     1       2.389   5.700  19.726  0.00  0.00    +0.000 C 
ENDROOT
BRANCH   2   3
ATOM      3  N   UNL     1       2.503   7.025  20.385  0.00  0.00    +0.000 NA
ATOM      4  H   UNL     1       3.096   6.912  21.211  0.00  0.00    +0.000 HD
BRANCH   3   5
ATOM      5  C   UNL     1       1.220   7.565  20.853  0.00  0.00    +0.000 C 
BRANCH   5   6
ATOM      6  C   UNL     1       0.976   8.989  20.391  0.00  0.00    +0.000 A 
ATOM      7  N   UNL     1       1.355   9.254  19.103  0.00  0.00    +0.000 NA
ATOM      8  C   UNL     1       1.178  10.514  18.656  0.00  0.00    +0.000 A 
ATOM      9  C   UNL     1       0.636  11.536  19.410  0.00  0.00    +0.000 A 
ATOM     10 CL   UNL     1       0.469  13.117  18.766  0.00  0.00    +0.000 Cl
ATOM     11  C   UNL     1       0.229  11.254  20.707  0.00  0.00    +0.000 A 
ATOM     12  C   UNL     1       0.393   9.963  21.211  0.00  0.00    +0.000 A 
ATOM     13 BR   UNL     1      -0.168   9.625  22.992  0.00  0.00    +0.000 Br
ENDBRANCH   5   6
ENDBRANCH   3   5
ENDBRANCH   2   3
BRANCH   2  14
ATOM     14  C   UNL     1       3.717   5.019  19.226  0.00  0.00    +0.000 C 
BRANCH  14  15
ATOM     15  C   UNL     1       4.114   5.237  17.767  0.00  0.00    +0.000 A 
ATOM     16  C   UNL     1       4.266   6.551  17.245  0.00  0.00    +0.000 A 
ATOM     17  C   UNL     1       4.946   6.785  16.041  0.00  0.00    +0.000 A 
ATOM     18  C   UNL     1       5.499   5.696  15.411  0.00  0.00    +0.000 A 
ATOM     19  C   UNL     1       5.278   4.416  15.858  0.00  0.00    +0.000 A 
ATOM     20  C   UNL     1       4.573   4.154  17.002  0.00  0.00    +0.000 A 
ATOM     21  O   UNL     1       5.998   3.489  15.168  0.00  0.00    +0.000 OA
ATOM     22  C   UNL     1       6.961   4.380  14.581  0.00  0.00    +0.000 C 
ATOM     23  O   UNL     1       6.427   5.713  14.412  0.00  0.00    +0.000 OA
ENDBRANCH  14  15
BRANCH  14  24
ATOM     24  O   UNL     1       4.793   5.276  20.128  0.00  0.00    +0.000 OA
ATOM     25  H   UNL     1       4.663   6.169  20.485  0.00  0.00    +0.000 HD
ENDBRANCH  14  24
ENDBRANCH   2  14
TORSDOF 6
ENDMDL
MODEL 9
REMARK VINA RESULT:      -6.7      1.278      1.585
REMARK  Name = 
REMARK  7 active torsions:
REMARK  status: ('A' for Active; 'I' for Inactive)
REMARK    1  A    between atoms: C_1  and  C_2
REMARK    2  A    between atoms: C_2  and  N_3
REMARK    3  A    between atoms: C_2  and  C_13
REMARK    4  A    between atoms: N_3  and  C_4
REMARK    5  A    between atoms: C_4  and  C_5
REMARK    6  A    between atoms: C_13  and  O_14
REMARK    7  A    between atoms: C_13  and  C_15
REMARK                            x       y       z     vdW  Elec       q    Type
REMARK                         _______ _______ _______ _____ _____    ______ ____
ROOT
ATOM      1  C   UNL     1       2.877   2.741  21.206  0.00  0.00    +0.000 C 
ATOM      2  C   UNL     1       3.145   3.991  20.350  0.00  0.00    +0.000 C 
ENDROOT
BRANCH   2   3
ATOM      3  N   UNL     1       3.403   3.529  18.964  0.00  0.00    +0.000 NA
ATOM      4  H   UNL     1       2.835   2.693  18.803  0.00  0.00    +0.000 HD
BRANCH   3   5
ATOM      5  C   UNL     1       4.800   3.147  18.719  0.00  0.00    +0.000 C 
BRANCH   5   6
ATOM      6  C   UNL     1       5.711   4.343  18.517  0.00  0.00    +0.000 A 
ATOM      7  N   UNL     1       6.392   4.749  19.633  0.00  0.00    +0.000 NA
ATOM      8  C   UNL     1       7.197   5.822  19.506  0.00  0.00    +0.000 A 
ATOM      9  C   UNL     1       7.380   6.521  18.330  0.00  0.00    +0.000 A 
ATOM     10 CL   UNL     1       8.408   7.892  18.266  0.00  0.00    +0.000 Cl
ATOM     11  C   UNL     1       6.708   6.087  17.195  0.00  0.00    +0.000 A 
ATOM     12  C   UNL     1       5.864   4.979  17.280  0.00  0.00    +0.000 A 
ATOM     13 BR   UNL     1       4.957   4.429  15.706  0.00  0.00    +0.000 Br
ENDBRANCH   5   6
ENDBRANCH   3   5
ENDBRANCH   2   3
BRANCH   2  14
ATOM     14  C   UNL     1       1.977   5.025  20.568  0.00  0.00    +0.000 C 
BRANCH  14  15
ATOM     15  C   UNL     1       2.156   6.423  19.979  0.00  0.00    +0.000 A 
ATOM     16  C   UNL     1       2.696   6.598  18.674  0.00  0.00    +0.000 A 
ATOM     17  C   UNL     1       2.558   7.809  17.983  0.00  0.00    +0.000 A 
ATOM     18  C   UNL     1       1.841   8.806  18.601  0.00  0.00    +0.000 A 
ATOM     19  C   UNL     1       1.397   8.678  19.894  0.00  0.00    +0.000 A 
ATOM     20  C   UNL     1       1.564   7.525  20.613  0.00  0.00    +0.000 A 
ATOM     21  O   UNL     1       0.616   9.723  20.286  0.00  0.00    +0.000 OA
ATOM     22  C   UNL     1       0.303  10.239  18.981  0.00  0.00    +0.000 C 
ATOM     23  O   UNL     1       1.341   9.934  18.019  0.00  0.00    +0.000 OA
ENDBRANCH  14  15
BRANCH  14  24
ATOM     24  O   UNL     1       0.716   4.448  20.229  0.00  0.00    +0.000 OA
ATOM     25  H   UNL     1       0.244   4.278  21.061  0.00  0.00    +0.000 HD
ENDBRANCH  14  24
ENDBRANCH   2  14
TORSDOF 6
ENDMDL
