MODEL 1
REMARK VINA RESULT:      -7.7      0.000      0.000
REMARK  Name = 
REMARK  8 active torsions:
REMARK  status: ('A' for Active; 'I' for Inactive)
REMARK    1  A    between atoms: C_1  and  C_2
REMARK    2  A    between atoms: C_2  and  C_3
REMARK    3  A    between atoms: N_5  and  C_6
REMARK    4  A    between atoms: C_13  and  C_14
REMARK    5  A    between atoms: C_14  and  O_16
REMARK    6  A    between atoms: N_18  and  C_19
REMARK    7  A    between atoms: C_23  and  O_24
REMARK    8  A    between atoms: O_24  and  C_25
REMARK                            x       y       z     vdW  Elec       q    Type
REMARK                         _______ _______ _______ _____ _____    ______ ____
ROOT
ATOM      1  C   UNL     1       1.324   9.369  19.125  0.00  0.00    +0.000 A 
ATOM      2  C   UNL     1       2.108   9.630  17.963  0.00  0.00    +0.000 A 
ATOM      3  F   UNL     1       1.982  10.818  17.341  0.00  0.00    +0.000 F 
ATOM      4  C   UNL     1       3.028   8.706  17.461  0.00  0.00    +0.000 A 
ATOM      5  C   UNL     1       3.176   7.496  18.080  0.00  0.00    +0.000 A 
ATOM      6  C   UNL     1       4.130   6.543  17.441  0.00  0.00    +0.000 A 
ATOM      7  O   UNL     1       4.770   6.849  16.432  0.00  0.00    +0.000 OA
ATOM      8  C   UNL     1       4.346   5.238  18.097  0.00  0.00    +0.000 A 
ATOM      9  C   UNL     1       3.583   4.972  19.161  0.00  0.00    +0.000 A 
ATOM     10  N   UNL     1       2.593   5.766  19.712  0.00  0.00    +0.000 N 
ATOM     11  C   UNL     1       2.444   7.129  19.260  0.00  0.00    +0.000 A 
ATOM     12  C   UNL     1       1.583   8.122  19.817  0.00  0.00    +0.000 A 
ENDROOT
BRANCH   1  15
ATOM     13  C   UNL     1      -1.504  11.503  18.456  0.00  0.00    +0.000 C 
ATOM     14  C   UNL     1      -1.043  10.191  19.142  0.00  0.00    +0.000 C 
ATOM     15  N   UNL     1       0.365  10.298  19.521  0.00  0.00    +0.000 N 
ATOM     16  C   UNL     1       0.669  11.469  20.371  0.00  0.00    +0.000 C 
ATOM     17  C   UNL     1       0.117  12.760  19.710  0.00  0.00    +0.000 C 
ATOM     18  N   UNL     1      -1.316  12.676  19.351  0.00  0.00    +0.000 NA
ATOM     19  H   UNL     1      -1.585  13.522  18.851  0.00  0.00    +0.000 HD
BRANCH  13  21
ATOM     20  C   UNL     1      -3.346  10.016  17.569  0.00  0.00    +0.000 C 
ATOM     21  C   UNL     1      -2.976  11.417  18.032  0.00  0.00    +0.000 C 
ENDBRANCH  13  21
ENDBRANCH   1  15
BRANCH  10  22
ATOM     22  C   UNL     1       1.877   5.115  20.831  0.00  0.00    +0.000 C 
ATOM     23  C   UNL     1       0.939   3.910  20.684  0.00  0.00    +0.000 C 
ATOM     24  C   UNL     1       2.236   3.768  21.398  0.00  0.00    +0.000 C 
ENDBRANCH  10  22
BRANCH   8  25
ATOM     25  C   UNL     1       5.262   4.189  17.616  0.00  0.00    +0.000 C 
ATOM     26  O   UNL     1       5.091   3.592  16.566  0.00  0.00    +0.000 OA
BRANCH  25  27
ATOM     27  O   UNL     1       6.327   3.979  18.411  0.00  0.00    +0.000 OA
ATOM     28  H   UNL     1       7.059   4.627  18.280  0.00  0.00    +0.000 HD
ENDBRANCH  25  27
ENDBRANCH   8  25
BRANCH  12  29
ATOM     29  O   UNL     1       0.837   7.922  20.969  0.00  0.00    +0.000 OA
ATOM     30  C   UNL     1       1.232   8.599  22.160  0.00  0.00    +0.000 C 
ENDBRANCH  12  29
TORSDOF 6
ENDMDL
MODEL 2
REMARK VINA RESULT:      -6.6      1.607      2.281
REMARK  Name = 
REMARK  8 active torsions:
REMARK  status: ('A' for Active; 'I' for Inactive)
REMARK    1  A    between atoms: C_1  and  C_2
REMARK    2  A    between atoms: C_2  and  C_3
REMARK    3  A    between atoms: N_5  and  C_6
REMARK    4  A    between atoms: C_13  and  C_14
REMARK    5  A    between atoms: C_14  and  O_16
REMARK    6  A    between atoms: N_18  and  C_19
REMARK    7  A    between atoms: C_23  and  O_24
REMARK    8  A    between atoms: O_24  and  C_25
REMARK                            x       y       z     vdW  Elec       q    Type
REMARK                         _______ _______ _______ _____ _____    ______ ____
ROOT
ATOM      1  C   UNL     1       2.116   7.877  19.266  0.00  0.00    +0.000 A 
ATOM      2  C   UNL     1       2.618   8.582  18.134  0.00  0.00    +0.000 A 
ATOM      3  F   UNL     1       2.190   9.839  17.901  0.00  0.00    +0.000 F 
ATOM      4  C   UNL     1       3.564   8.026  17.268  0.00  0.00    +0.000 A 
ATOM      5  C   UNL     1       4.015   6.756  17.488  0.00  0.00    +0.000 A 
ATOM      6  C   UNL     1       4.973   6.215  16.480  0.00  0.00    +0.000 A 
ATOM      7  O   UNL     1       5.357   6.894  15.525  0.00  0.00    +0.000 OA
ATOM      8  C   UNL     1       5.513   4.857  16.699  0.00  0.00    +0.000 A 
ATOM      9  C   UNL     1       5.013   4.177  17.734  0.00  0.00    +0.000 A 
ATOM     10  N   UNL     1       4.029   4.583  18.618  0.00  0.00    +0.000 N 
ATOM     11  C   UNL     1       3.583   5.956  18.600  0.00  0.00    +0.000 A 
ATOM     12  C   UNL     1       2.694   6.575  19.530  0.00  0.00    +0.000 A 
ENDROOT
BRANCH   1  15
ATOM     13  C   UNL     1      -0.227  10.527  19.970  0.00  0.00    +0.000 C 
ATOM     14  C   UNL     1      -0.079   9.072  19.454  0.00  0.00    +0.000 C 
ATOM     15  N   UNL     1       1.111   8.457  20.037  0.00  0.00    +0.000 N 
ATOM     16  C   UNL     1       1.140   8.494  21.516  0.00  0.00    +0.000 C 
ATOM     17  C   UNL     1       0.898   9.943  22.014  0.00  0.00    +0.000 C 
ATOM     18  N   UNL     1      -0.322  10.566  21.454  0.00  0.00    +0.000 NA
ATOM     19  H   UNL     1      -0.371  11.537  21.758  0.00  0.00    +0.000 HD
BRANCH  13  21
ATOM     20  C   UNL     1      -2.018  10.413  18.189  0.00  0.00    +0.000 C 
ATOM     21  C   UNL     1      -1.461  11.206  19.362  0.00  0.00    +0.000 C 
ENDBRANCH  13  21
ENDBRANCH   1  15
BRANCH  10  22
ATOM     22  C   UNL     1       3.648   3.534  19.589  0.00  0.00    +0.000 C 
ATOM     23  C   UNL     1       2.979   2.204  19.219  0.00  0.00    +0.000 C 
ATOM     24  C   UNL     1       4.368   2.223  19.748  0.00  0.00    +0.000 C 
ENDBRANCH  10  22
BRANCH   8  25
ATOM     25  C   UNL     1       6.478   4.178  15.818  0.00  0.00    +0.000 C 
ATOM     26  O   UNL     1       6.143   3.549  14.829  0.00  0.00    +0.000 OA
BRANCH  25  27
ATOM     27  O   UNL     1       7.765   4.349  16.172  0.00  0.00    +0.000 OA
ATOM     28  H   UNL     1       8.270   4.947  15.571  0.00  0.00    +0.000 HD
ENDBRANCH  25  27
ENDBRANCH   8  25
BRANCH  12  29
ATOM     29  O   UNL     1       2.217   5.938  20.666  0.00  0.00    +0.000 OA
ATOM     30  C   UNL     1       1.108   5.051  20.532  0.00  0.00    +0.000 C 
ENDBRANCH  12  29
TORSDOF 6
ENDMDL
MODEL 3
REMARK VINA RESULT:      -6.6      5.175      9.916
REMARK  Name = 
REMARK  8 active torsions:
REMARK  status: ('A' for Active; 'I' for Inactive)
REMARK    1  A    between atoms: C_1  and  C_2
REMARK    2  A    between atoms: C_2  and  C_3
REMARK    3  A    between atoms: N_5  and  C_6
REMARK    4  A    between atoms: C_13  and  C_14
REMARK    5  A    between atoms: C_14  and  O_16
REMARK    6  A    between atoms: N_18  and  C_19
REMARK    7  A    between atoms: C_23  and  O_24
REMARK    8  A    between atoms: O_24  and  C_25
REMARK                            x       y       z     vdW  Elec       q    Type
REMARK                         _______ _______ _______ _____ _____    ______ ____
ROOT
ATOM      1  C   UNL     1      -2.442  12.131  19.671  0.00  0.00    +0.000 A 
ATOM      2  C   UNL     1      -3.714  12.048  19.034  0.00  0.00    +0.000 A 
ATOM      3  F   UNL     1      -3.782  11.620  17.758  0.00  0.00    +0.000 F 
ATOM      4  C   UNL     1      -4.902  12.369  19.696  0.00  0.00    +0.000 A 
ATOM      5  C   UNL     1      -4.857  12.800  20.992  0.00  0.00    +0.000 A 
ATOM      6  C   UNL     1      -6.163  13.184  21.603  0.00  0.00    +0.000 A 
ATOM      7  O   UNL     1      -7.222  13.082  20.980  0.00  0.00    +0.000 OA
ATOM      8  C   UNL     1      -6.163  13.623  23.013  0.00  0.00    +0.000 A 
ATOM      9  C   UNL     1      -4.969  13.743  23.601  0.00  0.00    +0.000 A 
ATOM     10  N   UNL     1      -3.724  13.527  23.038  0.00  0.00    +0.000 N 
ATOM     11  C   UNL     1      -3.632  12.916  21.733  0.00  0.00    +0.000 A 
ATOM     12  C   UNL     1      -2.439  12.489  21.075  0.00  0.00    +0.000 A 
ENDROOT
BRANCH   1  15
ATOM     13  C   UNL     1       0.742  10.510  19.183  0.00  0.00    +0.000 C 
ATOM     14  C   UNL     1      -0.744  10.538  18.743  0.00  0.00    +0.000 C 
ATOM     15  N   UNL     1      -1.291  11.880  18.926  0.00  0.00    +0.000 N 
ATOM     16  C   UNL     1      -0.521  12.940  18.239  0.00  0.00    +0.000 C 
ATOM     17  C   UNL     1       0.979  12.836  18.621  0.00  0.00    +0.000 C 
ATOM     18  N   UNL     1       1.553  11.488  18.410  0.00  0.00    +0.000 NA
ATOM     19  H   UNL     1       2.511  11.475  18.758  0.00  0.00    +0.000 HD
BRANCH  13  21
ATOM     20  C   UNL     1       2.074   8.963  17.691  0.00  0.00    +0.000 C 
ATOM     21  C   UNL     1       1.341   9.108  19.016  0.00  0.00    +0.000 C 
ENDBRANCH  13  21
ENDBRANCH   1  15
BRANCH  10  22
ATOM     22  C   UNL     1      -2.606  13.851  23.951  0.00  0.00    +0.000 C 
ATOM     23  C   UNL     1      -1.772  15.136  23.888  0.00  0.00    +0.000 C 
ATOM     24  C   UNL     1      -2.675  14.884  25.043  0.00  0.00    +0.000 C 
ENDBRANCH  10  22
BRANCH   8  25
ATOM     25  C   UNL     1      -7.359  14.018  23.776  0.00  0.00    +0.000 C 
ATOM     26  O   UNL     1      -7.829  15.143  23.735  0.00  0.00    +0.000 OA
BRANCH  25  27
ATOM     27  O   UNL     1      -7.916  13.021  24.488  0.00  0.00    +0.000 OA
ATOM     28  H   UNL     1      -8.834  12.793  24.207  0.00  0.00    +0.000 HD
ENDBRANCH  25  27
ENDBRANCH   8  25
BRANCH  12  29
ATOM     29  O   UNL     1      -1.189  12.513  21.674  0.00  0.00    +0.000 OA
ATOM     30  C   UNL     1      -0.769  11.370  22.416  0.00  0.00    +0.000 C 
ENDBRANCH  12  29
TORSDOF 6
ENDMDL
MODEL 4
REMARK VINA RESULT:      -6.5      4.921      9.691
REMARK  Name = 
REMARK  8 active torsions:
REMARK  status: ('A' for Active; 'I' for Inactive)
REMARK    1  A    between atoms: C_1  and  C_2
REMARK    2  A    between atoms: C_2  and  C_3
REMARK    3  A    between atoms: N_5  and  C_6
REMARK    4  A    between atoms: C_13  and  C_14
REMARK    5  A    between atoms: C_14  and  O_16
REMARK    6  A    between atoms: N_18  and  C_19
REMARK    7  A    between atoms: C_23  and  O_24
REMARK    8  A    between atoms: O_24  and  C_25
REMARK                            x       y       z     vdW  Elec       q    Type
REMARK                         _______ _______ _______ _____ _____    ______ ____
ROOT
ATOM      1  C   UNL     1      -1.619  12.091  20.056  0.00  0.00    +0.000 A 
ATOM      2  C   UNL     1      -1.269  12.206  21.433  0.00  0.00    +0.000 A 
ATOM      3  F   UNL     1       0.024  12.085  21.793  0.00  0.00    +0.000 F 
ATOM      4  C   UNL     1      -2.218  12.469  22.424  0.00  0.00    +0.000 A 
ATOM      5  C   UNL     1      -3.534  12.600  22.081  0.00  0.00    +0.000 A 
ATOM      6  C   UNL     1      -4.489  12.814  23.207  0.00  0.00    +0.000 A 
ATOM      7  O   UNL     1      -4.102  12.901  24.375  0.00  0.00    +0.000 OA
ATOM      8  C   UNL     1      -5.917  12.996  22.877  0.00  0.00    +0.000 A 
ATOM      9  C   UNL     1      -6.256  12.847  21.593  0.00  0.00    +0.000 A 
ATOM     10  N   UNL     1      -5.430  12.518  20.532  0.00  0.00    +0.000 N 
ATOM     11  C   UNL     1      -3.999  12.510  20.725  0.00  0.00    +0.000 A 
ATOM     12  C   UNL     1      -3.005  12.341  19.714  0.00  0.00    +0.000 A 
ENDROOT
BRANCH   1  15
ATOM     13  C   UNL     1       1.149  10.050  18.972  0.00  0.00    +0.000 C 
ATOM     14  C   UNL     1      -0.357  10.356  18.761  0.00  0.00    +0.000 C 
ATOM     15  N   UNL     1      -0.637  11.741  19.131  0.00  0.00    +0.000 N 
ATOM     16  C   UNL     1       0.204  12.732  18.425  0.00  0.00    +0.000 C 
ATOM     17  C   UNL     1       1.701  12.355  18.571  0.00  0.00    +0.000 C 
ATOM     18  N   UNL     1       2.004  10.963  18.169  0.00  0.00    +0.000 NA
ATOM     19  H   UNL     1       2.983  10.764  18.368  0.00  0.00    +0.000 HD
BRANCH  13  21
ATOM     20  C   UNL     1       2.721   8.498  17.741  0.00  0.00    +0.000 C 
ATOM     21  C   UNL     1       1.473   8.596  18.606  0.00  0.00    +0.000 C 
ENDBRANCH  13  21
ENDBRANCH   1  15
BRANCH  10  22
ATOM     22  C   UNL     1      -6.160  12.338  19.259  0.00  0.00    +0.000 C 
ATOM     23  C   UNL     1      -6.976  11.093  18.888  0.00  0.00    +0.000 C 
ATOM     24  C   UNL     1      -7.657  12.394  19.123  0.00  0.00    +0.000 C 
ENDBRANCH  10  22
BRANCH   8  25
ATOM     25  C   UNL     1      -6.989  13.235  23.858  0.00  0.00    +0.000 C 
ATOM     26  O   UNL     1      -7.915  12.460  24.029  0.00  0.00    +0.000 OA
BRANCH  25  27
ATOM     27  O   UNL     1      -6.836  14.359  24.581  0.00  0.00    +0.000 OA
ATOM     28  H   UNL     1      -7.644  14.925  24.619  0.00  0.00    +0.000 HD
ENDBRANCH  25  27
ENDBRANCH   8  25
BRANCH  12  29
ATOM     29  O   UNL     1      -3.301  12.268  18.361  0.00  0.00    +0.000 OA
ATOM     30  C   UNL     1      -3.551  10.985  17.789  0.00  0.00    +0.000 C 
ENDBRANCH  12  29
TORSDOF 6
ENDMDL
MODEL 5
REMARK VINA RESULT:      -6.4      2.861      7.738
REMARK  Name = 
REMARK  8 active torsions:
REMARK  status: ('A' for Active; 'I' for Inactive)
REMARK    1  A    between atoms: C_1  and  C_2
REMARK    2  A    between atoms: C_2  and  C_3
REMARK    3  A    between atoms: N_5  and  C_6
REMARK    4  A    between atoms: C_13  and  C_14
REMARK    5  A    between atoms: C_14  and  O_16
REMARK    6  A    between atoms: N_18  and  C_19
REMARK    7  A    between atoms: C_23  and  O_24
REMARK    8  A    between atoms: O_24  and  C_25
REMARK                            x       y       z     vdW  Elec       q    Type
REMARK                         _______ _______ _______ _____ _____    ______ ____
ROOT
ATOM      1  C   UNL     1       1.875   7.727  19.363  0.00  0.00    +0.000 A 
ATOM      2  C   UNL     1       1.701   7.240  20.691  0.00  0.00    +0.000 A 
ATOM      3  F   UNL     1       2.216   6.038  21.021  0.00  0.00    +0.000 F 
ATOM      4  C   UNL     1       1.040   7.977  21.676  0.00  0.00    +0.000 A 
ATOM      5  C   UNL     1       0.514   9.200  21.365  0.00  0.00    +0.000 A 
ATOM      6  C   UNL     1      -0.233   9.892  22.455  0.00  0.00    +0.000 A 
ATOM      7  O   UNL     1      -0.337   9.397  23.581  0.00  0.00    +0.000 OA
ATOM      8  C   UNL     1      -0.786  11.231  22.172  0.00  0.00    +0.000 A 
ATOM      9  C   UNL     1      -0.663  11.674  20.917  0.00  0.00    +0.000 A 
ATOM     10  N   UNL     1      -0.098  11.016  19.840  0.00  0.00    +0.000 N 
ATOM     11  C   UNL     1       0.635   9.792  20.062  0.00  0.00    +0.000 A 
ATOM     12  C   UNL     1       1.400   9.070  19.096  0.00  0.00    +0.000 A 
ENDROOT
BRANCH   1  15
ATOM     13  C   UNL     1       2.773   4.480  18.077  0.00  0.00    +0.000 C 
ATOM     14  C   UNL     1       1.826   5.695  17.898  0.00  0.00    +0.000 C 
ATOM     15  N   UNL     1       2.468   6.904  18.408  0.00  0.00    +0.000 N 
ATOM     16  C   UNL     1       3.791   7.178  17.807  0.00  0.00    +0.000 C 
ATOM     17  C   UNL     1       4.692   5.920  17.915  0.00  0.00    +0.000 C 
ATOM     18  N   UNL     1       4.065   4.694  17.373  0.00  0.00    +0.000 NA
ATOM     19  H   UNL     1       4.677   3.899  17.551  0.00  0.00    +0.000 HD
BRANCH  13  21
ATOM     20  C   UNL     1       1.195   2.576  18.604  0.00  0.00    +0.000 C 
ATOM     21  C   UNL     1       2.120   3.190  17.564  0.00  0.00    +0.000 C 
ENDBRANCH  13  21
ENDBRANCH   1  15
BRANCH  10  22
ATOM     22  C   UNL     1      -0.221  11.764  18.569  0.00  0.00    +0.000 C 
ATOM     23  C   UNL     1      -1.543  12.034  17.840  0.00  0.00    +0.000 C 
ATOM     24  C   UNL     1      -0.782  13.155  18.455  0.00  0.00    +0.000 C 
ENDBRANCH  10  22
BRANCH   8  25
ATOM     25  C   UNL     1      -1.532  12.060  23.135  0.00  0.00    +0.000 C 
ATOM     26  O   UNL     1      -1.127  13.139  23.533  0.00  0.00    +0.000 OA
BRANCH  25  27
ATOM     27  O   UNL     1      -2.720  11.546  23.502  0.00  0.00    +0.000 OA
ATOM     28  H   UNL     1      -2.654  10.683  23.976  0.00  0.00    +0.000 HD
ENDBRANCH  25  27
ENDBRANCH   8  25
BRANCH  12  29
ATOM     29  O   UNL     1       1.628   9.531  17.808  0.00  0.00    +0.000 OA
ATOM     30  C   UNL     1       2.588  10.568  17.616  0.00  0.00    +0.000 C 
ENDBRANCH  12  29
TORSDOF 6
ENDMDL
MODEL 6
REMARK VINA RESULT:      -6.4      1.086      1.845
REMARK  Name = 
REMARK  8 active torsions:
REMARK  status: ('A' for Active; 'I' for Inactive)
REMARK    1  A    between atoms: C_1  and  C_2
REMARK    2  A    between atoms: C_2  and  C_3
REMARK    3  A    between atoms: N_5  and  C_6
REMARK    4  A    between atoms: C_13  and  C_14
REMARK    5  A    between atoms: C_14  and  O_16
REMARK    6  A    between atoms: N_18  and  C_19
REMARK    7  A    between atoms: C_23  and  O_24
REMARK    8  A    between atoms: O_24  and  C_25
REMARK                            x       y       z     vdW  Elec       q    Type
REMARK                         _______ _______ _______ _____ _____    ______ ____
ROOT
ATOM      1  C   UNL     1       1.427   9.557  18.946  0.00  0.00    +0.000 A 
ATOM      2  C   UNL     1       2.302   9.783  17.844  0.00  0.00    +0.000 A 
ATOM      3  F   UNL     1       2.280  10.979  17.223  0.00  0.00    +0.000 F 
ATOM      4  C   UNL     1       3.207   8.815  17.399  0.00  0.00    +0.000 A 
ATOM      5  C   UNL     1       3.250   7.597  18.017  0.00  0.00    +0.000 A 
ATOM      6  C   UNL     1       4.197   6.600  17.439  0.00  0.00    +0.000 A 
ATOM      7  O   UNL     1       4.920   6.877  16.479  0.00  0.00    +0.000 OA
ATOM      8  C   UNL     1       4.301   5.282  18.098  0.00  0.00    +0.000 A 
ATOM      9  C   UNL     1       3.453   5.051  19.104  0.00  0.00    +0.000 A 
ATOM     10  N   UNL     1       2.468   5.893  19.592  0.00  0.00    +0.000 N 
ATOM     11  C   UNL     1       2.420   7.263  19.140  0.00  0.00    +0.000 A 
ATOM     12  C   UNL     1       1.574   8.296  19.645  0.00  0.00    +0.000 A 
ENDROOT
BRANCH   1  15
ATOM     13  C   UNL     1      -0.810  11.149  21.283  0.00  0.00    +0.000 C 
ATOM     14  C   UNL     1       0.542  11.280  20.536  0.00  0.00    +0.000 C 
ATOM     15  N   UNL     1       0.491  10.532  19.282  0.00  0.00    +0.000 N 
ATOM     16  C   UNL     1      -0.634  10.916  18.402  0.00  0.00    +0.000 C 
ATOM     17  C   UNL     1      -1.967  10.868  19.194  0.00  0.00    +0.000 C 
ATOM     18  N   UNL     1      -1.938  11.647  20.452  0.00  0.00    +0.000 NA
ATOM     19  H   UNL     1      -2.812  11.503  20.955  0.00  0.00    +0.000 HD
BRANCH  13  21
ATOM     20  C   UNL     1      -2.183  12.135  23.164  0.00  0.00    +0.000 C 
ATOM     21  C   UNL     1      -0.782  11.912  22.614  0.00  0.00    +0.000 C 
ENDBRANCH  13  21
ENDBRANCH   1  15
BRANCH  10  22
ATOM     22  C   UNL     1       1.645   5.274  20.653  0.00  0.00    +0.000 C 
ATOM     23  C   UNL     1       0.796   4.009  20.473  0.00  0.00    +0.000 C 
ATOM     24  C   UNL     1       1.992   3.990  21.356  0.00  0.00    +0.000 C 
ENDBRANCH  10  22
BRANCH   8  25
ATOM     25  C   UNL     1       5.193   4.191  17.673  0.00  0.00    +0.000 C 
ATOM     26  O   UNL     1       5.038   3.576  16.631  0.00  0.00    +0.000 OA
BRANCH  25  27
ATOM     27  O   UNL     1       6.221   3.960  18.510  0.00  0.00    +0.000 OA
ATOM     28  H   UNL     1       6.869   4.703  18.564  0.00  0.00    +0.000 HD
ENDBRANCH  25  27
ENDBRANCH   8  25
BRANCH  12  29
ATOM     29  O   UNL     1       0.741   8.130  20.741  0.00  0.00    +0.000 OA
ATOM     30  C   UNL     1       1.247   8.451  22.035  0.00  0.00    +0.000 C 
ENDBRANCH  12  29
TORSDOF 6
ENDMDL
MODEL 7
REMARK VINA RESULT:      -6.3      2.466      4.287
REMARK  Name = 
REMARK  8 active torsions:
REMARK  status: ('A' for Active; 'I' for Inactive)
REMARK    1  A    between atoms: C_1  and  C_2
REMARK    2  A    between atoms: C_2  and  C_3
REMARK    3  A    between atoms: N_5  and  C_6
REMARK    4  A    between atoms: C_13  and  C_14
REMARK    5  A    between atoms: C_14  and  O_16
REMARK    6  A    between atoms: N_18  and  C_19
REMARK    7  A    between atoms: C_23  and  O_24
REMARK    8  A    between atoms: O_24  and  C_25
REMARK                            x       y       z     vdW  Elec       q    Type
REMARK                         _______ _______ _______ _____ _____    ______ ____
ROOT
ATOM      1  C   UNL     1       1.965   7.378  19.715  0.00  0.00    +0.000 A 
ATOM      2  C   UNL     1       1.241   6.488  20.562  0.00  0.00    +0.000 A 
ATOM      3  F   UNL     1       0.112   6.923  21.156  0.00  0.00    +0.000 F 
ATOM      4  C   UNL     1       1.645   5.168  20.777  0.00  0.00    +0.000 A 
ATOM      5  C   UNL     1       2.783   4.705  20.180  0.00  0.00    +0.000 A 
ATOM      6  C   UNL     1       3.179   3.306  20.514  0.00  0.00    +0.000 A 
ATOM      7  O   UNL     1       2.493   2.602  21.260  0.00  0.00    +0.000 OA
ATOM      8  C   UNL     1       4.384   2.754  19.863  0.00  0.00    +0.000 A 
ATOM      9  C   UNL     1       5.089   3.596  19.103  0.00  0.00    +0.000 A 
ATOM     10  N   UNL     1       4.838   4.937  18.868  0.00  0.00    +0.000 N 
ATOM     11  C   UNL     1       3.587   5.510  19.303  0.00  0.00    +0.000 A 
ATOM     12  C   UNL     1       3.106   6.823  19.015  0.00  0.00    +0.000 A 
ENDROOT
BRANCH   1  15
ATOM     13  C   UNL     1      -0.120  10.148  20.704  0.00  0.00    +0.000 C 
ATOM     14  C   UNL     1       1.307   9.548  20.782  0.00  0.00    +0.000 C 
ATOM     15  N   UNL     1       1.555   8.705  19.614  0.00  0.00    +0.000 N 
ATOM     16  C   UNL     1       1.347   9.395  18.323  0.00  0.00    +0.000 C 
ATOM     17  C   UNL     1      -0.051  10.068  18.302  0.00  0.00    +0.000 C 
ATOM     18  N   UNL     1      -0.303  10.948  19.464  0.00  0.00    +0.000 NA
ATOM     19  H   UNL     1      -1.263  11.287  19.425  0.00  0.00    +0.000 HD
BRANCH  13  21
ATOM     20  C   UNL     1      -0.704  10.190  23.164  0.00  0.00    +0.000 C 
ATOM     21  C   UNL     1      -0.417  11.027  21.926  0.00  0.00    +0.000 C 
ENDBRANCH  13  21
ENDBRANCH   1  15
BRANCH  10  22
ATOM     22  C   UNL     1       5.884   5.592  18.053  0.00  0.00    +0.000 C 
ATOM     23  C   UNL     1       7.247   6.053  18.586  0.00  0.00    +0.000 C 
ATOM     24  C   UNL     1       7.162   4.927  17.618  0.00  0.00    +0.000 C 
ENDBRANCH  10  22
BRANCH   8  25
ATOM     25  C   UNL     1       4.906   1.391  20.063  0.00  0.00    +0.000 C 
ATOM     26  O   UNL     1       5.497   1.050  21.074  0.00  0.00    +0.000 OA
BRANCH  25  27
ATOM     27  O   UNL     1       4.634   0.542  19.055  0.00  0.00    +0.000 OA
ATOM     28  H   UNL     1       5.363   0.457  18.396  0.00  0.00    +0.000 HD
ENDBRANCH  25  27
ENDBRANCH   8  25
BRANCH  12  29
ATOM     29  O   UNL     1       3.759   7.702  18.164  0.00  0.00    +0.000 OA
ATOM     30  C   UNL     1       3.730   7.438  16.763  0.00  0.00    +0.000 C 
ENDBRANCH  12  29
TORSDOF 6
ENDMDL
MODEL 8
REMARK VINA RESULT:      -6.2      0.994      2.088
REMARK  Name = 
REMARK  8 active torsions:
REMARK  status: ('A' for Active; 'I' for Inactive)
REMARK    1  A    between atoms: C_1  and  C_2
REMARK    2  A    between atoms: C_2  and  C_3
REMARK    3  A    between atoms: N_5  and  C_6
REMARK    4  A    between atoms: C_13  and  C_14
REMARK    5  A    between atoms: C_14  and  O_16
REMARK    6  A    between atoms: N_18  and  C_19
REMARK    7  A    between atoms: C_23  and  O_24
REMARK    8  A    between atoms: O_24  and  C_25
REMARK                            x       y       z     vdW  Elec       q    Type
REMARK                         _______ _______ _______ _____ _____    ______ ____
ROOT
ATOM      1  C   UNL     1       1.462   9.542  19.015  0.00  0.00    +0.000 A 
ATOM      2  C   UNL     1       2.262   9.753  17.854  0.00  0.00    +0.000 A 
ATOM      3  F   UNL     1       2.202  10.943  17.224  0.00  0.00    +0.000 F 
ATOM      4  C   UNL     1       3.132   8.778  17.360  0.00  0.00    +0.000 A 
ATOM      5  C   UNL     1       3.213   7.566  17.986  0.00  0.00    +0.000 A 
ATOM      6  C   UNL     1       4.116   6.559  17.357  0.00  0.00    +0.000 A 
ATOM      7  O   UNL     1       4.775   6.824  16.348  0.00  0.00    +0.000 OA
ATOM      8  C   UNL     1       4.260   5.248  18.021  0.00  0.00    +0.000 A 
ATOM      9  C   UNL     1       3.480   5.030  19.085  0.00  0.00    +0.000 A 
ATOM     10  N   UNL     1       2.533   5.880  19.628  0.00  0.00    +0.000 N 
ATOM     11  C   UNL     1       2.459   7.246  19.166  0.00  0.00    +0.000 A 
ATOM     12  C   UNL     1       1.652   8.288  19.716  0.00  0.00    +0.000 A 
ENDROOT
BRANCH   1  15
ATOM     13  C   UNL     1       0.442  12.277  21.133  0.00  0.00    +0.000 C 
ATOM     14  C   UNL     1       0.954  11.892  19.720  0.00  0.00    +0.000 C 
ATOM     15  N   UNL     1       0.553  10.524  19.402  0.00  0.00    +0.000 N 
ATOM     16  C   UNL     1      -0.902  10.284  19.516  0.00  0.00    +0.000 C 
ATOM     17  C   UNL     1      -1.411  10.761  20.902  0.00  0.00    +0.000 C 
ATOM     18  N   UNL     1      -1.037  12.157  21.222  0.00  0.00    +0.000 NA
ATOM     19  H   UNL     1      -1.332  12.372  22.174  0.00  0.00    +0.000 HD
BRANCH  13  21
ATOM     20  C   UNL     1       1.893  14.258  20.529  0.00  0.00    +0.000 C 
ATOM     21  C   UNL     1       0.861  13.705  21.502  0.00  0.00    +0.000 C 
ENDBRANCH  13  21
ENDBRANCH   1  15
BRANCH  10  22
ATOM     22  C   UNL     1       1.781   5.275  20.748  0.00  0.00    +0.000 C 
ATOM     23  C   UNL     1       0.893   4.030  20.632  0.00  0.00    +0.000 C 
ATOM     24  C   UNL     1       2.153   3.981  21.420  0.00  0.00    +0.000 C 
ENDBRANCH  10  22
BRANCH   8  25
ATOM     25  C   UNL     1       5.119   4.149  17.549  0.00  0.00    +0.000 C 
ATOM     26  O   UNL     1       5.063   3.705  16.415  0.00  0.00    +0.000 OA
BRANCH  25  27
ATOM     27  O   UNL     1       6.003   3.707  18.462  0.00  0.00    +0.000 OA
ATOM     28  H   UNL     1       5.638   3.650  19.378  0.00  0.00    +0.000 HD
ENDBRANCH  25  27
ENDBRANCH   8  25
BRANCH  12  29
ATOM     29  O   UNL     1       0.893   8.135  20.866  0.00  0.00    +0.000 OA
ATOM     30  C   UNL     1       1.354   8.746  22.070  0.00  0.00    +0.000 C 
ENDBRANCH  12  29
TORSDOF 6
ENDMDL
MODEL 9
REMARK VINA RESULT:      -6.1      5.495      8.486
REMARK  Name = 
REMARK  8 active torsions:
REMARK  status: ('A' for Active; 'I' for Inactive)
REMARK    1  A    between atoms: C_1  and  C_2
REMARK    2  A    between atoms: C_2  and  C_3
REMARK    3  A    between atoms: N_5  and  C_6
REMARK    4  A    between atoms: C_13  and  C_14
REMARK    5  A    between atoms: C_14  and  O_16
REMARK    6  A    between atoms: N_18  and  C_19
REMARK    7  A    between atoms: C_23  and  O_24
REMARK    8  A    between atoms: O_24  and  C_25
REMARK                            x       y       z     vdW  Elec       q    Type
REMARK                         _______ _______ _______ _____ _____    ______ ____
ROOT
ATOM      1  C   UNL     1      -4.357  13.282  21.662  0.00  0.00    +0.000 A 
ATOM      2  C   UNL     1      -5.524  13.212  20.846  0.00  0.00    +0.000 A 
ATOM      3  F   UNL     1      -6.692  13.678  21.331  0.00  0.00    +0.000 F 
ATOM      4  C   UNL     1      -5.496  12.700  19.547  0.00  0.00    +0.000 A 
ATOM      5  C   UNL     1      -4.322  12.227  19.033  0.00  0.00    +0.000 A 
ATOM      6  C   UNL     1      -4.393  11.638  17.663  0.00  0.00    +0.000 A 
ATOM      7  O   UNL     1      -5.448  11.616  17.024  0.00  0.00    +0.000 OA
ATOM      8  C   UNL     1      -3.139  11.147  17.057  0.00  0.00    +0.000 A 
ATOM      9  C   UNL     1      -2.052  11.172  17.833  0.00  0.00    +0.000 A 
ATOM     10  N   UNL     1      -1.962  11.584  19.150  0.00  0.00    +0.000 N 
ATOM     11  C   UNL     1      -3.084  12.254  19.761  0.00  0.00    +0.000 A 
ATOM     12  C   UNL     1      -3.110  12.871  21.049  0.00  0.00    +0.000 A 
ENDROOT
BRANCH   1  15
ATOM     13  C   UNL     1      -3.441  15.470  24.378  0.00  0.00    +0.000 C 
ATOM     14  C   UNL     1      -4.541  15.137  23.337  0.00  0.00    +0.000 C 
ATOM     15  N   UNL     1      -4.473  13.722  22.979  0.00  0.00    +0.000 N 
ATOM     16  C   UNL     1      -4.553  12.807  24.137  0.00  0.00    +0.000 C 
ATOM     17  C   UNL     1      -3.507  13.215  25.208  0.00  0.00    +0.000 C 
ATOM     18  N   UNL     1      -3.586  14.639  25.602  0.00  0.00    +0.000 NA
ATOM     19  H   UNL     1      -2.821  14.852  26.241  0.00  0.00    +0.000 HD
BRANCH  13  21
ATOM     20  C   UNL     1      -4.881  17.406  25.133  0.00  0.00    +0.000 C 
ATOM     21  C   UNL     1      -3.476  16.955  24.763  0.00  0.00    +0.000 C 
ENDBRANCH  13  21
ENDBRANCH   1  15
BRANCH  10  22
ATOM     22  C   UNL     1      -0.618  11.382  19.734  0.00  0.00    +0.000 C 
ATOM     23  C   UNL     1      -0.231  10.218  20.655  0.00  0.00    +0.000 C 
ATOM     24  C   UNL     1       0.350  10.319  19.290  0.00  0.00    +0.000 C 
ENDBRANCH  10  22
BRANCH   8  25
ATOM     25  C   UNL     1      -3.024  10.556  15.713  0.00  0.00    +0.000 C 
ATOM     26  O   UNL     1      -2.591   9.433  15.518  0.00  0.00    +0.000 OA
BRANCH  25  27
ATOM     27  O   UNL     1      -3.481  11.343  14.722  0.00  0.00    +0.000 OA
ATOM     28  H   UNL     1      -2.768  11.791  14.206  0.00  0.00    +0.000 HD
ENDBRANCH  25  27
ENDBRANCH   8  25
BRANCH  12  29
ATOM     29  O   UNL     1      -1.989  12.998  21.854  0.00  0.00    +0.000 OA
ATOM     30  C   UNL     1      -1.211  14.189  21.753  0.00  0.00    +0.000 C 
ENDBRANCH  12  29
TORSDOF 6
ENDMDL
