MODEL 1
REMARK VINA RESULT:      -7.8      0.000      0.000
REMARK  Name = 
REMARK  4 active torsions:
REMARK  status: ('A' for Active; 'I' for Inactive)
REMARK    1  A    between atoms: C_1  and  C_2
REMARK    2  A    between atoms: C_2  and  N_3
REMARK    3  A    between atoms: C_9  and  C_10
REMARK    4  A    between atoms: N_20  and  C_21
REMARK                            x       y       z     vdW  Elec       q    Type
REMARK                         _______ _______ _______ _____ _____    ______ ____
ROOT
ATOM      1  N   UNL     1       1.795   7.286  20.857  0.00  0.00    +0.000 N 
ATOM      2  C   UNL     1       2.455   7.038  19.664  0.00  0.00    +0.000 A 
ATOM      3  N   UNL     1       2.729   8.033  18.814  0.00  0.00    +0.000 NA
ATOM      4  C   UNL     1       3.432   7.716  17.706  0.00  0.00    +0.000 A 
ATOM      5  C   UNL     1       3.870   6.447  17.401  0.00  0.00    +0.000 A 
ATOM      6  N   UNL     1       4.605   6.193  16.232  0.00  0.00    +0.000 NA
ATOM      7  C   UNL     1       4.993   4.969  16.010  0.00  0.00    +0.000 A 
ATOM      8  C   UNL     1       4.703   3.832  17.003  0.00  0.00    +0.000 A 
ATOM      9  O   UNL     1       5.223   2.736  16.829  0.00  0.00    +0.000 OA
ATOM     10  N   UNL     1       3.854   4.139  18.059  0.00  0.00    +0.000 N 
ATOM     11  C   UNL     1       3.490   5.484  18.320  0.00  0.00    +0.000 A 
ATOM     12  N   UNL     1       2.794   5.765  19.446  0.00  0.00    +0.000 NA
ATOM     13  H   UNL     1       1.439   6.395  21.187  0.00  0.00    +0.000 HD
ENDROOT
BRANCH   7  14
ATOM     14  C   UNL     1       5.735   4.672  14.745  0.00  0.00    +0.000 A 
ATOM     15  C   UNL     1       6.938   5.341  14.481  0.00  0.00    +0.000 A 
ATOM     16  C   UNL     1       7.629   5.084  13.298  0.00  0.00    +0.000 A 
ATOM     17  F   UNL     1       8.781   5.724  13.055  0.00  0.00    +0.000 F 
ATOM     18  C   UNL     1       7.146   4.179  12.365  0.00  0.00    +0.000 A 
ATOM     19  C   UNL     1       5.948   3.534  12.626  0.00  0.00    +0.000 A 
ATOM     20  F   UNL     1       5.459   2.664  11.729  0.00  0.00    +0.000 F 
ATOM     21  C   UNL     1       5.234   3.775  13.796  0.00  0.00    +0.000 A 
ENDBRANCH   7  14
BRANCH  10  22
ATOM     22  C   UNL     1       3.439   3.106  18.981  0.00  0.00    +0.000 C 
ATOM     23  C   UNL     1       2.074   2.461  18.887  0.00  0.00    +0.000 C 
ATOM     24  C   UNL     1       3.291   1.666  18.542  0.00  0.00    +0.000 C 
ENDBRANCH  10  22
BRANCH   1  26
ATOM     25  C   UNL     1       0.862   9.099  22.167  0.00  0.00    +0.000 C 
ATOM     26  C   UNL     1       0.847   8.381  20.826  0.00  0.00    +0.000 C 
ENDBRANCH   1  26
TORSDOF 3
ENDMDL
MODEL 2
REMARK VINA RESULT:      -7.8      2.322      3.683
REMARK  Name = 
REMARK  4 active torsions:
REMARK  status: ('A' for Active; 'I' for Inactive)
REMARK    1  A    between atoms: C_1  and  C_2
REMARK    2  A    between atoms: C_2  and  N_3
REMARK    3  A    between atoms: C_9  and  C_10
REMARK    4  A    between atoms: N_20  and  C_21
REMARK                            x       y       z     vdW  Elec       q    Type
REMARK                         _______ _______ _______ _____ _____    ______ ____
ROOT
ATOM      1  N   UNL     1       2.475   4.789  20.979  0.00  0.00    +0.000 N 
ATOM      2  C   UNL     1       2.980   4.584  19.705  0.00  0.00    +0.000 A 
ATOM      3  N   UNL     1       2.269   3.925  18.785  0.00  0.00    +0.000 NA
ATOM      4  C   UNL     1       2.807   3.827  17.551  0.00  0.00    +0.000 A 
ATOM      5  C   UNL     1       4.028   4.351  17.192  0.00  0.00    +0.000 A 
ATOM      6  N   UNL     1       4.521   4.217  15.884  0.00  0.00    +0.000 NA
ATOM      7  C   UNL     1       5.682   4.742  15.613  0.00  0.00    +0.000 A 
ATOM      8  C   UNL     1       6.485   5.525  16.665  0.00  0.00    +0.000 A 
ATOM      9  O   UNL     1       7.491   6.134  16.321  0.00  0.00    +0.000 OA
ATOM     10  N   UNL     1       5.994   5.490  17.965  0.00  0.00    +0.000 N 
ATOM     11  C   UNL     1       4.704   4.967  18.231  0.00  0.00    +0.000 A 
ATOM     12  N   UNL     1       4.193   5.093  19.478  0.00  0.00    +0.000 NA
ATOM     13  H   UNL     1       3.261   5.028  21.573  0.00  0.00    +0.000 HD
ENDROOT
BRANCH   7  14
ATOM     14  C   UNL     1       6.244   4.566  14.238  0.00  0.00    +0.000 A 
ATOM     15  C   UNL     1       5.827   3.477  13.460  0.00  0.00    +0.000 A 
ATOM     16  C   UNL     1       6.356   3.295  12.183  0.00  0.00    +0.000 A 
ATOM     17  F   UNL     1       5.949   2.255  11.444  0.00  0.00    +0.000 F 
ATOM     18  C   UNL     1       7.299   4.169  11.663  0.00  0.00    +0.000 A 
ATOM     19  C   UNL     1       7.719   5.233  12.445  0.00  0.00    +0.000 A 
ATOM     20  F   UNL     1       8.639   6.082  11.963  0.00  0.00    +0.000 F 
ATOM     21  C   UNL     1       7.212   5.437  13.725  0.00  0.00    +0.000 A 
ENDBRANCH   7  14
BRANCH  10  22
ATOM     22  C   UNL     1       6.740   6.106  19.038  0.00  0.00    +0.000 C 
ATOM     23  C   UNL     1       7.936   5.425  19.666  0.00  0.00    +0.000 C 
ATOM     24  C   UNL     1       8.137   6.645  18.825  0.00  0.00    +0.000 C 
ENDBRANCH  10  22
BRANCH   1  26
ATOM     25  C   UNL     1       2.413   2.507  21.795  0.00  0.00    +0.000 C 
ATOM     26  C   UNL     1       1.595   3.748  21.473  0.00  0.00    +0.000 C 
ENDBRANCH   1  26
TORSDOF 3
ENDMDL
MODEL 3
REMARK VINA RESULT:      -7.7      2.357      3.321
REMARK  Name = 
REMARK  4 active torsions:
REMARK  status: ('A' for Active; 'I' for Inactive)
REMARK    1  A    between atoms: C_1  and  C_2
REMARK    2  A    between atoms: C_2  and  N_3
REMARK    3  A    between atoms: C_9  and  C_10
REMARK    4  A    between atoms: N_20  and  C_21
REMARK                            x       y       z     vdW  Elec       q    Type
REMARK                         _______ _______ _______ _____ _____    ______ ____
ROOT
ATOM      1  N   UNL     1       2.353   4.582  20.966  0.00  0.00    +0.000 N 
ATOM      2  C   UNL     1       2.880   4.394  19.698  0.00  0.00    +0.000 A 
ATOM      3  N   UNL     1       2.190   3.738  18.760  0.00  0.00    +0.000 NA
ATOM      4  C   UNL     1       2.749   3.656  17.534  0.00  0.00    +0.000 A 
ATOM      5  C   UNL     1       3.971   4.194  17.200  0.00  0.00    +0.000 A 
ATOM      6  N   UNL     1       4.486   4.077  15.899  0.00  0.00    +0.000 NA
ATOM      7  C   UNL     1       5.647   4.615  15.652  0.00  0.00    +0.000 A 
ATOM      8  C   UNL     1       6.424   5.395  16.724  0.00  0.00    +0.000 A 
ATOM      9  O   UNL     1       7.431   6.017  16.402  0.00  0.00    +0.000 OA
ATOM     10  N   UNL     1       5.913   5.344  18.015  0.00  0.00    +0.000 N 
ATOM     11  C   UNL     1       4.624   4.807  18.255  0.00  0.00    +0.000 A 
ATOM     12  N   UNL     1       4.092   4.917  19.495  0.00  0.00    +0.000 NA
ATOM     13  H   UNL     1       3.127   4.824  21.574  0.00  0.00    +0.000 HD
ENDROOT
BRANCH   7  14
ATOM     14  C   UNL     1       6.232   4.457  14.284  0.00  0.00    +0.000 A 
ATOM     15  C   UNL     1       7.206   5.364  13.846  0.00  0.00    +0.000 A 
ATOM     16  C   UNL     1       7.747   5.235  12.567  0.00  0.00    +0.000 A 
ATOM     17  F   UNL     1       8.682   6.103  12.156  0.00  0.00    +0.000 F 
ATOM     18  C   UNL     1       7.334   4.227  11.709  0.00  0.00    +0.000 A 
ATOM     19  C   UNL     1       6.358   3.345  12.144  0.00  0.00    +0.000 A 
ATOM     20  F   UNL     1       5.937   2.370  11.324  0.00  0.00    +0.000 F 
ATOM     21  C   UNL     1       5.797   3.452  13.413  0.00  0.00    +0.000 A 
ENDBRANCH   7  14
BRANCH  10  22
ATOM     22  C   UNL     1       6.636   5.957  19.106  0.00  0.00    +0.000 C 
ATOM     23  C   UNL     1       7.842   5.292  19.731  0.00  0.00    +0.000 C 
ATOM     24  C   UNL     1       8.022   6.531  18.915  0.00  0.00    +0.000 C 
ENDBRANCH  10  22
BRANCH   1  26
ATOM     25  C   UNL     1       2.306   2.313  21.816  0.00  0.00    +0.000 C 
ATOM     26  C   UNL     1       1.475   3.529  21.436  0.00  0.00    +0.000 C 
ENDBRANCH   1  26
TORSDOF 3
ENDMDL
MODEL 4
REMARK VINA RESULT:      -7.5      0.333      1.681
REMARK  Name = 
REMARK  4 active torsions:
REMARK  status: ('A' for Active; 'I' for Inactive)
REMARK    1  A    between atoms: C_1  and  C_2
REMARK    2  A    between atoms: C_2  and  N_3
REMARK    3  A    between atoms: C_9  and  C_10
REMARK    4  A    between atoms: N_20  and  C_21
REMARK                            x       y       z     vdW  Elec       q    Type
REMARK                         _______ _______ _______ _____ _____    ______ ____
ROOT
ATOM      1  N   UNL     1       1.806   7.464  20.848  0.00  0.00    +0.000 N 
ATOM      2  C   UNL     1       2.462   7.202  19.655  0.00  0.00    +0.000 A 
ATOM      3  N   UNL     1       2.744   8.190  18.799  0.00  0.00    +0.000 NA
ATOM      4  C   UNL     1       3.442   7.859  17.692  0.00  0.00    +0.000 A 
ATOM      5  C   UNL     1       3.868   6.584  17.395  0.00  0.00    +0.000 A 
ATOM      6  N   UNL     1       4.599   6.316  16.226  0.00  0.00    +0.000 NA
ATOM      7  C   UNL     1       4.975   5.087  16.010  0.00  0.00    +0.000 A 
ATOM      8  C   UNL     1       4.675   3.959  17.011  0.00  0.00    +0.000 A 
ATOM      9  O   UNL     1       5.185   2.857  16.843  0.00  0.00    +0.000 OA
ATOM     10  N   UNL     1       3.830   4.281  18.066  0.00  0.00    +0.000 N 
ATOM     11  C   UNL     1       3.480   5.630  18.319  0.00  0.00    +0.000 A 
ATOM     12  N   UNL     1       2.788   5.925  19.445  0.00  0.00    +0.000 NA
ATOM     13  H   UNL     1       1.442   6.579  21.184  0.00  0.00    +0.000 HD
ENDROOT
BRANCH   7  14
ATOM     14  C   UNL     1       5.712   4.776  14.746  0.00  0.00    +0.000 A 
ATOM     15  C   UNL     1       5.168   3.851  13.845  0.00  0.00    +0.000 A 
ATOM     16  C   UNL     1       5.854   3.541  12.671  0.00  0.00    +0.000 A 
ATOM     17  F   UNL     1       5.326   2.660  11.812  0.00  0.00    +0.000 F 
ATOM     18  C   UNL     1       7.076   4.127  12.377  0.00  0.00    +0.000 A 
ATOM     19  C   UNL     1       7.615   5.027  13.281  0.00  0.00    +0.000 A 
ATOM     20  F   UNL     1       8.802   5.594  13.019  0.00  0.00    +0.000 F 
ATOM     21  C   UNL     1       6.955   5.351  14.463  0.00  0.00    +0.000 A 
ENDBRANCH   7  14
BRANCH  10  22
ATOM     22  C   UNL     1       3.407   3.257  18.994  0.00  0.00    +0.000 C 
ATOM     23  C   UNL     1       1.973   2.777  19.046  0.00  0.00    +0.000 C 
ATOM     24  C   UNL     1       3.039   1.866  18.526  0.00  0.00    +0.000 C 
ENDBRANCH  10  22
BRANCH   1  26
ATOM     25  C   UNL     1      -0.393   8.184  21.570  0.00  0.00    +0.000 C 
ATOM     26  C   UNL     1       0.868   8.568  20.812  0.00  0.00    +0.000 C 
ENDBRANCH   1  26
TORSDOF 3
ENDMDL
MODEL 5
REMARK VINA RESULT:      -7.5      2.354      3.379
REMARK  Name = 
REMARK  4 active torsions:
REMARK  status: ('A' for Active; 'I' for Inactive)
REMARK    1  A    between atoms: C_1  and  C_2
REMARK    2  A    between atoms: C_2  and  N_3
REMARK    3  A    between atoms: C_9  and  C_10
REMARK    4  A    between atoms: N_20  and  C_21
REMARK                            x       y       z     vdW  Elec       q    Type
REMARK                         _______ _______ _______ _____ _____    ______ ____
ROOT
ATOM      1  N   UNL     1      -0.188  10.087  20.310  0.00  0.00    +0.000 N 
ATOM      2  C   UNL     1       0.776   9.448  19.546  0.00  0.00    +0.000 A 
ATOM      3  N   UNL     1       1.331  10.058  18.494  0.00  0.00    +0.000 NA
ATOM      4  C   UNL     1       2.307   9.391  17.844  0.00  0.00    +0.000 A 
ATOM      5  C   UNL     1       2.753   8.135  18.191  0.00  0.00    +0.000 A 
ATOM      6  N   UNL     1       3.781   7.504  17.472  0.00  0.00    +0.000 NA
ATOM      7  C   UNL     1       4.158   6.318  17.860  0.00  0.00    +0.000 A 
ATOM      8  C   UNL     1       3.538   5.632  19.088  0.00  0.00    +0.000 A 
ATOM      9  O   UNL     1       4.034   4.591  19.507  0.00  0.00    +0.000 OA
ATOM     10  N   UNL     1       2.437   6.260  19.655  0.00  0.00    +0.000 N 
ATOM     11  C   UNL     1       2.078   7.573  19.261  0.00  0.00    +0.000 A 
ATOM     12  N   UNL     1       1.101   8.215  19.943  0.00  0.00    +0.000 NA
ATOM     13  H   UNL     1      -0.667   9.369  20.842  0.00  0.00    +0.000 HD
ENDROOT
BRANCH   7  14
ATOM     14  C   UNL     1       5.217   5.612  17.076  0.00  0.00    +0.000 A 
ATOM     15  C   UNL     1       4.999   5.337  15.719  0.00  0.00    +0.000 A 
ATOM     16  C   UNL     1       5.973   4.665  14.982  0.00  0.00    +0.000 A 
ATOM     17  F   UNL     1       5.759   4.409  13.685  0.00  0.00    +0.000 F 
ATOM     18  C   UNL     1       7.161   4.253  15.568  0.00  0.00    +0.000 A 
ATOM     19  C   UNL     1       7.363   4.514  16.914  0.00  0.00    +0.000 A 
ATOM     20  F   UNL     1       8.500   4.112  17.500  0.00  0.00    +0.000 F 
ATOM     21  C   UNL     1       6.405   5.178  17.675  0.00  0.00    +0.000 A 
ENDBRANCH   7  14
BRANCH  10  22
ATOM     22  C   UNL     1       1.724   5.632  20.744  0.00  0.00    +0.000 C 
ATOM     23  C   UNL     1       0.826   4.436  20.520  0.00  0.00    +0.000 C 
ATOM     24  C   UNL     1       2.113   4.265  21.262  0.00  0.00    +0.000 C 
ENDBRANCH  10  22
BRANCH   1  26
ATOM     25  C   UNL     1      -1.828  10.267  18.534  0.00  0.00    +0.000 C 
ATOM     26  C   UNL     1      -1.033  11.019  19.590  0.00  0.00    +0.000 C 
ENDBRANCH   1  26
TORSDOF 3
ENDMDL
MODEL 6
REMARK VINA RESULT:      -7.5      2.344      3.113
REMARK  Name = 
REMARK  4 active torsions:
REMARK  status: ('A' for Active; 'I' for Inactive)
REMARK    1  A    between atoms: C_1  and  C_2
REMARK    2  A    between atoms: C_2  and  N_3
REMARK    3  A    between atoms: C_9  and  C_10
REMARK    4  A    between atoms: N_20  and  C_21
REMARK                            x       y       z     vdW  Elec       q    Type
REMARK                         _______ _______ _______ _____ _____    ______ ____
ROOT
ATOM      1  N   UNL     1      -0.108  10.124  20.341  0.00  0.00    +0.000 N 
ATOM      2  C   UNL     1       0.835   9.469  19.565  0.00  0.00    +0.000 A 
ATOM      3  N   UNL     1       1.392  10.072  18.510  0.00  0.00    +0.000 NA
ATOM      4  C   UNL     1       2.348   9.388  17.847  0.00  0.00    +0.000 A 
ATOM      5  C   UNL     1       2.773   8.123  18.185  0.00  0.00    +0.000 A 
ATOM      6  N   UNL     1       3.782   7.475  17.454  0.00  0.00    +0.000 NA
ATOM      7  C   UNL     1       4.138   6.280  17.833  0.00  0.00    +0.000 A 
ATOM      8  C   UNL     1       3.518   5.601  19.065  0.00  0.00    +0.000 A 
ATOM      9  O   UNL     1       3.998   4.549  19.475  0.00  0.00    +0.000 OA
ATOM     10  N   UNL     1       2.435   6.248  19.645  0.00  0.00    +0.000 N 
ATOM     11  C   UNL     1       2.098   7.570  19.260  0.00  0.00    +0.000 A 
ATOM     12  N   UNL     1       1.141   8.228  19.954  0.00  0.00    +0.000 NA
ATOM     13  H   UNL     1      -0.595   9.413  20.875  0.00  0.00    +0.000 HD
ENDROOT
BRANCH   7  14
ATOM     14  C   UNL     1       5.176   5.557  17.035  0.00  0.00    +0.000 A 
ATOM     15  C   UNL     1       6.368   5.160  17.658  0.00  0.00    +0.000 A 
ATOM     16  C   UNL     1       7.349   4.499  16.920  0.00  0.00    +0.000 A 
ATOM     17  F   UNL     1       8.483   4.119  17.523  0.00  0.00    +0.000 F 
ATOM     18  C   UNL     1       7.174   4.229  15.571  0.00  0.00    +0.000 A 
ATOM     19  C   UNL     1       6.000   4.639  14.959  0.00  0.00    +0.000 A 
ATOM     20  F   UNL     1       5.819   4.397  13.652  0.00  0.00    +0.000 F 
ATOM     21  C   UNL     1       5.007   5.305  15.669  0.00  0.00    +0.000 A 
ENDBRANCH   7  14
BRANCH  10  22
ATOM     22  C   UNL     1       1.722   5.630  20.740  0.00  0.00    +0.000 C 
ATOM     23  C   UNL     1       0.831   4.426  20.527  0.00  0.00    +0.000 C 
ATOM     24  C   UNL     1       2.116   4.272  21.276  0.00  0.00    +0.000 C 
ENDBRANCH  10  22
BRANCH   1  26
ATOM     25  C   UNL     1      -1.879  10.326  18.699  0.00  0.00    +0.000 C 
ATOM     26  C   UNL     1      -0.942  11.075  19.633  0.00  0.00    +0.000 C 
ENDBRANCH   1  26
TORSDOF 3
ENDMDL
MODEL 7
REMARK VINA RESULT:      -7.4      4.097      7.761
REMARK  Name = 
REMARK  4 active torsions:
REMARK  status: ('A' for Active; 'I' for Inactive)
REMARK    1  A    between atoms: C_1  and  C_2
REMARK    2  A    between atoms: C_2  and  N_3
REMARK    3  A    between atoms: C_9  and  C_10
REMARK    4  A    between atoms: N_20  and  C_21
REMARK                            x       y       z     vdW  Elec       q    Type
REMARK                         _______ _______ _______ _____ _____    ______ ____
ROOT
ATOM      1  N   UNL     1       5.769   3.981  15.465  0.00  0.00    +0.000 N 
ATOM      2  C   UNL     1       5.124   4.952  16.214  0.00  0.00    +0.000 A 
ATOM      3  N   UNL     1       5.245   6.247  15.905  0.00  0.00    +0.000 NA
ATOM      4  C   UNL     1       4.531   7.122  16.645  0.00  0.00    +0.000 A 
ATOM      5  C   UNL     1       3.705   6.765  17.687  0.00  0.00    +0.000 A 
ATOM      6  N   UNL     1       2.986   7.732  18.408  0.00  0.00    +0.000 NA
ATOM      7  C   UNL     1       2.218   7.323  19.378  0.00  0.00    +0.000 A 
ATOM      8  C   UNL     1       2.057   5.831  19.712  0.00  0.00    +0.000 A 
ATOM      9  O   UNL     1       1.205   5.486  20.523  0.00  0.00    +0.000 OA
ATOM     10  N   UNL     1       2.907   4.956  19.046  0.00  0.00    +0.000 N 
ATOM     11  C   UNL     1       3.691   5.408  17.956  0.00  0.00    +0.000 A 
ATOM     12  N   UNL     1       4.385   4.500  17.231  0.00  0.00    +0.000 NA
ATOM     13  H   UNL     1       5.786   3.137  16.028  0.00  0.00    +0.000 HD
ENDROOT
BRANCH   7  14
ATOM     14  C   UNL     1       1.483   8.343  20.188  0.00  0.00    +0.000 A 
ATOM     15  C   UNL     1       0.778   9.362  19.532  0.00  0.00    +0.000 A 
ATOM     16  C   UNL     1       0.102  10.328  20.277  0.00  0.00    +0.000 A 
ATOM     17  F   UNL     1      -0.573  11.295  19.644  0.00  0.00    +0.000 F 
ATOM     18  C   UNL     1       0.118  10.307  21.664  0.00  0.00    +0.000 A 
ATOM     19  C   UNL     1       0.831   9.307  22.305  0.00  0.00    +0.000 A 
ATOM     20  F   UNL     1       0.867   9.278  23.645  0.00  0.00    +0.000 F 
ATOM     21  C   UNL     1       1.519   8.333  21.587  0.00  0.00    +0.000 A 
ENDBRANCH   7  14
BRANCH  10  22
ATOM     22  C   UNL     1       2.901   3.549  19.375  0.00  0.00    +0.000 C 
ATOM     23  C   UNL     1       4.064   2.897  20.090  0.00  0.00    +0.000 C 
ATOM     24  C   UNL     1       2.762   3.069  20.803  0.00  0.00    +0.000 C 
ENDBRANCH  10  22
BRANCH   1  26
ATOM     25  C   UNL     1       6.916   4.366  13.365  0.00  0.00    +0.000 C 
ATOM     26  C   UNL     1       7.032   4.385  14.881  0.00  0.00    +0.000 C 
ENDBRANCH   1  26
TORSDOF 3
ENDMDL
MODEL 8
REMARK VINA RESULT:      -7.4      1.777      3.804
REMARK  Name = 
REMARK  4 active torsions:
REMARK  status: ('A' for Active; 'I' for Inactive)
REMARK    1  A    between atoms: C_1  and  C_2
REMARK    2  A    between atoms: C_2  and  N_3
REMARK    3  A    between atoms: C_9  and  C_10
REMARK    4  A    between atoms: N_20  and  C_21
REMARK                            x       y       z     vdW  Elec       q    Type
REMARK                         _______ _______ _______ _____ _____    ______ ____
ROOT
ATOM      1  N   UNL     1       2.052   4.053  21.014  0.00  0.00    +0.000 N 
ATOM      2  C   UNL     1       2.819   3.906  19.868  0.00  0.00    +0.000 A 
ATOM      3  N   UNL     1       3.193   2.694  19.447  0.00  0.00    +0.000 NA
ATOM      4  C   UNL     1       3.882   2.635  18.288  0.00  0.00    +0.000 A 
ATOM      5  C   UNL     1       4.222   3.733  17.530  0.00  0.00    +0.000 A 
ATOM      6  N   UNL     1       4.934   3.594  16.327  0.00  0.00    +0.000 NA
ATOM      7  C   UNL     1       5.217   4.675  15.657  0.00  0.00    +0.000 A 
ATOM      8  C   UNL     1       4.759   6.065  16.129  0.00  0.00    +0.000 A 
ATOM      9  O   UNL     1       4.909   7.030  15.388  0.00  0.00    +0.000 OA
ATOM     10  N   UNL     1       4.185   6.128  17.393  0.00  0.00    +0.000 N 
ATOM     11  C   UNL     1       3.831   4.941  18.080  0.00  0.00    +0.000 A 
ATOM     12  N   UNL     1       3.132   5.039  19.235  0.00  0.00    +0.000 NA
ATOM     13  H   UNL     1       2.137   5.021  21.302  0.00  0.00    +0.000 HD
ENDROOT
BRANCH   7  14
ATOM     14  C   UNL     1       6.017   4.549  14.400  0.00  0.00    +0.000 A 
ATOM     15  C   UNL     1       5.621   3.624  13.424  0.00  0.00    +0.000 A 
ATOM     16  C   UNL     1       6.368   3.488  12.255  0.00  0.00    +0.000 A 
ATOM     17  F   UNL     1       5.981   2.605  11.325  0.00  0.00    +0.000 F 
ATOM     18  C   UNL     1       7.508   4.247  12.037  0.00  0.00    +0.000 A 
ATOM     19  C   UNL     1       7.902   5.147  13.014  0.00  0.00    +0.000 A 
ATOM     20  F   UNL     1       9.009   5.881  12.826  0.00  0.00    +0.000 F 
ATOM     21  C   UNL     1       7.179   5.301  14.193  0.00  0.00    +0.000 A 
ENDBRANCH   7  14
BRANCH  10  22
ATOM     22  C   UNL     1       3.824   7.406  17.962  0.00  0.00    +0.000 C 
ATOM     23  C   UNL     1       2.660   8.212  17.428  0.00  0.00    +0.000 C 
ATOM     24  C   UNL     1       2.564   7.582  18.780  0.00  0.00    +0.000 C 
ENDBRANCH  10  22
BRANCH   1  26
ATOM     25  C   UNL     1       1.018   2.223  22.222  0.00  0.00    +0.000 C 
ATOM     26  C   UNL     1       2.277   3.058  22.043  0.00  0.00    +0.000 C 
ENDBRANCH   1  26
TORSDOF 3
ENDMDL
MODEL 9
REMARK VINA RESULT:      -7.3      4.155      7.788
REMARK  Name = 
REMARK  4 active torsions:
REMARK  status: ('A' for Active; 'I' for Inactive)
REMARK    1  A    between atoms: C_1  and  C_2
REMARK    2  A    between atoms: C_2  and  N_3
REMARK    3  A    between atoms: C_9  and  C_10
REMARK    4  A    between atoms: N_20  and  C_21
REMARK                            x       y       z     vdW  Elec       q    Type
REMARK                         _______ _______ _______ _____ _____    ______ ____
ROOT
ATOM      1  N   UNL     1       5.516   3.748  15.665  0.00  0.00    +0.000 N 
ATOM      2  C   UNL     1       4.912   4.764  16.387  0.00  0.00    +0.000 A 
ATOM      3  N   UNL     1       5.064   6.043  16.028  0.00  0.00    +0.000 NA
ATOM      4  C   UNL     1       4.388   6.965  16.746  0.00  0.00    +0.000 A 
ATOM      5  C   UNL     1       3.571   6.671  17.814  0.00  0.00    +0.000 A 
ATOM      6  N   UNL     1       2.891   7.684  18.510  0.00  0.00    +0.000 NA
ATOM      7  C   UNL     1       2.129   7.333  19.507  0.00  0.00    +0.000 A 
ATOM      8  C   UNL     1       1.932   5.860  19.899  0.00  0.00    +0.000 A 
ATOM      9  O   UNL     1       1.085   5.570  20.737  0.00  0.00    +0.000 OA
ATOM     10  N   UNL     1       2.745   4.937  19.253  0.00  0.00    +0.000 N 
ATOM     11  C   UNL     1       3.523   5.325  18.134  0.00  0.00    +0.000 A 
ATOM     12  N   UNL     1       4.178   4.371  17.432  0.00  0.00    +0.000 NA
ATOM     13  H   UNL     1       5.519   2.926  16.259  0.00  0.00    +0.000 HD
ENDROOT
BRANCH   7  14
ATOM     14  C   UNL     1       1.437   8.403  20.290  0.00  0.00    +0.000 A 
ATOM     15  C   UNL     1       1.423   8.330  21.689  0.00  0.00    +0.000 A 
ATOM     16  C   UNL     1       0.767   9.314  22.428  0.00  0.00    +0.000 A 
ATOM     17  F   UNL     1       0.762   9.240  23.766  0.00  0.00    +0.000 F 
ATOM     18  C   UNL     1       0.117  10.368  21.805  0.00  0.00    +0.000 A 
ATOM     19  C   UNL     1       0.121  10.425  20.420  0.00  0.00    +0.000 A 
ATOM     20  F   UNL     1      -0.513  11.431  19.800  0.00  0.00    +0.000 F 
ATOM     21  C   UNL     1       0.763   9.454  19.657  0.00  0.00    +0.000 A 
ENDBRANCH   7  14
BRANCH  10  22
ATOM     22  C   UNL     1       2.706   3.543  19.634  0.00  0.00    +0.000 C 
ATOM     23  C   UNL     1       3.871   2.879  20.333  0.00  0.00    +0.000 C 
ATOM     24  C   UNL     1       2.601   3.121  21.083  0.00  0.00    +0.000 C 
ENDBRANCH  10  22
BRANCH   1  26
ATOM     25  C   UNL     1       6.623   4.076  13.533  0.00  0.00    +0.000 C 
ATOM     26  C   UNL     1       6.780   4.093  15.046  0.00  0.00    +0.000 C 
ENDBRANCH   1  26
TORSDOF 3
ENDMDL
