MODEL 1
REMARK VINA RESULT:      -7.8      0.000      0.000
REMARK  Name = 
REMARK  7 active torsions:
REMARK  status: ('A' for Active; 'I' for Inactive)
REMARK    1  A    between atoms: C_2  and  C_3
REMARK    2  A    between atoms: C_3  and  C_4
REMARK    3  A    between atoms: C_9  and  O_10
REMARK    4  A    between atoms: O_10  and  C_11
REMARK    5  A    between atoms: C_11  and  C_12
REMARK    6  A    between atoms: N_22  and  C_23
REMARK    7  A    between atoms: C_23  and  C_24
REMARK                            x       y       z     vdW  Elec       q    Type
REMARK                         _______ _______ _______ _____ _____    ______ ____
ROOT
ATOM      1  C   UNL     1       5.364   5.583  18.042  0.00  0.00    +0.000 C 
ATOM      2  C   UNL     1       5.005   7.050  18.266  0.00  0.00    +0.000 C 
ATOM      3  C   UNL     1       4.180   7.387  17.030  0.00  0.00    +0.000 C 
ATOM      4  C   UNL     1       4.941   6.663  15.949  0.00  0.00    +0.000 C 
ATOM      5  O   UNL     1       4.990   7.041  14.792  0.00  0.00    +0.000 OA
ATOM      6  N   UNL     1       5.597   5.575  16.524  0.00  0.00    +0.000 N 
ENDROOT
BRANCH   1   7
ATOM      7  C   UNL     1       4.126   4.604  18.371  0.00  0.00    +0.000 A 
ATOM      8  C   UNL     1       3.979   3.557  17.415  0.00  0.00    +0.000 A 
ATOM      9  C   UNL     1       2.799   2.824  17.253  0.00  0.00    +0.000 A 
ATOM     10  C   UNL     1       1.717   3.073  18.063  0.00  0.00    +0.000 A 
ATOM     11  C   UNL     1       1.847   3.988  19.097  0.00  0.00    +0.000 A 
ATOM     12  C   UNL     1       3.042   4.716  19.326  0.00  0.00    +0.000 A 
BRANCH  12  13
ATOM     13  O   UNL     1       3.019   5.539  20.446  0.00  0.00    +0.000 OA
BRANCH  13  14
ATOM     14  C   UNL     1       1.698   6.151  20.774  0.00  0.00    +0.000 C 
BRANCH  14  15
ATOM     15  C   UNL     1       1.437   7.655  20.546  0.00  0.00    +0.000 A 
ATOM     16  C   UNL     1       1.629   8.232  19.253  0.00  0.00    +0.000 A 
ATOM     17  C   UNL     1       1.352   9.586  19.002  0.00  0.00    +0.000 A 
ATOM     18  C   UNL     1       0.881  10.406  20.028  0.00  0.00    +0.000 A 
ATOM     19  C   UNL     1       0.687   9.862  21.296  0.00  0.00    +0.000 A 
ATOM     20  C   UNL     1       0.951   8.506  21.547  0.00  0.00    +0.000 A 
ENDBRANCH  14  15
ENDBRANCH  13  14
ENDBRANCH  12  13
ENDBRANCH   1   7
BRANCH   1  22
ATOM     21  N   UNL     1       7.840   4.940  19.134  0.00  0.00    +0.000 NA
ATOM     22  C   UNL     1       6.717   5.231  18.639  0.00  0.00    +0.000 C 
ENDBRANCH   1  22
BRANCH   6  23
ATOM     23  C   UNL     1       6.844   5.005  15.929  0.00  0.00    +0.000 C 
BRANCH  23  24
ATOM     24  C   UNL     1       6.900   4.577  14.475  0.00  0.00    +0.000 A 
ATOM     25  C   UNL     1       6.009   3.648  13.937  0.00  0.00    +0.000 A 
ATOM     26  C   UNL     1       6.008   3.355  12.570  0.00  0.00    +0.000 A 
ATOM     27  C   UNL     1       6.878   4.011  11.705  0.00  0.00    +0.000 A 
ATOM     28  C   UNL     1       7.742   4.979  12.206  0.00  0.00    +0.000 A 
ATOM     29  C   UNL     1       7.749   5.262  13.575  0.00  0.00    +0.000 A 
ENDBRANCH  23  24
ENDBRANCH   6  23
TORSDOF 7
ENDMDL
MODEL 2
REMARK VINA RESULT:      -7.6      0.293      1.293
REMARK  Name = 
REMARK  7 active torsions:
REMARK  status: ('A' for Active; 'I' for Inactive)
REMARK    1  A    between atoms: C_2  and  C_3
REMARK    2  A    between atoms: C_3  and  C_4
REMARK    3  A    between atoms: C_9  and  O_10
REMARK    4  A    between atoms: O_10  and  C_11
REMARK    5  A    between atoms: C_11  and  C_12
REMARK    6  A    between atoms: N_22  and  C_23
REMARK    7  A    between atoms: C_23  and  C_24
REMARK                            x       y       z     vdW  Elec       q    Type
REMARK                         _______ _______ _______ _____ _____    ______ ____
ROOT
ATOM      1  C   UNL     1       5.527   5.437  17.872  0.00  0.00    +0.000 C 
ATOM      2  C   UNL     1       5.242   6.901  18.203  0.00  0.00    +0.000 C 
ATOM      3  C   UNL     1       4.335   7.335  17.058  0.00  0.00    +0.000 C 
ATOM      4  C   UNL     1       4.981   6.648  15.882  0.00  0.00    +0.000 C 
ATOM      5  O   UNL     1       4.952   7.089  14.746  0.00  0.00    +0.000 OA
ATOM      6  N   UNL     1       5.638   5.508  16.342  0.00  0.00    +0.000 N 
ENDROOT
BRANCH   1   7
ATOM      7  C   UNL     1       4.282   4.484  18.247  0.00  0.00    +0.000 A 
ATOM      8  C   UNL     1       4.104   3.416  17.319  0.00  0.00    +0.000 A 
ATOM      9  C   UNL     1       2.912   2.695  17.197  0.00  0.00    +0.000 A 
ATOM     10  C   UNL     1       1.848   2.977  18.020  0.00  0.00    +0.000 A 
ATOM     11  C   UNL     1       2.009   3.916  19.029  0.00  0.00    +0.000 A 
ATOM     12  C   UNL     1       3.218   4.633  19.218  0.00  0.00    +0.000 A 
BRANCH  12  13
ATOM     13  O   UNL     1       3.225   5.483  20.318  0.00  0.00    +0.000 OA
BRANCH  13  14
ATOM     14  C   UNL     1       1.900   6.041  20.717  0.00  0.00    +0.000 C 
BRANCH  14  15
ATOM     15  C   UNL     1       1.507   7.491  20.365  0.00  0.00    +0.000 A 
ATOM     16  C   UNL     1       0.859   8.318  21.334  0.00  0.00    +0.000 A 
ATOM     17  C   UNL     1       0.534   9.657  21.062  0.00  0.00    +0.000 A 
ATOM     18  C   UNL     1       0.839  10.212  19.818  0.00  0.00    +0.000 A 
ATOM     19  C   UNL     1       1.471   9.422  18.860  0.00  0.00    +0.000 A 
ATOM     20  C   UNL     1       1.808   8.088  19.133  0.00  0.00    +0.000 A 
ENDBRANCH  14  15
ENDBRANCH  13  14
ENDBRANCH  12  13
ENDBRANCH   1   7
BRANCH   1  22
ATOM     21  N   UNL     1       8.055   4.652  18.724  0.00  0.00    +0.000 NA
ATOM     22  C   UNL     1       6.908   5.008  18.338  0.00  0.00    +0.000 C 
ENDBRANCH   1  22
BRANCH   6  23
ATOM     23  C   UNL     1       6.812   4.931  15.618  0.00  0.00    +0.000 C 
BRANCH  23  24
ATOM     24  C   UNL     1       6.745   4.607  14.139  0.00  0.00    +0.000 A 
ATOM     25  C   UNL     1       7.665   5.116  13.222  0.00  0.00    +0.000 A 
ATOM     26  C   UNL     1       7.651   4.712  11.883  0.00  0.00    +0.000 A 
ATOM     27  C   UNL     1       6.734   3.764  11.440  0.00  0.00    +0.000 A 
ATOM     28  C   UNL     1       5.840   3.201  12.343  0.00  0.00    +0.000 A 
ATOM     29  C   UNL     1       5.848   3.614  13.679  0.00  0.00    +0.000 A 
ENDBRANCH  23  24
ENDBRANCH   6  23
TORSDOF 7
ENDMDL
MODEL 3
REMARK VINA RESULT:      -7.3      4.809      9.817
REMARK  Name = 
REMARK  7 active torsions:
REMARK  status: ('A' for Active; 'I' for Inactive)
REMARK    1  A    between atoms: C_2  and  C_3
REMARK    2  A    between atoms: C_3  and  C_4
REMARK    3  A    between atoms: C_9  and  O_10
REMARK    4  A    between atoms: O_10  and  C_11
REMARK    5  A    between atoms: C_11  and  C_12
REMARK    6  A    between atoms: N_22  and  C_23
REMARK    7  A    between atoms: C_23  and  C_24
REMARK                            x       y       z     vdW  Elec       q    Type
REMARK                         _______ _______ _______ _____ _____    ______ ____
ROOT
ATOM      1  C   UNL     1      -0.075  10.796  19.005  0.00  0.00    +0.000 C 
ATOM      2  C   UNL     1       1.308  11.166  18.471  0.00  0.00    +0.000 C 
ATOM      3  C   UNL     1       1.704  12.347  19.349  0.00  0.00    +0.000 C 
ATOM      4  C   UNL     1       0.401  13.098  19.452  0.00  0.00    +0.000 C 
ATOM      5  O   UNL     1       0.330  14.307  19.585  0.00  0.00    +0.000 OA
ATOM      6  N   UNL     1      -0.647  12.190  19.302  0.00  0.00    +0.000 N 
ENDROOT
BRANCH   1   7
ATOM      7  C   UNL     1       0.016   9.978  20.390  0.00  0.00    +0.000 A 
ATOM      8  C   UNL     1      -0.791  10.543  21.421  0.00  0.00    +0.000 A 
ATOM      9  C   UNL     1      -0.608  10.267  22.780  0.00  0.00    +0.000 A 
ATOM     10  C   UNL     1       0.367   9.385  23.178  0.00  0.00    +0.000 A 
ATOM     11  C   UNL     1       1.095   8.705  22.212  0.00  0.00    +0.000 A 
ATOM     12  C   UNL     1       0.904   8.918  20.823  0.00  0.00    +0.000 A 
BRANCH  12  13
ATOM     13  O   UNL     1       1.670   8.103  19.997  0.00  0.00    +0.000 OA
BRANCH  13  14
ATOM     14  C   UNL     1       2.082   6.792  20.580  0.00  0.00    +0.000 C 
BRANCH  14  15
ATOM     15  C   UNL     1       1.745   5.464  19.871  0.00  0.00    +0.000 A 
ATOM     16  C   UNL     1       2.050   5.287  18.486  0.00  0.00    +0.000 A 
ATOM     17  C   UNL     1       1.802   4.073  17.825  0.00  0.00    +0.000 A 
ATOM     18  C   UNL     1       1.239   3.001  18.519  0.00  0.00    +0.000 A 
ATOM     19  C   UNL     1       0.936   3.153  19.870  0.00  0.00    +0.000 A 
ATOM     20  C   UNL     1       1.193   4.361  20.536  0.00  0.00    +0.000 A 
ENDBRANCH  14  15
ENDBRANCH  13  14
ENDBRANCH  12  13
ENDBRANCH   1   7
BRANCH   1  22
ATOM     21  N   UNL     1      -1.721   9.774  17.010  0.00  0.00    +0.000 NA
ATOM     22  C   UNL     1      -0.974  10.238  17.914  0.00  0.00    +0.000 C 
ENDBRANCH   1  22
BRANCH   6  23
ATOM     23  C   UNL     1      -1.984  12.611  18.785  0.00  0.00    +0.000 C 
BRANCH  23  24
ATOM     24  C   UNL     1      -3.237  12.464  19.627  0.00  0.00    +0.000 A 
ATOM     25  C   UNL     1      -3.313  12.935  20.938  0.00  0.00    +0.000 A 
ATOM     26  C   UNL     1      -4.513  12.890  21.653  0.00  0.00    +0.000 A 
ATOM     27  C   UNL     1      -5.673  12.403  21.060  0.00  0.00    +0.000 A 
ATOM     28  C   UNL     1      -5.639  11.976  19.737  0.00  0.00    +0.000 A 
ATOM     29  C   UNL     1      -4.435  12.011  19.027  0.00  0.00    +0.000 A 
ENDBRANCH  23  24
ENDBRANCH   6  23
TORSDOF 7
ENDMDL
MODEL 4
REMARK VINA RESULT:      -7.3      8.288     11.851
REMARK  Name = 
REMARK  7 active torsions:
REMARK  status: ('A' for Active; 'I' for Inactive)
REMARK    1  A    between atoms: C_2  and  C_3
REMARK    2  A    between atoms: C_3  and  C_4
REMARK    3  A    between atoms: C_9  and  O_10
REMARK    4  A    between atoms: O_10  and  C_11
REMARK    5  A    between atoms: C_11  and  C_12
REMARK    6  A    between atoms: N_22  and  C_23
REMARK    7  A    between atoms: C_23  and  C_24
REMARK                            x       y       z     vdW  Elec       q    Type
REMARK                         _______ _______ _______ _____ _____    ______ ____
ROOT
ATOM      1  C   UNL     1      -6.388  12.913  20.511  0.00  0.00    +0.000 C 
ATOM      2  C   UNL     1      -7.817  12.474  20.823  0.00  0.00    +0.000 C 
ATOM      3  C   UNL     1      -7.723  10.954  20.764  0.00  0.00    +0.000 C 
ATOM      4  C   UNL     1      -6.815  10.752  19.577  0.00  0.00    +0.000 C 
ATOM      5  O   UNL     1      -6.870   9.779  18.846  0.00  0.00    +0.000 OA
ATOM      6  N   UNL     1      -5.995  11.872  19.452  0.00  0.00    +0.000 N 
ENDROOT
BRANCH   1   7
ATOM      7  C   UNL     1      -5.414  12.735  21.784  0.00  0.00    +0.000 A 
ATOM      8  C   UNL     1      -6.123  12.655  23.017  0.00  0.00    +0.000 A 
ATOM      9  C   UNL     1      -5.528  12.877  24.263  0.00  0.00    +0.000 A 
ATOM     10  C   UNL     1      -4.185  13.156  24.345  0.00  0.00    +0.000 A 
ATOM     11  C   UNL     1      -3.418  13.117  23.189  0.00  0.00    +0.000 A 
ATOM     12  C   UNL     1      -3.975  12.845  21.913  0.00  0.00    +0.000 A 
BRANCH  12  13
ATOM     13  O   UNL     1      -3.051  12.779  20.876  0.00  0.00    +0.000 OA
BRANCH  13  14
ATOM     14  C   UNL     1      -1.617  12.722  21.286  0.00  0.00    +0.000 C 
BRANCH  14  15
ATOM     15  C   UNL     1      -0.886  11.373  21.443  0.00  0.00    +0.000 A 
ATOM     16  C   UNL     1      -0.862  10.709  22.708  0.00  0.00    +0.000 A 
ATOM     17  C   UNL     1      -0.248   9.456  22.872  0.00  0.00    +0.000 A 
ATOM     18  C   UNL     1       0.364   8.830  21.785  0.00  0.00    +0.000 A 
ATOM     19  C   UNL     1       0.351   9.461  20.544  0.00  0.00    +0.000 A 
ATOM     20  C   UNL     1      -0.272  10.707  20.374  0.00  0.00    +0.000 A 
ENDBRANCH  14  15
ENDBRANCH  13  14
ENDBRANCH  12  13
ENDBRANCH   1   7
BRANCH   1  22
ATOM     21  N   UNL     1      -6.318  15.345  19.164  0.00  0.00    +0.000 NA
ATOM     22  C   UNL     1      -6.349  14.242  19.775  0.00  0.00    +0.000 C 
ENDBRANCH   1  22
BRANCH   6  23
ATOM     23  C   UNL     1      -5.415  12.279  18.136  0.00  0.00    +0.000 C 
BRANCH  23  24
ATOM     24  C   UNL     1      -4.296  11.488  17.489  0.00  0.00    +0.000 A 
ATOM     25  C   UNL     1      -3.387  10.736  18.235  0.00  0.00    +0.000 A 
ATOM     26  C   UNL     1      -2.435   9.925  17.609  0.00  0.00    +0.000 A 
ATOM     27  C   UNL     1      -2.393   9.823  16.222  0.00  0.00    +0.000 A 
ATOM     28  C   UNL     1      -3.320  10.520  15.456  0.00  0.00    +0.000 A 
ATOM     29  C   UNL     1      -4.264  11.339  16.083  0.00  0.00    +0.000 A 
ENDBRANCH  23  24
ENDBRANCH   6  23
TORSDOF 7
ENDMDL
MODEL 5
REMARK VINA RESULT:      -7.2      4.867     10.068
REMARK  Name = 
REMARK  7 active torsions:
REMARK  status: ('A' for Active; 'I' for Inactive)
REMARK    1  A    between atoms: C_2  and  C_3
REMARK    2  A    between atoms: C_3  and  C_4
REMARK    3  A    between atoms: C_9  and  O_10
REMARK    4  A    between atoms: O_10  and  C_11
REMARK    5  A    between atoms: C_11  and  C_12
REMARK    6  A    between atoms: N_22  and  C_23
REMARK    7  A    between atoms: C_23  and  C_24
REMARK                            x       y       z     vdW  Elec       q    Type
REMARK                         _______ _______ _______ _____ _____    ______ ____
ROOT
ATOM      1  C   UNL     1      -0.385  10.740  19.066  0.00  0.00    +0.000 C 
ATOM      2  C   UNL     1       0.892  11.110  18.315  0.00  0.00    +0.000 C 
ATOM      3  C   UNL     1       1.443  12.268  19.138  0.00  0.00    +0.000 C 
ATOM      4  C   UNL     1       0.185  13.027  19.474  0.00  0.00    +0.000 C 
ATOM      5  O   UNL     1       0.152  14.234  19.643  0.00  0.00    +0.000 OA
ATOM      6  N   UNL     1      -0.883  12.131  19.485  0.00  0.00    +0.000 N 
ENDROOT
BRANCH   1   7
ATOM      7  C   UNL     1      -0.073   9.890  20.400  0.00  0.00    +0.000 A 
ATOM      8  C   UNL     1      -0.801  10.353  21.535  0.00  0.00    +0.000 A 
ATOM      9  C   UNL     1      -0.444  10.053  22.853  0.00  0.00    +0.000 A 
ATOM     10  C   UNL     1       0.638   9.244  23.106  0.00  0.00    +0.000 A 
ATOM     11  C   UNL     1       1.305   8.659  22.040  0.00  0.00    +0.000 A 
ATOM     12  C   UNL     1       0.942   8.897  20.690  0.00  0.00    +0.000 A 
BRANCH  12  13
ATOM     13  O   UNL     1       1.673   8.175  19.753  0.00  0.00    +0.000 OA
BRANCH  13  14
ATOM     14  C   UNL     1       2.335   6.938  20.260  0.00  0.00    +0.000 C 
BRANCH  14  15
ATOM     15  C   UNL     1       1.954   5.547  19.710  0.00  0.00    +0.000 A 
ATOM     16  C   UNL     1       1.298   4.595  20.550  0.00  0.00    +0.000 A 
ATOM     17  C   UNL     1       0.893   3.340  20.066  0.00  0.00    +0.000 A 
ATOM     18  C   UNL     1       1.132   2.994  18.736  0.00  0.00    +0.000 A 
ATOM     19  C   UNL     1       1.769   3.908  17.901  0.00  0.00    +0.000 A 
ATOM     20  C   UNL     1       2.165   5.167  18.378  0.00  0.00    +0.000 A 
ENDBRANCH  14  15
ENDBRANCH  13  14
ENDBRANCH  12  13
ENDBRANCH   1   7
BRANCH   1  22
ATOM     21  N   UNL     1      -2.355   9.776  17.356  0.00  0.00    +0.000 NA
ATOM     22  C   UNL     1      -1.462  10.213  18.132  0.00  0.00    +0.000 C 
ENDBRANCH   1  22
BRANCH   6  23
ATOM     23  C   UNL     1      -2.284  12.574  19.209  0.00  0.00    +0.000 C 
BRANCH  23  24
ATOM     24  C   UNL     1      -3.271  12.816  20.334  0.00  0.00    +0.000 A 
ATOM     25  C   UNL     1      -4.625  12.501  20.217  0.00  0.00    +0.000 A 
ATOM     26  C   UNL     1      -5.493  12.626  21.307  0.00  0.00    +0.000 A 
ATOM     27  C   UNL     1      -5.016  13.039  22.547  0.00  0.00    +0.000 A 
ATOM     28  C   UNL     1      -3.662  13.309  22.706  0.00  0.00    +0.000 A 
ATOM     29  C   UNL     1      -2.798  13.194  21.612  0.00  0.00    +0.000 A 
ENDBRANCH  23  24
ENDBRANCH   6  23
TORSDOF 7
ENDMDL
MODEL 6
REMARK VINA RESULT:      -7.1      7.483     11.343
REMARK  Name = 
REMARK  7 active torsions:
REMARK  status: ('A' for Active; 'I' for Inactive)
REMARK    1  A    between atoms: C_2  and  C_3
REMARK    2  A    between atoms: C_3  and  C_4
REMARK    3  A    between atoms: C_9  and  O_10
REMARK    4  A    between atoms: O_10  and  C_11
REMARK    5  A    between atoms: C_11  and  C_12
REMARK    6  A    between atoms: N_22  and  C_23
REMARK    7  A    between atoms: C_23  and  C_24
REMARK                            x       y       z     vdW  Elec       q    Type
REMARK                         _______ _______ _______ _____ _____    ______ ____
ROOT
ATOM      1  C   UNL     1      -0.276  11.465  19.689  0.00  0.00    +0.000 C 
ATOM      2  C   UNL     1       0.788  10.380  19.542  0.00  0.00    +0.000 C 
ATOM      3  C   UNL     1       0.294   9.294  20.490  0.00  0.00    +0.000 C 
ATOM      4  C   UNL     1      -0.194  10.110  21.659  0.00  0.00    +0.000 C 
ATOM      5  O   UNL     1      -0.180   9.712  22.811  0.00  0.00    +0.000 OA
ATOM      6  N   UNL     1      -0.579  11.366  21.192  0.00  0.00    +0.000 N 
ENDROOT
BRANCH   1   7
ATOM      7  C   UNL     1      -1.620  11.103  18.876  0.00  0.00    +0.000 A 
ATOM      8  C   UNL     1      -1.400  10.150  17.839  0.00  0.00    +0.000 A 
ATOM      9  C   UNL     1      -2.284   9.954  16.773  0.00  0.00    +0.000 A 
ATOM     10  C   UNL     1      -3.452  10.676  16.705  0.00  0.00    +0.000 A 
ATOM     11  C   UNL     1      -3.781  11.523  17.754  0.00  0.00    +0.000 A 
ATOM     12  C   UNL     1      -2.936  11.710  18.878  0.00  0.00    +0.000 A 
BRANCH  12  13
ATOM     13  O   UNL     1      -3.454  12.541  19.865  0.00  0.00    +0.000 OA
BRANCH  13  14
ATOM     14  C   UNL     1      -4.926  12.444  20.089  0.00  0.00    +0.000 C 
BRANCH  14  15
ATOM     15  C   UNL     1      -5.640  13.360  21.105  0.00  0.00    +0.000 A 
ATOM     16  C   UNL     1      -6.675  12.840  21.942  0.00  0.00    +0.000 A 
ATOM     17  C   UNL     1      -7.309  13.635  22.911  0.00  0.00    +0.000 A 
ATOM     18  C   UNL     1      -6.936  14.969  23.073  0.00  0.00    +0.000 A 
ATOM     19  C   UNL     1      -5.928  15.495  22.268  0.00  0.00    +0.000 A 
ATOM     20  C   UNL     1      -5.285  14.700  21.307  0.00  0.00    +0.000 A 
ENDBRANCH  14  15
ENDBRANCH  13  14
ENDBRANCH  12  13
ENDBRANCH   1   7
BRANCH   1  22
ATOM     21  N   UNL     1       0.785  14.014  19.354  0.00  0.00    +0.000 NA
ATOM     22  C   UNL     1       0.304  12.858  19.506  0.00  0.00    +0.000 C 
ENDBRANCH   1  22
BRANCH   6  23
ATOM     23  C   UNL     1      -0.558  12.573  22.073  0.00  0.00    +0.000 C 
BRANCH  23  24
ATOM     24  C   UNL     1      -1.764  12.965  22.903  0.00  0.00    +0.000 A 
ATOM     25  C   UNL     1      -2.735  12.039  23.289  0.00  0.00    +0.000 A 
ATOM     26  C   UNL     1      -3.777  12.401  24.149  0.00  0.00    +0.000 A 
ATOM     27  C   UNL     1      -3.852  13.690  24.667  0.00  0.00    +0.000 A 
ATOM     28  C   UNL     1      -2.869  14.618  24.340  0.00  0.00    +0.000 A 
ATOM     29  C   UNL     1      -1.834  14.258  23.472  0.00  0.00    +0.000 A 
ENDBRANCH  23  24
ENDBRANCH   6  23
TORSDOF 7
ENDMDL
MODEL 7
REMARK VINA RESULT:      -7.1      7.543     11.444
REMARK  Name = 
REMARK  7 active torsions:
REMARK  status: ('A' for Active; 'I' for Inactive)
REMARK    1  A    between atoms: C_2  and  C_3
REMARK    2  A    between atoms: C_3  and  C_4
REMARK    3  A    between atoms: C_9  and  O_10
REMARK    4  A    between atoms: O_10  and  C_11
REMARK    5  A    between atoms: C_11  and  C_12
REMARK    6  A    between atoms: N_22  and  C_23
REMARK    7  A    between atoms: C_23  and  C_24
REMARK                            x       y       z     vdW  Elec       q    Type
REMARK                         _______ _______ _______ _____ _____    ______ ____
ROOT
ATOM      1  C   UNL     1      -0.457  12.094  19.300  0.00  0.00    +0.000 C 
ATOM      2  C   UNL     1       0.761  11.293  18.846  0.00  0.00    +0.000 C 
ATOM      3  C   UNL     1       0.750  10.097  19.791  0.00  0.00    +0.000 C 
ATOM      4  C   UNL     1       0.368  10.746  21.097  0.00  0.00    +0.000 C 
ATOM      5  O   UNL     1       0.730  10.332  22.184  0.00  0.00    +0.000 OA
ATOM      6  N   UNL     1      -0.383  11.888  20.821  0.00  0.00    +0.000 N 
ENDROOT
BRANCH   1   7
ATOM      7  C   UNL     1      -1.834  11.447  18.767  0.00  0.00    +0.000 A 
ATOM      8  C   UNL     1      -1.629  10.473  17.747  0.00  0.00    +0.000 A 
ATOM      9  C   UNL     1      -2.636  10.052  16.872  0.00  0.00    +0.000 A 
ATOM     10  C   UNL     1      -3.910  10.554  16.995  0.00  0.00    +0.000 A 
ATOM     11  C   UNL     1      -4.198  11.405  18.052  0.00  0.00    +0.000 A 
ATOM     12  C   UNL     1      -3.217  11.816  18.990  0.00  0.00    +0.000 A 
BRANCH  12  13
ATOM     13  O   UNL     1      -3.696  12.614  20.023  0.00  0.00    +0.000 OA
BRANCH  13  14
ATOM     14  C   UNL     1      -5.181  12.681  20.156  0.00  0.00    +0.000 C 
BRANCH  14  15
ATOM     15  C   UNL     1      -5.842  13.332  21.389  0.00  0.00    +0.000 A 
ATOM     16  C   UNL     1      -5.613  14.711  21.687  0.00  0.00    +0.000 A 
ATOM     17  C   UNL     1      -6.239  15.345  22.773  0.00  0.00    +0.000 A 
ATOM     18  C   UNL     1      -7.107  14.627  23.596  0.00  0.00    +0.000 A 
ATOM     19  C   UNL     1      -7.345  13.282  23.322  0.00  0.00    +0.000 A 
ATOM     20  C   UNL     1      -6.730  12.649  22.231  0.00  0.00    +0.000 A 
ENDBRANCH  14  15
ENDBRANCH  13  14
ENDBRANCH  12  13
ENDBRANCH   1   7
BRANCH   1  22
ATOM     21  N   UNL     1      -0.096  14.829  18.946  0.00  0.00    +0.000 NA
ATOM     22  C   UNL     1      -0.260  13.589  19.106  0.00  0.00    +0.000 C 
ENDBRANCH   1  22
BRANCH   6  23
ATOM     23  C   UNL     1      -0.434  13.043  21.768  0.00  0.00    +0.000 C 
BRANCH  23  24
ATOM     24  C   UNL     1      -1.520  13.152  22.821  0.00  0.00    +0.000 A 
ATOM     25  C   UNL     1      -1.814  14.354  23.466  0.00  0.00    +0.000 A 
ATOM     26  C   UNL     1      -2.894  14.454  24.349  0.00  0.00    +0.000 A 
ATOM     27  C   UNL     1      -3.723  13.361  24.581  0.00  0.00    +0.000 A 
ATOM     28  C   UNL     1      -3.485  12.166  23.911  0.00  0.00    +0.000 A 
ATOM     29  C   UNL     1      -2.398  12.064  23.037  0.00  0.00    +0.000 A 
ENDBRANCH  23  24
ENDBRANCH   6  23
TORSDOF 7
ENDMDL
MODEL 8
REMARK VINA RESULT:      -7.0      4.894     10.362
REMARK  Name = 
REMARK  7 active torsions:
REMARK  status: ('A' for Active; 'I' for Inactive)
REMARK    1  A    between atoms: C_2  and  C_3
REMARK    2  A    between atoms: C_3  and  C_4
REMARK    3  A    between atoms: C_9  and  O_10
REMARK    4  A    between atoms: O_10  and  C_11
REMARK    5  A    between atoms: C_11  and  C_12
REMARK    6  A    between atoms: N_22  and  C_23
REMARK    7  A    between atoms: C_23  and  C_24
REMARK                            x       y       z     vdW  Elec       q    Type
REMARK                         _______ _______ _______ _____ _____    ______ ____
ROOT
ATOM      1  C   UNL     1      -0.591  10.986  19.188  0.00  0.00    +0.000 C 
ATOM      2  C   UNL     1       0.600  11.683  18.534  0.00  0.00    +0.000 C 
ATOM      3  C   UNL     1       0.918  12.802  19.519  0.00  0.00    +0.000 C 
ATOM      4  C   UNL     1      -0.463  13.263  19.910  0.00  0.00    +0.000 C 
ATOM      5  O   UNL     1      -0.723  14.409  20.234  0.00  0.00    +0.000 OA
ATOM      6  N   UNL     1      -1.345  12.192  19.768  0.00  0.00    +0.000 N 
ENDROOT
BRANCH   1   7
ATOM      7  C   UNL     1      -0.136  10.037  20.408  0.00  0.00    +0.000 A 
ATOM      8  C   UNL     1      -0.768  10.377  21.640  0.00  0.00    +0.000 A 
ATOM      9  C   UNL     1      -0.283   9.977  22.889  0.00  0.00    +0.000 A 
ATOM     10  C   UNL     1       0.838   9.186  22.973  0.00  0.00    +0.000 A 
ATOM     11  C   UNL     1       1.418   8.716  21.803  0.00  0.00    +0.000 A 
ATOM     12  C   UNL     1       0.926   9.057  20.517  0.00  0.00    +0.000 A 
BRANCH  12  13
ATOM     13  O   UNL     1       1.586   8.442  19.459  0.00  0.00    +0.000 OA
BRANCH  13  14
ATOM     14  C   UNL     1       2.430   7.265  19.816  0.00  0.00    +0.000 C 
BRANCH  14  15
ATOM     15  C   UNL     1       1.951   5.825  19.535  0.00  0.00    +0.000 A 
ATOM     16  C   UNL     1       2.061   5.271  18.222  0.00  0.00    +0.000 A 
ATOM     17  C   UNL     1       1.681   3.948  17.945  0.00  0.00    +0.000 A 
ATOM     18  C   UNL     1       1.175   3.139  18.963  0.00  0.00    +0.000 A 
ATOM     19  C   UNL     1       1.060   3.659  20.250  0.00  0.00    +0.000 A 
ATOM     20  C   UNL     1       1.451   4.978  20.532  0.00  0.00    +0.000 A 
ENDBRANCH  14  15
ENDBRANCH  13  14
ENDBRANCH  12  13
ENDBRANCH   1   7
BRANCH   1  22
ATOM     21  N   UNL     1      -2.332   9.914  17.302  0.00  0.00    +0.000 NA
ATOM     22  C   UNL     1      -1.543  10.400  18.157  0.00  0.00    +0.000 C 
ENDBRANCH   1  22
BRANCH   6  23
ATOM     23  C   UNL     1      -2.801  12.402  19.506  0.00  0.00    +0.000 C 
BRANCH  23  24
ATOM     24  C   UNL     1      -3.759  12.764  20.624  0.00  0.00    +0.000 A 
ATOM     25  C   UNL     1      -3.408  12.654  21.971  0.00  0.00    +0.000 A 
ATOM     26  C   UNL     1      -4.267  13.102  22.979  0.00  0.00    +0.000 A 
ATOM     27  C   UNL     1      -5.482  13.699  22.662  0.00  0.00    +0.000 A 
ATOM     28  C   UNL     1      -5.834  13.869  21.327  0.00  0.00    +0.000 A 
ATOM     29  C   UNL     1      -4.979  13.411  20.320  0.00  0.00    +0.000 A 
ENDBRANCH  23  24
ENDBRANCH   6  23
TORSDOF 7
ENDMDL
MODEL 9
REMARK VINA RESULT:      -7.0      4.710      9.372
REMARK  Name = 
REMARK  7 active torsions:
REMARK  status: ('A' for Active; 'I' for Inactive)
REMARK    1  A    between atoms: C_2  and  C_3
REMARK    2  A    between atoms: C_3  and  C_4
REMARK    3  A    between atoms: C_9  and  O_10
REMARK    4  A    between atoms: O_10  and  C_11
REMARK    5  A    between atoms: C_11  and  C_12
REMARK    6  A    between atoms: N_22  and  C_23
REMARK    7  A    between atoms: C_23  and  C_24
REMARK                            x       y       z     vdW  Elec       q    Type
REMARK                         _______ _______ _______ _____ _____    ______ ____
ROOT
ATOM      1  C   UNL     1      -0.013  10.211  18.703  0.00  0.00    +0.000 C 
ATOM      2  C   UNL     1       1.065   9.606  17.807  0.00  0.00    +0.000 C 
ATOM      3  C   UNL     1       2.310  10.393  18.198  0.00  0.00    +0.000 C 
ATOM      4  C   UNL     1       1.754  11.786  18.349  0.00  0.00    +0.000 C 
ATOM      5  O   UNL     1       2.401  12.795  18.135  0.00  0.00    +0.000 OA
ATOM      6  N   UNL     1       0.406  11.689  18.694  0.00  0.00    +0.000 N 
ENDROOT
BRANCH   1   7
ATOM      7  C   UNL     1       0.087   9.665  20.217  0.00  0.00    +0.000 A 
ATOM      8  C   UNL     1      -0.724  10.403  21.127  0.00  0.00    +0.000 A 
ATOM      9  C   UNL     1      -0.536  10.386  22.513  0.00  0.00    +0.000 A 
ATOM     10  C   UNL     1       0.448   9.601  23.065  0.00  0.00    +0.000 A 
ATOM     11  C   UNL     1       1.180   8.761  22.239  0.00  0.00    +0.000 A 
ATOM     12  C   UNL     1       0.986   8.711  20.835  0.00  0.00    +0.000 A 
BRANCH  12  13
ATOM     13  O   UNL     1       1.758   7.765  20.172  0.00  0.00    +0.000 OA
BRANCH  13  14
ATOM     14  C   UNL     1       1.813   6.414  20.804  0.00  0.00    +0.000 C 
BRANCH  14  15
ATOM     15  C   UNL     1       1.614   5.133  19.967  0.00  0.00    +0.000 A 
ATOM     16  C   UNL     1       2.032   5.091  18.601  0.00  0.00    +0.000 A 
ATOM     17  C   UNL     1       1.910   3.925  17.828  0.00  0.00    +0.000 A 
ATOM     18  C   UNL     1       1.365   2.769  18.387  0.00  0.00    +0.000 A 
ATOM     19  C   UNL     1       0.953   2.789  19.718  0.00  0.00    +0.000 A 
ATOM     20  C   UNL     1       1.084   3.949  20.497  0.00  0.00    +0.000 A 
ENDBRANCH  14  15
ENDBRANCH  13  14
ENDBRANCH  12  13
ENDBRANCH   1   7
BRANCH   1  22
ATOM     21  N   UNL     1      -2.513  10.185  17.486  0.00  0.00    +0.000 NA
ATOM     22  C   UNL     1      -1.380  10.197  18.038  0.00  0.00    +0.000 C 
ENDBRANCH   1  22
BRANCH   6  23
ATOM     23  C   UNL     1      -0.569  12.774  18.370  0.00  0.00    +0.000 C 
BRANCH  23  24
ATOM     24  C   UNL     1      -0.686  14.013  19.235  0.00  0.00    +0.000 A 
ATOM     25  C   UNL     1      -0.196  15.255  18.829  0.00  0.00    +0.000 A 
ATOM     26  C   UNL     1      -0.417  16.405  19.594  0.00  0.00    +0.000 A 
ATOM     27  C   UNL     1      -1.163  16.342  20.767  0.00  0.00    +0.000 A 
ATOM     28  C   UNL     1      -1.709  15.128  21.168  0.00  0.00    +0.000 A 
ATOM     29  C   UNL     1      -1.477  13.977  20.408  0.00  0.00    +0.000 A 
ENDBRANCH  23  24
ENDBRANCH   6  23
TORSDOF 7
ENDMDL
