MODEL 1
REMARK VINA RESULT:      -8.6      0.000      0.000
REMARK  Name = 
REMARK  2 active torsions:
REMARK  status: ('A' for Active; 'I' for Inactive)
REMARK    1  A    between atoms: C_5  and  O_6
REMARK    2  A    between atoms: O_6  and  C_7
REMARK                            x       y       z     vdW  Elec       q    Type
REMARK                         _______ _______ _______ _____ _____    ______ ____
ROOT
ATOM      1  C   UNL     1       3.474   4.710  19.463  0.00  0.00    +0.000 A 
ATOM      2  C   UNL     1       4.697   4.601  18.761  0.00  0.00    +0.000 A 
ATOM      3  C   UNL     1       5.867   5.126  19.295  0.00  0.00    +0.000 A 
ATOM      4  C   UNL     1       6.662   5.754  18.390  0.00  0.00    +0.000 A 
ATOM      5  C   UNL     1       6.467   5.578  17.048  0.00  0.00    +0.000 A 
ATOM      6  C   UNL     1       5.551   4.641  16.580  0.00  0.00    +0.000 A 
ATOM      7  C   UNL     1       4.620   4.091  17.472  0.00  0.00    +0.000 A 
ATOM      8  N   UNL     1       3.635   3.268  17.061  0.00  0.00    +0.000 NA
ATOM      9  C   UNL     1       2.637   3.089  17.964  0.00  0.00    +0.000 A 
ATOM     10  O   UNL     1       1.547   2.303  17.764  0.00  0.00    +0.000 OA
ATOM     11  C   UNL     1       0.662   2.566  18.776  0.00  0.00    +0.000 A 
ATOM     12  C   UNL     1       1.157   3.537  19.614  0.00  0.00    +0.000 A 
ATOM     13  C   UNL     1       2.455   3.822  19.130  0.00  0.00    +0.000 A 
ATOM     14  O   UNL     1       7.248   6.428  16.321  0.00  0.00    +0.000 OA
ATOM     15  C   UNL     1       7.726   7.299  17.378  0.00  0.00    +0.000 C 
ATOM     16  O   UNL     1       7.599   6.688  18.680  0.00  0.00    +0.000 OA
ENDROOT
BRANCH   1  17
ATOM     17  O   UNL     1       3.261   5.892  20.178  0.00  0.00    +0.000 OA
BRANCH  17  22
ATOM     18  C   UNL     1       2.236   8.388  17.581  0.00  0.00    +0.000 A 
ATOM     19  C   UNL     1       1.365   9.098  18.386  0.00  0.00    +0.000 A 
ATOM     20  N   UNL     1       1.218   8.866  19.706  0.00  0.00    +0.000 NA
ATOM     21  C   UNL     1       1.927   7.829  20.224  0.00  0.00    +0.000 A 
ATOM     22  C   UNL     1       2.757   6.996  19.491  0.00  0.00    +0.000 A 
ATOM     23  C   UNL     1       2.979   7.348  18.153  0.00  0.00    +0.000 A 
ENDBRANCH  17  22
ENDBRANCH   1  17
TORSDOF 2
ENDMDL
MODEL 2
REMARK VINA RESULT:      -8.5      1.423      4.879
REMARK  Name = 
REMARK  2 active torsions:
REMARK  status: ('A' for Active; 'I' for Inactive)
REMARK    1  A    between atoms: C_5  and  O_6
REMARK    2  A    between atoms: O_6  and  C_7
REMARK                            x       y       z     vdW  Elec       q    Type
REMARK                         _______ _______ _______ _____ _____    ______ ____
ROOT
ATOM      1  C   UNL     1       4.646   5.792  17.426  0.00  0.00    +0.000 A 
ATOM      2  C   UNL     1       4.305   4.476  17.819  0.00  0.00    +0.000 A 
ATOM      3  C   UNL     1       3.249   3.809  17.211  0.00  0.00    +0.000 A 
ATOM      4  C   UNL     1       2.471   3.097  18.068  0.00  0.00    +0.000 A 
ATOM      5  C   UNL     1       2.904   2.813  19.333  0.00  0.00    +0.000 A 
ATOM      6  C   UNL     1       4.205   3.118  19.724  0.00  0.00    +0.000 A 
ATOM      7  C   UNL     1       4.974   3.976  18.928  0.00  0.00    +0.000 A 
ATOM      8  N   UNL     1       6.195   4.401  19.308  0.00  0.00    +0.000 NA
ATOM      9  C   UNL     1       6.664   5.465  18.606  0.00  0.00    +0.000 A 
ATOM     10  O   UNL     1       7.869   6.058  18.816  0.00  0.00    +0.000 OA
ATOM     11  C   UNL     1       7.881   7.225  18.100  0.00  0.00    +0.000 A 
ATOM     12  C   UNL     1       6.683   7.410  17.451  0.00  0.00    +0.000 A 
ATOM     13  C   UNL     1       5.928   6.243  17.722  0.00  0.00    +0.000 A 
ATOM     14  O   UNL     1       1.910   2.251  20.080  0.00  0.00    +0.000 OA
ATOM     15  C   UNL     1       0.777   2.473  19.201  0.00  0.00    +0.000 C 
ATOM     16  O   UNL     1       1.190   2.721  17.841  0.00  0.00    +0.000 OA
ENDROOT
BRANCH   1  17
ATOM     17  O   UNL     1       3.589   6.642  17.087  0.00  0.00    +0.000 OA
BRANCH  17  22
ATOM     18  C   UNL     1       1.964   7.433  20.367  0.00  0.00    +0.000 A 
ATOM     19  C   UNL     1       1.493   8.682  20.007  0.00  0.00    +0.000 A 
ATOM     20  N   UNL     1       1.582   9.177  18.757  0.00  0.00    +0.000 NA
ATOM     21  C   UNL     1       2.237   8.411  17.845  0.00  0.00    +0.000 A 
ATOM     22  C   UNL     1       2.827   7.187  18.119  0.00  0.00    +0.000 A 
ATOM     23  C   UNL     1       2.601   6.653  19.395  0.00  0.00    +0.000 A 
ENDBRANCH  17  22
ENDBRANCH   1  17
TORSDOF 2
ENDMDL
MODEL 3
REMARK VINA RESULT:      -8.2      0.636      1.011
REMARK  Name = 
REMARK  2 active torsions:
REMARK  status: ('A' for Active; 'I' for Inactive)
REMARK    1  A    between atoms: C_5  and  O_6
REMARK    2  A    between atoms: O_6  and  C_7
REMARK                            x       y       z     vdW  Elec       q    Type
REMARK                         _______ _______ _______ _____ _____    ______ ____
ROOT
ATOM      1  C   UNL     1       3.541   4.782  19.431  0.00  0.00    +0.000 A 
ATOM      2  C   UNL     1       4.769   4.661  18.738  0.00  0.00    +0.000 A 
ATOM      3  C   UNL     1       5.936   5.192  19.273  0.00  0.00    +0.000 A 
ATOM      4  C   UNL     1       6.738   5.806  18.364  0.00  0.00    +0.000 A 
ATOM      5  C   UNL     1       6.551   5.610  17.023  0.00  0.00    +0.000 A 
ATOM      6  C   UNL     1       5.636   4.669  16.563  0.00  0.00    +0.000 A 
ATOM      7  C   UNL     1       4.698   4.134  17.456  0.00  0.00    +0.000 A 
ATOM      8  N   UNL     1       3.715   3.307  17.051  0.00  0.00    +0.000 NA
ATOM      9  C   UNL     1       2.711   3.143  17.950  0.00  0.00    +0.000 A 
ATOM     10  O   UNL     1       1.620   2.356  17.755  0.00  0.00    +0.000 OA
ATOM     11  C   UNL     1       0.730   2.634  18.757  0.00  0.00    +0.000 A 
ATOM     12  C   UNL     1       1.221   3.616  19.585  0.00  0.00    +0.000 A 
ATOM     13  C   UNL     1       2.523   3.892  19.104  0.00  0.00    +0.000 A 
ATOM     14  O   UNL     1       7.338   6.449  16.289  0.00  0.00    +0.000 OA
ATOM     15  C   UNL     1       7.811   7.334  17.337  0.00  0.00    +0.000 C 
ATOM     16  O   UNL     1       7.675   6.742  18.646  0.00  0.00    +0.000 OA
ENDROOT
BRANCH   1  17
ATOM     17  O   UNL     1       3.327   5.975  20.129  0.00  0.00    +0.000 OA
BRANCH  17  22
ATOM     18  C   UNL     1       1.290   8.990  19.244  0.00  0.00    +0.000 A 
ATOM     19  C   UNL     1       1.769   9.126  17.954  0.00  0.00    +0.000 A 
ATOM     20  N   UNL     1       2.593   8.232  17.371  0.00  0.00    +0.000 NA
ATOM     21  C   UNL     1       3.008   7.194  18.142  0.00  0.00    +0.000 A 
ATOM     22  C   UNL     1       2.664   7.011  19.472  0.00  0.00    +0.000 A 
ATOM     23  C   UNL     1       1.708   7.889  20.000  0.00  0.00    +0.000 A 
ENDBRANCH  17  22
ENDBRANCH   1  17
TORSDOF 2
ENDMDL
MODEL 4
REMARK VINA RESULT:      -8.1      1.460      4.857
REMARK  Name = 
REMARK  2 active torsions:
REMARK  status: ('A' for Active; 'I' for Inactive)
REMARK    1  A    between atoms: C_5  and  O_6
REMARK    2  A    between atoms: O_6  and  C_7
REMARK                            x       y       z     vdW  Elec       q    Type
REMARK                         _______ _______ _______ _____ _____    ______ ____
ROOT
ATOM      1  C   UNL     1       4.669   5.705  17.358  0.00  0.00    +0.000 A 
ATOM      2  C   UNL     1       4.347   4.396  17.788  0.00  0.00    +0.000 A 
ATOM      3  C   UNL     1       3.325   3.683  17.175  0.00  0.00    +0.000 A 
ATOM      4  C   UNL     1       2.539   2.983  18.034  0.00  0.00    +0.000 A 
ATOM      5  C   UNL     1       2.942   2.754  19.321  0.00  0.00    +0.000 A 
ATOM      6  C   UNL     1       4.223   3.103  19.737  0.00  0.00    +0.000 A 
ATOM      7  C   UNL     1       4.995   3.951  18.932  0.00  0.00    +0.000 A 
ATOM      8  N   UNL     1       6.195   4.418  19.331  0.00  0.00    +0.000 NA
ATOM      9  C   UNL     1       6.659   5.468  18.605  0.00  0.00    +0.000 A 
ATOM     10  O   UNL     1       7.844   6.097  18.828  0.00  0.00    +0.000 OA
ATOM     11  C   UNL     1       7.849   7.238  18.071  0.00  0.00    +0.000 A 
ATOM     12  C   UNL     1       6.667   7.371  17.383  0.00  0.00    +0.000 A 
ATOM     13  C   UNL     1       5.932   6.197  17.674  0.00  0.00    +0.000 A 
ATOM     14  O   UNL     1       1.940   2.194  20.058  0.00  0.00    +0.000 OA
ATOM     15  C   UNL     1       0.828   2.358  19.141  0.00  0.00    +0.000 C 
ATOM     16  O   UNL     1       1.274   2.569  17.785  0.00  0.00    +0.000 OA
ENDROOT
BRANCH   1  17
ATOM     17  O   UNL     1       3.603   6.517  16.960  0.00  0.00    +0.000 OA
BRANCH  17  22
ATOM     18  C   UNL     1       1.714   9.158  18.826  0.00  0.00    +0.000 A 
ATOM     19  C   UNL     1       1.509   8.417  19.975  0.00  0.00    +0.000 A 
ATOM     20  N   UNL     1       2.054   7.201  20.181  0.00  0.00    +0.000 NA
ATOM     21  C   UNL     1       2.777   6.678  19.157  0.00  0.00    +0.000 A 
ATOM     22  C   UNL     1       2.969   7.293  17.930  0.00  0.00    +0.000 A 
ATOM     23  C   UNL     1       2.495   8.606  17.804  0.00  0.00    +0.000 A 
ENDBRANCH  17  22
ENDBRANCH   1  17
TORSDOF 2
ENDMDL
MODEL 5
REMARK VINA RESULT:      -8.0      2.355      5.200
REMARK  Name = 
REMARK  2 active torsions:
REMARK  status: ('A' for Active; 'I' for Inactive)
REMARK    1  A    between atoms: C_5  and  O_6
REMARK    2  A    between atoms: O_6  and  C_7
REMARK                            x       y       z     vdW  Elec       q    Type
REMARK                         _______ _______ _______ _____ _____    ______ ____
ROOT
ATOM      1  C   UNL     1       3.829   5.619  18.549  0.00  0.00    +0.000 A 
ATOM      2  C   UNL     1       2.691   6.451  18.670  0.00  0.00    +0.000 A 
ATOM      3  C   UNL     1       2.397   7.391  17.691  0.00  0.00    +0.000 A 
ATOM      4  C   UNL     1       1.970   8.586  18.175  0.00  0.00    +0.000 A 
ATOM      5  C   UNL     1       1.562   8.708  19.474  0.00  0.00    +0.000 A 
ATOM      6  C   UNL     1       1.435   7.586  20.288  0.00  0.00    +0.000 A 
ATOM      7  C   UNL     1       2.002   6.375  19.873  0.00  0.00    +0.000 A 
ATOM      8  N   UNL     1       2.015   5.283  20.664  0.00  0.00    +0.000 NA
ATOM      9  C   UNL     1       2.874   4.310  20.266  0.00  0.00    +0.000 A 
ATOM     10  O   UNL     1       3.050   3.125  20.909  0.00  0.00    +0.000 OA
ATOM     11  C   UNL     1       4.153   2.524  20.364  0.00  0.00    +0.000 A 
ATOM     12  C   UNL     1       4.711   3.321  19.392  0.00  0.00    +0.000 A 
ATOM     13  C   UNL     1       3.847   4.437  19.283  0.00  0.00    +0.000 A 
ATOM     14  O   UNL     1       1.346  10.015  19.802  0.00  0.00    +0.000 OA
ATOM     15  C   UNL     1       1.919  10.666  18.639  0.00  0.00    +0.000 C 
ATOM     16  O   UNL     1       2.023   9.768  17.514  0.00  0.00    +0.000 OA
ENDROOT
BRANCH   1  17
ATOM     17  O   UNL     1       4.972   6.194  17.987  0.00  0.00    +0.000 OA
BRANCH  17  22
ATOM     18  C   UNL     1       5.564   4.389  14.760  0.00  0.00    +0.000 A 
ATOM     19  C   UNL     1       6.878   4.788  14.599  0.00  0.00    +0.000 A 
ATOM     20  N   UNL     1       7.561   5.483  15.530  0.00  0.00    +0.000 NA
ATOM     21  C   UNL     1       6.871   5.853  16.641  0.00  0.00    +0.000 A 
ATOM     22  C   UNL     1       5.530   5.586  16.862  0.00  0.00    +0.000 A 
ATOM     23  C   UNL     1       4.892   4.754  15.932  0.00  0.00    +0.000 A 
ENDBRANCH  17  22
ENDBRANCH   1  17
TORSDOF 2
ENDMDL
MODEL 6
REMARK VINA RESULT:      -8.0      2.978      5.439
REMARK  Name = 
REMARK  2 active torsions:
REMARK  status: ('A' for Active; 'I' for Inactive)
REMARK    1  A    between atoms: C_5  and  O_6
REMARK    2  A    between atoms: O_6  and  C_7
REMARK                            x       y       z     vdW  Elec       q    Type
REMARK                         _______ _______ _______ _____ _____    ______ ____
ROOT
ATOM      1  C   UNL     1       5.368   4.258  16.714  0.00  0.00    +0.000 A 
ATOM      2  C   UNL     1       5.629   4.614  15.370  0.00  0.00    +0.000 A 
ATOM      3  C   UNL     1       4.704   4.331  14.373  0.00  0.00    +0.000 A 
ATOM      4  C   UNL     1       5.253   3.880  13.214  0.00  0.00    +0.000 A 
ATOM      5  C   UNL     1       6.592   4.021  12.974  0.00  0.00    +0.000 A 
ATOM      6  C   UNL     1       7.395   4.758  13.839  0.00  0.00    +0.000 A 
ATOM      7  C   UNL     1       6.900   5.105  15.103  0.00  0.00    +0.000 A 
ATOM      8  N   UNL     1       7.665   5.716  16.028  0.00  0.00    +0.000 NA
ATOM      9  C   UNL     1       7.158   5.686  17.287  0.00  0.00    +0.000 A 
ATOM     10  O   UNL     1       7.758   6.239  18.375  0.00  0.00    +0.000 OA
ATOM     11  C   UNL     1       7.083   5.799  19.482  0.00  0.00    +0.000 A 
ATOM     12  C   UNL     1       6.069   4.942  19.124  0.00  0.00    +0.000 A 
ATOM     13  C   UNL     1       6.075   4.926  17.709  0.00  0.00    +0.000 A 
ATOM     14  O   UNL     1       6.963   3.348  11.847  0.00  0.00    +0.000 OA
ATOM     15  C   UNL     1       5.755   2.585  11.597  0.00  0.00    +0.000 C 
ATOM     16  O   UNL     1       4.610   3.151  12.270  0.00  0.00    +0.000 OA
ENDROOT
BRANCH   1  17
ATOM     17  O   UNL     1       4.691   3.053  16.926  0.00  0.00    +0.000 OA
BRANCH  17  22
ATOM     18  C   UNL     1       1.260   3.872  18.183  0.00  0.00    +0.000 A 
ATOM     19  C   UNL     1       1.072   2.700  18.890  0.00  0.00    +0.000 A 
ATOM     20  N   UNL     1       2.033   1.770  19.055  0.00  0.00    +0.000 NA
ATOM     21  C   UNL     1       3.214   1.997  18.421  0.00  0.00    +0.000 A 
ATOM     22  C   UNL     1       3.479   3.092  17.614  0.00  0.00    +0.000 A 
ATOM     23  C   UNL     1       2.500   4.094  17.573  0.00  0.00    +0.000 A 
ENDBRANCH  17  22
ENDBRANCH   1  17
TORSDOF 2
ENDMDL
MODEL 7
REMARK VINA RESULT:      -7.4      1.518      1.915
REMARK  Name = 
REMARK  2 active torsions:
REMARK  status: ('A' for Active; 'I' for Inactive)
REMARK    1  A    between atoms: C_5  and  O_6
REMARK    2  A    between atoms: O_6  and  C_7
REMARK                            x       y       z     vdW  Elec       q    Type
REMARK                         _______ _______ _______ _____ _____    ______ ____
ROOT
ATOM      1  C   UNL     1       3.961   4.580  19.485  0.00  0.00    +0.000 A 
ATOM      2  C   UNL     1       4.714   3.986  18.446  0.00  0.00    +0.000 A 
ATOM      3  C   UNL     1       6.028   4.374  18.215  0.00  0.00    +0.000 A 
ATOM      4  C   UNL     1       6.353   4.493  16.901  0.00  0.00    +0.000 A 
ATOM      5  C   UNL     1       5.551   3.957  15.932  0.00  0.00    +0.000 A 
ATOM      6  C   UNL     1       4.467   3.152  16.271  0.00  0.00    +0.000 A 
ATOM      7  C   UNL     1       4.021   3.132  17.599  0.00  0.00    +0.000 A 
ATOM      8  N   UNL     1       2.910   2.465  17.969  0.00  0.00    +0.000 NA
ATOM      9  C   UNL     1       2.432   2.806  19.194  0.00  0.00    +0.000 A 
ATOM     10  O   UNL     1       1.326   2.263  19.769  0.00  0.00    +0.000 OA
ATOM     11  C   UNL     1       1.025   3.019  20.871  0.00  0.00    +0.000 A 
ATOM     12  C   UNL     1       1.908   4.066  20.998  0.00  0.00    +0.000 A 
ATOM     13  C   UNL     1       2.852   3.886  19.959  0.00  0.00    +0.000 A 
ATOM     14  O   UNL     1       5.959   4.340  14.688  0.00  0.00    +0.000 OA
ATOM     15  C   UNL     1       6.922   5.366  15.042  0.00  0.00    +0.000 C 
ATOM     16  O   UNL     1       7.373   5.235  16.407  0.00  0.00    +0.000 OA
ENDROOT
BRANCH   1  17
ATOM     17  O   UNL     1       4.174   5.942  19.718  0.00  0.00    +0.000 OA
BRANCH  17  22
ATOM     18  C   UNL     1       1.511   8.510  19.139  0.00  0.00    +0.000 A 
ATOM     19  C   UNL     1       1.874   8.818  17.842  0.00  0.00    +0.000 A 
ATOM     20  N   UNL     1       2.828   8.153  17.161  0.00  0.00    +0.000 NA
ATOM     21  C   UNL     1       3.494   7.181  17.838  0.00  0.00    +0.000 A 
ATOM     22  C   UNL     1       3.274   6.853  19.166  0.00  0.00    +0.000 A 
ATOM     23  C   UNL     1       2.191   7.479  19.798  0.00  0.00    +0.000 A 
ENDBRANCH  17  22
ENDBRANCH   1  17
TORSDOF 2
ENDMDL
MODEL 8
REMARK VINA RESULT:      -7.3      1.816      4.764
REMARK  Name = 
REMARK  2 active torsions:
REMARK  status: ('A' for Active; 'I' for Inactive)
REMARK    1  A    between atoms: C_5  and  O_6
REMARK    2  A    between atoms: O_6  and  C_7
REMARK                            x       y       z     vdW  Elec       q    Type
REMARK                         _______ _______ _______ _____ _____    ______ ____
ROOT
ATOM      1  C   UNL     1       3.678   4.846  17.513  0.00  0.00    +0.000 A 
ATOM      2  C   UNL     1       3.676   3.751  18.409  0.00  0.00    +0.000 A 
ATOM      3  C   UNL     1       2.546   2.955  18.547  0.00  0.00    +0.000 A 
ATOM      4  C   UNL     1       2.267   2.597  19.828  0.00  0.00    +0.000 A 
ATOM      5  C   UNL     1       3.206   2.740  20.812  0.00  0.00    +0.000 A 
ATOM      6  C   UNL     1       4.510   3.114  20.502  0.00  0.00    +0.000 A 
ATOM      7  C   UNL     1       4.788   3.629  19.230  0.00  0.00    +0.000 A 
ATOM      8  N   UNL     1       6.003   4.115  18.905  0.00  0.00    +0.000 NA
ATOM      9  C   UNL     1       6.024   4.867  17.774  0.00  0.00    +0.000 A 
ATOM     10  O   UNL     1       7.136   5.454  17.258  0.00  0.00    +0.000 OA
ATOM     11  C   UNL     1       6.725   6.313  16.273  0.00  0.00    +0.000 A 
ATOM     12  C   UNL     1       5.355   6.309  16.165  0.00  0.00    +0.000 A 
ATOM     13  C   UNL     1       4.911   5.328  17.083  0.00  0.00    +0.000 A 
ATOM     14  O   UNL     1       2.670   2.494  22.043  0.00  0.00    +0.000 OA
ATOM     15  C   UNL     1       1.261   2.448  21.700  0.00  0.00    +0.000 C 
ATOM     16  O   UNL     1       1.055   2.211  20.292  0.00  0.00    +0.000 OA
ENDROOT
BRANCH   1  17
ATOM     17  O   UNL     1       2.486   5.569  17.399  0.00  0.00    +0.000 OA
BRANCH  17  22
ATOM     18  C   UNL     1       1.875   9.006  18.753  0.00  0.00    +0.000 A 
ATOM     19  C   UNL     1       1.689   8.622  20.068  0.00  0.00    +0.000 A 
ATOM     20  N   UNL     1       1.875   7.361  20.506  0.00  0.00    +0.000 NA
ATOM     21  C   UNL     1       2.194   6.432  19.567  0.00  0.00    +0.000 A 
ATOM     22  C   UNL     1       2.316   6.689  18.211  0.00  0.00    +0.000 A 
ATOM     23  C   UNL     1       2.240   8.032  17.817  0.00  0.00    +0.000 A 
ENDBRANCH  17  22
ENDBRANCH   1  17
TORSDOF 2
ENDMDL
MODEL 9
REMARK VINA RESULT:      -7.2      1.293      4.654
REMARK  Name = 
REMARK  2 active torsions:
REMARK  status: ('A' for Active; 'I' for Inactive)
REMARK    1  A    between atoms: C_5  and  O_6
REMARK    2  A    between atoms: O_6  and  C_7
REMARK                            x       y       z     vdW  Elec       q    Type
REMARK                         _______ _______ _______ _____ _____    ______ ____
ROOT
ATOM      1  C   UNL     1       4.015   5.978  18.048  0.00  0.00    +0.000 A 
ATOM      2  C   UNL     1       3.379   4.785  17.631  0.00  0.00    +0.000 A 
ATOM      3  C   UNL     1       2.001   4.647  17.734  0.00  0.00    +0.000 A 
ATOM      4  C   UNL     1       1.593   3.424  18.164  0.00  0.00    +0.000 A 
ATOM      5  C   UNL     1       2.452   2.361  18.162  0.00  0.00    +0.000 A 
ATOM      6  C   UNL     1       3.715   2.468  17.587  0.00  0.00    +0.000 A 
ATOM      7  C   UNL     1       4.217   3.737  17.274  0.00  0.00    +0.000 A 
ATOM      8  N   UNL     1       5.474   3.918  16.823  0.00  0.00    +0.000 NA
ATOM      9  C   UNL     1       5.914   5.201  16.882  0.00  0.00    +0.000 A 
ATOM     10  O   UNL     1       7.146   5.614  16.480  0.00  0.00    +0.000 OA
ATOM     11  C   UNL     1       7.307   6.902  16.915  0.00  0.00    +0.000 A 
ATOM     12  C   UNL     1       6.203   7.319  17.621  0.00  0.00    +0.000 A 
ATOM     13  C   UNL     1       5.282   6.248  17.539  0.00  0.00    +0.000 A 
ATOM     14  O   UNL     1       1.903   1.282  18.793  0.00  0.00    +0.000 OA
ATOM     15  C   UNL     1       0.737   1.906  19.391  0.00  0.00    +0.000 C 
ATOM     16  O   UNL     1       0.400   3.151  18.744  0.00  0.00    +0.000 OA
ENDROOT
BRANCH   1  17
ATOM     17  O   UNL     1       3.488   6.611  19.178  0.00  0.00    +0.000 OA
BRANCH  17  22
ATOM     18  C   UNL     1       1.437   9.402  17.755  0.00  0.00    +0.000 A 
ATOM     19  C   UNL     1       0.693   9.643  18.895  0.00  0.00    +0.000 A 
ATOM     20  N   UNL     1       0.927   9.035  20.075  0.00  0.00    +0.000 NA
ATOM     21  C   UNL     1       1.905   8.092  20.091  0.00  0.00    +0.000 A 
ATOM     22  C   UNL     1       2.649   7.708  18.986  0.00  0.00    +0.000 A 
ATOM     23  C   UNL     1       2.463   8.452  17.814  0.00  0.00    +0.000 A 
ENDBRANCH  17  22
ENDBRANCH   1  17
TORSDOF 2
ENDMDL
