MODEL 1
REMARK VINA RESULT:      -8.4      0.000      0.000
REMARK  Name = 
REMARK  5 active torsions:
REMARK  status: ('A' for Active; 'I' for Inactive)
REMARK    1  A    between atoms: C_1  and  C_2
REMARK    2  A    between atoms: C_4  and  C_5
REMARK    3  A    between atoms: C_15  and  O_16
REMARK    4  A    between atoms: C_18  and  C_19
REMARK    5  A    between atoms: N_21  and  C_22
REMARK                            x       y       z     vdW  Elec       q    Type
REMARK                         _______ _______ _______ _____ _____    ______ ____
ROOT
ATOM      1  C   UNL     1      -0.473  10.146  18.675  0.00  0.00    +0.000 C 
ATOM      2  C   UNL     1       0.934  10.159  19.259  0.00  0.00    +0.000 C 
ATOM      3  O   UNL     1       1.570   8.941  18.853  0.00  0.00    +0.000 OA
ATOM      4  C   UNL     1       1.712   8.214  19.986  0.00  0.00    +0.000 C 
ATOM      5  N   UNL     1       1.494   8.774  21.133  0.00  0.00    +0.000 NA
ATOM      6  C   UNL     1       1.058  10.153  20.775  0.00  0.00    +0.000 C 
ENDROOT
BRANCH   4   7
ATOM      7  C   UNL     1       2.138   6.821  19.765  0.00  0.00    +0.000 A 
ATOM      8  C   UNL     1       1.661   5.813  20.601  0.00  0.00    +0.000 A 
ATOM      9  C   UNL     1       1.961   4.478  20.320  0.00  0.00    +0.000 A 
ATOM     10 CL   UNL     1       1.325   3.297  21.421  0.00  0.00    +0.000 Cl
ATOM     11  C   UNL     1       2.731   4.110  19.186  0.00  0.00    +0.000 A 
ATOM     12  C   UNL     1       2.997   2.763  18.830  0.00  0.00    +0.000 A 
ATOM     13  C   UNL     1       3.750   2.433  17.704  0.00  0.00    +0.000 A 
ATOM     14  C   UNL     1       4.287   3.437  16.918  0.00  0.00    +0.000 A 
ATOM     15  C   UNL     1       4.059   4.771  17.253  0.00  0.00    +0.000 A 
ATOM     16  C   UNL     1       3.259   5.138  18.363  0.00  0.00    +0.000 A 
ATOM     17  C   UNL     1       2.963   6.487  18.682  0.00  0.00    +0.000 A 
BRANCH  17  18
ATOM     18  O   UNL     1       3.514   7.510  17.947  0.00  0.00    +0.000 OA
ATOM     19  H   UNL     1       2.804   8.069  17.597  0.00  0.00    +0.000 HD
ENDBRANCH  17  18
ENDBRANCH   4   7
BRANCH   6  20
ATOM     20  C   UNL     1      -0.238  10.488  21.511  0.00  0.00    +0.000 C 
ATOM     21  O   UNL     1      -0.848   9.639  22.160  0.00  0.00    +0.000 OA
ATOM     22  N   UNL     1      -0.664  11.784  21.313  0.00  0.00    +0.000 N 
ATOM     23  H   UNL     1      -0.248  12.234  20.501  0.00  0.00    +0.000 HD
BRANCH  22  24
ATOM     24  C   UNL     1      -1.821  12.323  21.892  0.00  0.00    +0.000 A 
ATOM     25  C   UNL     1      -1.769  12.673  23.241  0.00  0.00    +0.000 A 
ATOM     26  C   UNL     1      -2.905  13.170  23.883  0.00  0.00    +0.000 A 
ATOM     27  C   UNL     1      -4.137  13.198  23.201  0.00  0.00    +0.000 A 
ATOM     28  N   UNL     1      -5.358  13.541  23.756  0.00  0.00    +0.000 NA
ATOM     29  C   UNL     1      -6.306  13.363  22.864  0.00  0.00    +0.000 A 
ATOM     30  S   UNL     1      -5.802  12.886  21.299  0.00  0.00    +0.000 S 
ATOM     31  C   UNL     1      -4.170  12.819  21.856  0.00  0.00    +0.000 A 
ATOM     32  C   UNL     1      -3.008  12.432  21.163  0.00  0.00    +0.000 A 
ENDBRANCH  22  24
ENDBRANCH   6  20
TORSDOF 4
ENDMDL
MODEL 2
REMARK VINA RESULT:      -8.3      1.614      2.108
REMARK  Name = 
REMARK  5 active torsions:
REMARK  status: ('A' for Active; 'I' for Inactive)
REMARK    1  A    between atoms: C_1  and  C_2
REMARK    2  A    between atoms: C_4  and  C_5
REMARK    3  A    between atoms: C_15  and  O_16
REMARK    4  A    between atoms: C_18  and  C_19
REMARK    5  A    between atoms: N_21  and  C_22
REMARK                            x       y       z     vdW  Elec       q    Type
REMARK                         _______ _______ _______ _____ _____    ______ ____
ROOT
ATOM      1  C   UNL     1      -0.702  10.106  18.034  0.00  0.00    +0.000 C 
ATOM      2  C   UNL     1       0.721  10.325  18.531  0.00  0.00    +0.000 C 
ATOM      3  O   UNL     1       1.500   9.210  18.083  0.00  0.00    +0.000 OA
ATOM      4  C   UNL     1       1.815   8.517  19.203  0.00  0.00    +0.000 C 
ATOM      5  N   UNL     1       1.587   9.046  20.363  0.00  0.00    +0.000 NA
ATOM      6  C   UNL     1       0.936  10.345  20.037  0.00  0.00    +0.000 C 
ENDROOT
BRANCH   4   7
ATOM      7  C   UNL     1       2.423   7.199  18.952  0.00  0.00    +0.000 A 
ATOM      8  C   UNL     1       3.284   7.032  17.869  0.00  0.00    +0.000 A 
ATOM      9  C   UNL     1       3.960   5.821  17.700  0.00  0.00    +0.000 A 
ATOM     10 CL   UNL     1       5.007   5.709  16.320  0.00  0.00    +0.000 Cl
ATOM     11  C   UNL     1       3.808   4.748  18.617  0.00  0.00    +0.000 A 
ATOM     12  C   UNL     1       4.530   3.531  18.516  0.00  0.00    +0.000 A 
ATOM     13  C   UNL     1       4.366   2.499  19.439  0.00  0.00    +0.000 A 
ATOM     14  C   UNL     1       3.454   2.637  20.470  0.00  0.00    +0.000 A 
ATOM     15  C   UNL     1       2.716   3.814  20.584  0.00  0.00    +0.000 A 
ATOM     16  C   UNL     1       2.894   4.899  19.691  0.00  0.00    +0.000 A 
ATOM     17  C   UNL     1       2.201   6.128  19.829  0.00  0.00    +0.000 A 
BRANCH  17  18
ATOM     18  O   UNL     1       1.256   6.284  20.817  0.00  0.00    +0.000 OA
ATOM     19  H   UNL     1       1.412   5.626  21.511  0.00  0.00    +0.000 HD
ENDBRANCH  17  18
ENDBRANCH   4   7
BRANCH   6  20
ATOM     20  C   UNL     1      -0.348  10.493  20.852  0.00  0.00    +0.000 C 
ATOM     21  O   UNL     1      -0.888   9.524  21.384  0.00  0.00    +0.000 OA
ATOM     22  N   UNL     1      -0.849  11.778  20.862  0.00  0.00    +0.000 N 
ATOM     23  H   UNL     1      -0.487  12.366  20.114  0.00  0.00    +0.000 HD
BRANCH  22  24
ATOM     24  C   UNL     1      -2.010  12.158  21.548  0.00  0.00    +0.000 A 
ATOM     25  C   UNL     1      -2.003  12.062  22.939  0.00  0.00    +0.000 A 
ATOM     26  C   UNL     1      -3.148  12.382  23.672  0.00  0.00    +0.000 A 
ATOM     27  C   UNL     1      -4.348  12.680  22.998  0.00  0.00    +0.000 A 
ATOM     28  N   UNL     1      -5.579  12.884  23.597  0.00  0.00    +0.000 NA
ATOM     29  C   UNL     1      -6.494  13.040  22.668  0.00  0.00    +0.000 A 
ATOM     30  S   UNL     1      -5.941  13.058  21.048  0.00  0.00    +0.000 S 
ATOM     31  C   UNL     1      -4.337  12.746  21.602  0.00  0.00    +0.000 A 
ATOM     32  C   UNL     1      -3.161  12.545  20.856  0.00  0.00    +0.000 A 
ENDBRANCH  22  24
ENDBRANCH   6  20
TORSDOF 4
ENDMDL
MODEL 3
REMARK VINA RESULT:      -8.3      5.033     10.115
REMARK  Name = 
REMARK  5 active torsions:
REMARK  status: ('A' for Active; 'I' for Inactive)
REMARK    1  A    between atoms: C_1  and  C_2
REMARK    2  A    between atoms: C_4  and  C_5
REMARK    3  A    between atoms: C_15  and  O_16
REMARK    4  A    between atoms: C_18  and  C_19
REMARK    5  A    between atoms: N_21  and  C_22
REMARK                            x       y       z     vdW  Elec       q    Type
REMARK                         _______ _______ _______ _____ _____    ______ ____
ROOT
ATOM      1  C   UNL     1       1.442   3.659  18.207  0.00  0.00    +0.000 C 
ATOM      2  C   UNL     1       1.826   3.964  19.650  0.00  0.00    +0.000 C 
ATOM      3  O   UNL     1       1.119   5.151  20.031  0.00  0.00    +0.000 OA
ATOM      4  C   UNL     1       2.067   6.107  20.168  0.00  0.00    +0.000 C 
ATOM      5  N   UNL     1       3.317   5.769  20.163  0.00  0.00    +0.000 NA
ATOM      6  C   UNL     1       3.284   4.299  19.925  0.00  0.00    +0.000 C 
ENDROOT
BRANCH   4   7
ATOM      7  C   UNL     1       1.536   7.471  20.334  0.00  0.00    +0.000 A 
ATOM      8  C   UNL     1       0.966   7.846  21.549  0.00  0.00    +0.000 A 
ATOM      9  C   UNL     1       0.575   9.172  21.753  0.00  0.00    +0.000 A 
ATOM     10 CL   UNL     1      -0.128   9.539  23.297  0.00  0.00    +0.000 Cl
ATOM     11  C   UNL     1       0.758  10.164  20.756  0.00  0.00    +0.000 A 
ATOM     12  C   UNL     1       0.439  11.532  20.952  0.00  0.00    +0.000 A 
ATOM     13  C   UNL     1       0.639  12.486  19.955  0.00  0.00    +0.000 A 
ATOM     14  C   UNL     1       1.134  12.099  18.723  0.00  0.00    +0.000 A 
ATOM     15  C   UNL     1       1.440  10.758  18.493  0.00  0.00    +0.000 A 
ATOM     16  C   UNL     1       1.292   9.773  19.500  0.00  0.00    +0.000 A 
ATOM     17  C   UNL     1       1.658   8.418  19.308  0.00  0.00    +0.000 A 
BRANCH  17  18
ATOM     18  O   UNL     1       2.113   7.991  18.082  0.00  0.00    +0.000 OA
ATOM     19  H   UNL     1       1.847   8.630  17.404  0.00  0.00    +0.000 HD
ENDBRANCH  17  18
ENDBRANCH   4   7
BRANCH   6  20
ATOM     20  C   UNL     1       4.236   3.942  18.784  0.00  0.00    +0.000 C 
ATOM     21  O   UNL     1       4.722   2.817  18.681  0.00  0.00    +0.000 OA
ATOM     22  N   UNL     1       4.528   5.007  17.958  0.00  0.00    +0.000 N 
ATOM     23  H   UNL     1       4.326   5.915  18.370  0.00  0.00    +0.000 HD
BRANCH  22  24
ATOM     24  C   UNL     1       5.370   4.919  16.841  0.00  0.00    +0.000 A 
ATOM     25  C   UNL     1       6.549   5.664  16.856  0.00  0.00    +0.000 A 
ATOM     26  C   UNL     1       7.403   5.652  15.751  0.00  0.00    +0.000 A 
ATOM     27  C   UNL     1       7.011   4.989  14.572  0.00  0.00    +0.000 A 
ATOM     28  N   UNL     1       7.697   5.009  13.370  0.00  0.00    +0.000 NA
ATOM     29  C   UNL     1       6.998   4.368  12.461  0.00  0.00    +0.000 A 
ATOM     30  S   UNL     1       5.553   3.622  12.994  0.00  0.00    +0.000 S 
ATOM     31  C   UNL     1       5.812   4.269  14.573  0.00  0.00    +0.000 A 
ATOM     32  C   UNL     1       5.002   4.173  15.718  0.00  0.00    +0.000 A 
ENDBRANCH  22  24
ENDBRANCH   6  20
TORSDOF 4
ENDMDL
MODEL 4
REMARK VINA RESULT:      -8.1      1.208      1.548
REMARK  Name = 
REMARK  5 active torsions:
REMARK  status: ('A' for Active; 'I' for Inactive)
REMARK    1  A    between atoms: C_1  and  C_2
REMARK    2  A    between atoms: C_4  and  C_5
REMARK    3  A    between atoms: C_15  and  O_16
REMARK    4  A    between atoms: C_18  and  C_19
REMARK    5  A    between atoms: N_21  and  C_22
REMARK                            x       y       z     vdW  Elec       q    Type
REMARK                         _______ _______ _______ _____ _____    ______ ____
ROOT
ATOM      1  C   UNL     1      -0.536  10.094  18.621  0.00  0.00    +0.000 C 
ATOM      2  C   UNL     1       0.918  10.127  19.075  0.00  0.00    +0.000 C 
ATOM      3  O   UNL     1       1.506   8.877  18.695  0.00  0.00    +0.000 OA
ATOM      4  C   UNL     1       1.745   8.224  19.856  0.00  0.00    +0.000 C 
ATOM      5  N   UNL     1       1.633   8.859  20.979  0.00  0.00    +0.000 NA
ATOM      6  C   UNL     1       1.177  10.216  20.572  0.00  0.00    +0.000 C 
ENDROOT
BRANCH   4   7
ATOM      7  C   UNL     1       2.140   6.814  19.690  0.00  0.00    +0.000 A 
ATOM      8  C   UNL     1       1.647   5.850  20.567  0.00  0.00    +0.000 A 
ATOM      9  C   UNL     1       1.916   4.499  20.339  0.00  0.00    +0.000 A 
ATOM     10 CL   UNL     1       1.261   3.377  21.489  0.00  0.00    +0.000 Cl
ATOM     11  C   UNL     1       2.673   4.069  19.218  0.00  0.00    +0.000 A 
ATOM     12  C   UNL     1       2.908   2.704  18.915  0.00  0.00    +0.000 A 
ATOM     13  C   UNL     1       3.648   2.313  17.800  0.00  0.00    +0.000 A 
ATOM     14  C   UNL     1       4.202   3.273  16.972  0.00  0.00    +0.000 A 
ATOM     15  C   UNL     1       4.004   4.624  17.253  0.00  0.00    +0.000 A 
ATOM     16  C   UNL     1       3.218   5.052  18.351  0.00  0.00    +0.000 A 
ATOM     17  C   UNL     1       2.952   6.419  18.617  0.00  0.00    +0.000 A 
BRANCH  17  18
ATOM     18  O   UNL     1       3.521   7.400  17.839  0.00  0.00    +0.000 OA
ATOM     19  H   UNL     1       3.804   8.131  18.408  0.00  0.00    +0.000 HD
ENDBRANCH  17  18
ENDBRANCH   4   7
BRANCH   6  20
ATOM     20  C   UNL     1      -0.047  10.615  21.397  0.00  0.00    +0.000 C 
ATOM     21  O   UNL     1      -0.712   9.778  22.005  0.00  0.00    +0.000 OA
ATOM     22  N   UNL     1      -0.346  11.959  21.324  0.00  0.00    +0.000 N 
ATOM     23  H   UNL     1       0.080  12.432  20.531  0.00  0.00    +0.000 HD
BRANCH  22  24
ATOM     24  C   UNL     1      -1.416  12.557  22.002  0.00  0.00    +0.000 A 
ATOM     25  C   UNL     1      -2.686  12.446  21.436  0.00  0.00    +0.000 A 
ATOM     26  C   UNL     1      -3.783  13.062  22.043  0.00  0.00    +0.000 A 
ATOM     27  C   UNL     1      -3.585  13.902  23.157  0.00  0.00    +0.000 A 
ATOM     28  N   UNL     1      -4.559  14.672  23.768  0.00  0.00    +0.000 NA
ATOM     29  C   UNL     1      -4.006  15.404  24.709  0.00  0.00    +0.000 A 
ATOM     30  S   UNL     1      -2.337  15.150  24.992  0.00  0.00    +0.000 S 
ATOM     31  C   UNL     1      -2.298  14.017  23.691  0.00  0.00    +0.000 A 
ATOM     32  C   UNL     1      -1.206  13.306  23.163  0.00  0.00    +0.000 A 
ENDBRANCH  22  24
ENDBRANCH   6  20
TORSDOF 4
ENDMDL
MODEL 5
REMARK VINA RESULT:      -8.0      1.057      1.198
REMARK  Name = 
REMARK  5 active torsions:
REMARK  status: ('A' for Active; 'I' for Inactive)
REMARK    1  A    between atoms: C_1  and  C_2
REMARK    2  A    between atoms: C_4  and  C_5
REMARK    3  A    between atoms: C_15  and  O_16
REMARK    4  A    between atoms: C_18  and  C_19
REMARK    5  A    between atoms: N_21  and  C_22
REMARK                            x       y       z     vdW  Elec       q    Type
REMARK                         _______ _______ _______ _____ _____    ______ ____
ROOT
ATOM      1  C   UNL     1      -1.542  10.188  18.317  0.00  0.00    +0.000 C 
ATOM      2  C   UNL     1      -0.104  10.656  18.501  0.00  0.00    +0.000 C 
ATOM      3  O   UNL     1       0.745   9.559  18.142  0.00  0.00    +0.000 OA
ATOM      4  C   UNL     1       1.321   9.156  19.299  0.00  0.00    +0.000 C 
ATOM      5  N   UNL     1       1.202   9.890  20.359  0.00  0.00    +0.000 NA
ATOM      6  C   UNL     1       0.335  11.015  19.913  0.00  0.00    +0.000 C 
ENDROOT
BRANCH   4   7
ATOM      7  C   UNL     1       2.061   7.886  19.199  0.00  0.00    +0.000 A 
ATOM      8  C   UNL     1       1.875   6.900  20.167  0.00  0.00    +0.000 A 
ATOM      9  C   UNL     1       2.477   5.649  20.010  0.00  0.00    +0.000 A 
ATOM     10 CL   UNL     1       2.188   4.491  21.270  0.00  0.00    +0.000 Cl
ATOM     11  C   UNL     1       3.268   5.341  18.873  0.00  0.00    +0.000 A 
ATOM     12  C   UNL     1       3.836   4.062  18.645  0.00  0.00    +0.000 A 
ATOM     13  C   UNL     1       4.602   3.787  17.512  0.00  0.00    +0.000 A 
ATOM     14  C   UNL     1       4.849   4.788  16.590  0.00  0.00    +0.000 A 
ATOM     15  C   UNL     1       4.319   6.061  16.796  0.00  0.00    +0.000 A 
ATOM     16  C   UNL     1       3.499   6.359  17.912  0.00  0.00    +0.000 A 
ATOM     17  C   UNL     1       2.898   7.629  18.105  0.00  0.00    +0.000 A 
BRANCH  17  18
ATOM     18  O   UNL     1       3.157   8.658  17.230  0.00  0.00    +0.000 OA
ATOM     19  H   UNL     1       3.998   9.076  17.472  0.00  0.00    +0.000 HD
ENDBRANCH  17  18
ENDBRANCH   4   7
BRANCH   6  20
ATOM     20  C   UNL     1      -0.818  11.197  20.900  0.00  0.00    +0.000 C 
ATOM     21  O   UNL     1      -1.097  10.331  21.728  0.00  0.00    +0.000 OA
ATOM     22  N   UNL     1      -1.524  12.366  20.714  0.00  0.00    +0.000 N 
ATOM     23  H   UNL     1      -1.385  12.788  19.798  0.00  0.00    +0.000 HD
BRANCH  22  24
ATOM     24  C   UNL     1      -2.616  12.753  21.502  0.00  0.00    +0.000 A 
ATOM     25  C   UNL     1      -2.355  13.204  22.796  0.00  0.00    +0.000 A 
ATOM     26  C   UNL     1      -3.407  13.559  23.643  0.00  0.00    +0.000 A 
ATOM     27  C   UNL     1      -4.737  13.338  23.234  0.00  0.00    +0.000 A 
ATOM     28  N   UNL     1      -5.862  13.520  24.021  0.00  0.00    +0.000 NA
ATOM     29  C   UNL     1      -6.924  13.128  23.355  0.00  0.00    +0.000 A 
ATOM     30  S   UNL     1      -6.671  12.625  21.739  0.00  0.00    +0.000 S 
ATOM     31  C   UNL     1      -4.973  12.862  21.941  0.00  0.00    +0.000 A 
ATOM     32  C   UNL     1      -3.926  12.616  21.036  0.00  0.00    +0.000 A 
ENDBRANCH  22  24
ENDBRANCH   6  20
TORSDOF 4
ENDMDL
MODEL 6
REMARK VINA RESULT:      -8.0      1.835      2.501
REMARK  Name = 
REMARK  5 active torsions:
REMARK  status: ('A' for Active; 'I' for Inactive)
REMARK    1  A    between atoms: C_1  and  C_2
REMARK    2  A    between atoms: C_4  and  C_5
REMARK    3  A    between atoms: C_15  and  O_16
REMARK    4  A    between atoms: C_18  and  C_19
REMARK    5  A    between atoms: N_21  and  C_22
REMARK                            x       y       z     vdW  Elec       q    Type
REMARK                         _______ _______ _______ _____ _____    ______ ____
ROOT
ATOM      1  C   UNL     1      -0.569   9.991  17.749  0.00  0.00    +0.000 C 
ATOM      2  C   UNL     1       0.851  10.191  18.261  0.00  0.00    +0.000 C 
ATOM      3  O   UNL     1       1.590   9.010  17.926  0.00  0.00    +0.000 OA
ATOM      4  C   UNL     1       1.851   8.402  19.107  0.00  0.00    +0.000 C 
ATOM      5  N   UNL     1       1.623   9.034  20.213  0.00  0.00    +0.000 NA
ATOM      6  C   UNL     1       1.036  10.327  19.765  0.00  0.00    +0.000 C 
ENDROOT
BRANCH   4   7
ATOM      7  C   UNL     1       2.406   7.043  18.980  0.00  0.00    +0.000 A 
ATOM      8  C   UNL     1       3.266   6.744  17.925  0.00  0.00    +0.000 A 
ATOM      9  C   UNL     1       3.892   5.497  17.871  0.00  0.00    +0.000 A 
ATOM     10 CL   UNL     1       4.941   5.219  16.516  0.00  0.00    +0.000 Cl
ATOM     11  C   UNL     1       3.692   4.518  18.878  0.00  0.00    +0.000 A 
ATOM     12  C   UNL     1       4.364   3.269  18.894  0.00  0.00    +0.000 A 
ATOM     13  C   UNL     1       4.152   2.331  19.904  0.00  0.00    +0.000 A 
ATOM     14  C   UNL     1       3.241   2.598  20.910  0.00  0.00    +0.000 A 
ATOM     15  C   UNL     1       2.551   3.810  20.912  0.00  0.00    +0.000 A 
ATOM     16  C   UNL     1       2.778   4.802  19.926  0.00  0.00    +0.000 A 
ATOM     17  C   UNL     1       2.135   6.065  19.947  0.00  0.00    +0.000 A 
BRANCH  17  18
ATOM     18  O   UNL     1       1.193   6.347  20.908  0.00  0.00    +0.000 OA
ATOM     19  H   UNL     1       1.057   5.561  21.460  0.00  0.00    +0.000 HD
ENDBRANCH  17  18
ENDBRANCH   4   7
BRANCH   6  20
ATOM     20  C   UNL     1      -0.257  10.597  20.533  0.00  0.00    +0.000 C 
ATOM     21  O   UNL     1      -0.810   9.717  21.192  0.00  0.00    +0.000 OA
ATOM     22  N   UNL     1      -0.750  11.872  20.351  0.00  0.00    +0.000 N 
ATOM     23  H   UNL     1      -0.376  12.344  19.531  0.00  0.00    +0.000 HD
BRANCH  22  24
ATOM     24  C   UNL     1      -1.918  12.351  20.960  0.00  0.00    +0.000 A 
ATOM     25  C   UNL     1      -3.045  12.525  20.156  0.00  0.00    +0.000 A 
ATOM     26  C   UNL     1      -4.223  13.043  20.699  0.00  0.00    +0.000 A 
ATOM     27  C   UNL     1      -4.233  13.510  22.028  0.00  0.00    +0.000 A 
ATOM     28  N   UNL     1      -5.287  14.163  22.644  0.00  0.00    +0.000 NA
ATOM     29  C   UNL     1      -4.918  14.543  23.847  0.00  0.00    +0.000 A 
ATOM     30  S   UNL     1      -3.355  14.064  24.353  0.00  0.00    +0.000 S 
ATOM     31  C   UNL     1      -3.083  13.348  22.807  0.00  0.00    +0.000 A 
ATOM     32  C   UNL     1      -1.930  12.716  22.308  0.00  0.00    +0.000 A 
ENDBRANCH  22  24
ENDBRANCH   6  20
TORSDOF 4
ENDMDL
MODEL 7
REMARK VINA RESULT:      -7.9      3.821      4.887
REMARK  Name = 
REMARK  5 active torsions:
REMARK  status: ('A' for Active; 'I' for Inactive)
REMARK    1  A    between atoms: C_1  and  C_2
REMARK    2  A    between atoms: C_4  and  C_5
REMARK    3  A    between atoms: C_15  and  O_16
REMARK    4  A    between atoms: C_18  and  C_19
REMARK    5  A    between atoms: N_21  and  C_22
REMARK                            x       y       z     vdW  Elec       q    Type
REMARK                         _______ _______ _______ _____ _____    ______ ____
ROOT
ATOM      1  C   UNL     1       1.587   9.300  22.623  0.00  0.00    +0.000 C 
ATOM      2  C   UNL     1       0.679   8.648  21.588  0.00  0.00    +0.000 C 
ATOM      3  O   UNL     1       1.365   7.490  21.095  0.00  0.00    +0.000 OA
ATOM      4  C   UNL     1       1.681   7.779  19.811  0.00  0.00    +0.000 C 
ATOM      5  N   UNL     1       1.166   8.825  19.248  0.00  0.00    +0.000 NA
ATOM      6  C   UNL     1       0.364   9.451  20.335  0.00  0.00    +0.000 C 
ENDROOT
BRANCH   4   7
ATOM      7  C   UNL     1       2.597   6.813  19.180  0.00  0.00    +0.000 A 
ATOM      8  C   UNL     1       2.673   5.511  19.671  0.00  0.00    +0.000 A 
ATOM      9  C   UNL     1       3.443   4.559  18.999  0.00  0.00    +0.000 A 
ATOM     10 CL   UNL     1       3.478   2.967  19.691  0.00  0.00    +0.000 Cl
ATOM     11  C   UNL     1       4.147   4.875  17.808  0.00  0.00    +0.000 A 
ATOM     12  C   UNL     1       4.881   3.919  17.061  0.00  0.00    +0.000 A 
ATOM     13  C   UNL     1       5.555   4.258  15.888  0.00  0.00    +0.000 A 
ATOM     14  C   UNL     1       5.541   5.568  15.443  0.00  0.00    +0.000 A 
ATOM     15  C   UNL     1       4.843   6.535  16.166  0.00  0.00    +0.000 A 
ATOM     16  C   UNL     1       4.111   6.212  17.335  0.00  0.00    +0.000 A 
ATOM     17  C   UNL     1       3.342   7.167  18.046  0.00  0.00    +0.000 A 
BRANCH  17  18
ATOM     18  O   UNL     1       3.341   8.486  17.655  0.00  0.00    +0.000 OA
ATOM     19  H   UNL     1       2.673   8.612  16.965  0.00  0.00    +0.000 HD
ENDBRANCH  17  18
ENDBRANCH   4   7
BRANCH   6  20
ATOM     20  C   UNL     1       0.711  10.936  20.439  0.00  0.00    +0.000 C 
ATOM     21  O   UNL     1       0.669  11.532  21.514  0.00  0.00    +0.000 OA
ATOM     22  N   UNL     1       0.996  11.521  19.223  0.00  0.00    +0.000 N 
ATOM     23  H   UNL     1       0.658  10.991  18.423  0.00  0.00    +0.000 HD
BRANCH  22  24
ATOM     24  C   UNL     1       1.349  12.869  19.070  0.00  0.00    +0.000 A 
ATOM     25  C   UNL     1       0.325  13.815  19.100  0.00  0.00    +0.000 A 
ATOM     26  C   UNL     1       0.612  15.168  18.906  0.00  0.00    +0.000 A 
ATOM     27  C   UNL     1       1.918  15.562  18.553  0.00  0.00    +0.000 A 
ATOM     28  N   UNL     1       2.307  16.844  18.206  0.00  0.00    +0.000 NA
ATOM     29  C   UNL     1       3.569  16.831  17.842  0.00  0.00    +0.000 A 
ATOM     30  S   UNL     1       4.391  15.336  17.987  0.00  0.00    +0.000 S 
ATOM     31  C   UNL     1       2.923  14.591  18.506  0.00  0.00    +0.000 A 
ATOM     32  C   UNL     1       2.671  13.242  18.818  0.00  0.00    +0.000 A 
ENDBRANCH  22  24
ENDBRANCH   6  20
TORSDOF 4
ENDMDL
MODEL 8
REMARK VINA RESULT:      -7.8      4.204      5.604
REMARK  Name = 
REMARK  5 active torsions:
REMARK  status: ('A' for Active; 'I' for Inactive)
REMARK    1  A    between atoms: C_1  and  C_2
REMARK    2  A    between atoms: C_4  and  C_5
REMARK    3  A    between atoms: C_15  and  O_16
REMARK    4  A    between atoms: C_18  and  C_19
REMARK    5  A    between atoms: N_21  and  C_22
REMARK                            x       y       z     vdW  Elec       q    Type
REMARK                         _______ _______ _______ _____ _____    ______ ____
ROOT
ATOM      1  C   UNL     1       0.251  11.336  21.609  0.00  0.00    +0.000 C 
ATOM      2  C   UNL     1      -0.367  10.596  20.429  0.00  0.00    +0.000 C 
ATOM      3  O   UNL     1       0.225   9.292  20.394  0.00  0.00    +0.000 OA
ATOM      4  C   UNL     1       0.993   9.275  19.279  0.00  0.00    +0.000 C 
ATOM      5  N   UNL     1       0.888  10.237  18.419  0.00  0.00    +0.000 NA
ATOM      6  C   UNL     1      -0.102  11.159  19.041  0.00  0.00    +0.000 C 
ENDROOT
BRANCH   4   7
ATOM      7  C   UNL     1       1.878   8.102  19.169  0.00  0.00    +0.000 A 
ATOM      8  C   UNL     1       1.776   7.071  20.100  0.00  0.00    +0.000 A 
ATOM      9  C   UNL     1       2.523   5.903  19.928  0.00  0.00    +0.000 A 
ATOM     10 CL   UNL     1       2.330   4.679  21.143  0.00  0.00    +0.000 Cl
ATOM     11  C   UNL     1       3.380   5.724  18.811  0.00  0.00    +0.000 A 
ATOM     12  C   UNL     1       4.099   4.527  18.566  0.00  0.00    +0.000 A 
ATOM     13  C   UNL     1       4.927   4.378  17.454  0.00  0.00    +0.000 A 
ATOM     14  C   UNL     1       5.086   5.431  16.571  0.00  0.00    +0.000 A 
ATOM     15  C   UNL     1       4.407   6.628  16.794  0.00  0.00    +0.000 A 
ATOM     16  C   UNL     1       3.523   6.793  17.889  0.00  0.00    +0.000 A 
ATOM     17  C   UNL     1       2.774   7.979  18.097  0.00  0.00    +0.000 A 
BRANCH  17  18
ATOM     18  O   UNL     1       2.940   9.059  17.263  0.00  0.00    +0.000 OA
ATOM     19  H   UNL     1       3.521   8.807  16.529  0.00  0.00    +0.000 HD
ENDBRANCH  17  18
ENDBRANCH   4   7
BRANCH   6  20
ATOM     20  C   UNL     1       0.451  12.584  19.037  0.00  0.00    +0.000 C 
ATOM     21  O   UNL     1      -0.295  13.563  19.039  0.00  0.00    +0.000 OA
ATOM     22  N   UNL     1       1.826  12.641  18.962  0.00  0.00    +0.000 N 
ATOM     23  H   UNL     1       2.255  11.781  18.629  0.00  0.00    +0.000 HD
BRANCH  22  24
ATOM     24  C   UNL     1       2.558  13.836  18.953  0.00  0.00    +0.000 A 
ATOM     25  C   UNL     1       2.876  14.393  17.714  0.00  0.00    +0.000 A 
ATOM     26  C   UNL     1       3.643  15.558  17.643  0.00  0.00    +0.000 A 
ATOM     27  C   UNL     1       4.203  16.098  18.817  0.00  0.00    +0.000 A 
ATOM     28  N   UNL     1       5.085  17.164  18.872  0.00  0.00    +0.000 NA
ATOM     29  C   UNL     1       5.480  17.337  20.113  0.00  0.00    +0.000 A 
ATOM     30  S   UNL     1       4.759  16.326  21.291  0.00  0.00    +0.000 S 
ATOM     31  C   UNL     1       3.890  15.508  20.045  0.00  0.00    +0.000 A 
ATOM     32  C   UNL     1       3.020  14.407  20.141  0.00  0.00    +0.000 A 
ENDBRANCH  22  24
ENDBRANCH   6  20
TORSDOF 4
ENDMDL
MODEL 9
REMARK VINA RESULT:      -7.8      3.602      4.567
REMARK  Name = 
REMARK  5 active torsions:
REMARK  status: ('A' for Active; 'I' for Inactive)
REMARK    1  A    between atoms: C_1  and  C_2
REMARK    2  A    between atoms: C_4  and  C_5
REMARK    3  A    between atoms: C_15  and  O_16
REMARK    4  A    between atoms: C_18  and  C_19
REMARK    5  A    between atoms: N_21  and  C_22
REMARK                            x       y       z     vdW  Elec       q    Type
REMARK                         _______ _______ _______ _____ _____    ______ ____
ROOT
ATOM      1  C   UNL     1       1.630   9.491  22.475  0.00  0.00    +0.000 C 
ATOM      2  C   UNL     1       0.709   8.845  21.447  0.00  0.00    +0.000 C 
ATOM      3  O   UNL     1       1.356   7.650  20.994  0.00  0.00    +0.000 OA
ATOM      4  C   UNL     1       1.698   7.892  19.707  0.00  0.00    +0.000 C 
ATOM      5  N   UNL     1       1.229   8.940  19.110  0.00  0.00    +0.000 NA
ATOM      6  C   UNL     1       0.439   9.626  20.169  0.00  0.00    +0.000 C 
ENDROOT
BRANCH   4   7
ATOM      7  C   UNL     1       2.583   6.875  19.113  0.00  0.00    +0.000 A 
ATOM      8  C   UNL     1       2.583   5.577  19.621  0.00  0.00    +0.000 A 
ATOM      9  C   UNL     1       3.325   4.580  18.982  0.00  0.00    +0.000 A 
ATOM     10 CL   UNL     1       3.263   2.998  19.693  0.00  0.00    +0.000 Cl
ATOM     11  C   UNL     1       4.076   4.848  17.808  0.00  0.00    +0.000 A 
ATOM     12  C   UNL     1       4.785   3.848  17.094  0.00  0.00    +0.000 A 
ATOM     13  C   UNL     1       5.506   4.140  15.937  0.00  0.00    +0.000 A 
ATOM     14  C   UNL     1       5.568   5.443  15.477  0.00  0.00    +0.000 A 
ATOM     15  C   UNL     1       4.898   6.451  16.168  0.00  0.00    +0.000 A 
ATOM     16  C   UNL     1       4.118   6.179  17.319  0.00  0.00    +0.000 A 
ATOM     17  C   UNL     1       3.377   7.179  17.997  0.00  0.00    +0.000 A 
BRANCH  17  18
ATOM     18  O   UNL     1       3.450   8.491  17.592  0.00  0.00    +0.000 OA
ATOM     19  H   UNL     1       2.588   8.913  17.725  0.00  0.00    +0.000 HD
ENDBRANCH  17  18
ENDBRANCH   4   7
BRANCH   6  20
ATOM     20  C   UNL     1       0.841  11.099  20.237  0.00  0.00    +0.000 C 
ATOM     21  O   UNL     1       0.903  11.699  21.309  0.00  0.00    +0.000 OA
ATOM     22  N   UNL     1       1.048  11.671  19.000  0.00  0.00    +0.000 N 
ATOM     23  H   UNL     1       0.631  11.150  18.232  0.00  0.00    +0.000 HD
BRANCH  22  24
ATOM     24  C   UNL     1       1.431  13.005  18.812  0.00  0.00    +0.000 A 
ATOM     25  C   UNL     1       2.785  13.269  18.604  0.00  0.00    +0.000 A 
ATOM     26  C   UNL     1       3.231  14.584  18.457  0.00  0.00    +0.000 A 
ATOM     27  C   UNL     1       2.332  15.652  18.646  0.00  0.00    +0.000 A 
ATOM     28  N   UNL     1       2.668  16.995  18.660  0.00  0.00    +0.000 NA
ATOM     29  C   UNL     1       1.604  17.705  18.959  0.00  0.00    +0.000 A 
ATOM     30  S   UNL     1       0.136  16.843  19.137  0.00  0.00    +0.000 S 
ATOM     31  C   UNL     1       0.984  15.363  18.878  0.00  0.00    +0.000 A 
ATOM     32  C   UNL     1       0.500  14.043  18.907  0.00  0.00    +0.000 A 
ENDBRANCH  22  24
ENDBRANCH   6  20
TORSDOF 4
ENDMDL
