MODEL 1
REMARK VINA RESULT:      -8.0      0.000      0.000
REMARK  Name = 
REMARK  5 active torsions:
REMARK  status: ('A' for Active; 'I' for Inactive)
REMARK    1  A    between atoms: C_2  and  O_3
REMARK    2  A    between atoms: C_2  and  C_4
REMARK    3  A    between atoms: C_7  and  N_8
REMARK    4  A    between atoms: C_11  and  C_12
REMARK    5  A    between atoms: C_21  and  O_22
REMARK                            x       y       z     vdW  Elec       q    Type
REMARK                         _______ _______ _______ _____ _____    ______ ____
ROOT
ATOM      1  N   UNL     1       2.247   6.131  20.644  0.00  0.00    +0.000 N 
ATOM      2  C   UNL     1       2.997   5.250  19.937  0.00  0.00    +0.000 A 
ATOM      3  N   UNL     1       3.832   5.530  18.962  0.00  0.00    +0.000 NA
ATOM      4  C   UNL     1       4.354   4.380  18.397  0.00  0.00    +0.000 A 
ATOM      5  C   UNL     1       3.922   3.207  18.979  0.00  0.00    +0.000 A 
ATOM      6  S   UNL     1       2.863   3.560  20.282  0.00  0.00    +0.000 S 
ATOM      7  H   UNL     1       1.629   5.724  21.339  0.00  0.00    +0.000 HD
ENDROOT
BRANCH   1  11
ATOM      8  C   UNL     1       0.921   9.985  19.461  0.00  0.00    +0.000 A 
ATOM      9  C   UNL     1       0.698   9.504  20.756  0.00  0.00    +0.000 A 
ATOM     10  C   UNL     1       1.174   8.245  21.138  0.00  0.00    +0.000 A 
ATOM     11  C   UNL     1       1.865   7.426  20.233  0.00  0.00    +0.000 A 
ATOM     12  C   UNL     1       2.113   7.933  18.948  0.00  0.00    +0.000 A 
ATOM     13  C   UNL     1       1.643   9.195  18.569  0.00  0.00    +0.000 A 
BRANCH   8  15
ATOM     14  O   UNL     1       0.600  12.324  19.760  0.00  0.00    +0.000 OA
ATOM     15  C   UNL     1       0.355  11.320  19.111  0.00  0.00    +0.000 C 
BRANCH  15  16
ATOM     16  O   UNL     1      -0.396  11.333  17.992  0.00  0.00    +0.000 OA
ATOM     17  H   UNL     1      -1.335  11.103  18.173  0.00  0.00    +0.000 HD
ENDBRANCH  15  16
ENDBRANCH   8  15
BRANCH  13  18
ATOM     18  O   UNL     1       1.904   9.648  17.300  0.00  0.00    +0.000 OA
ATOM     19  H   UNL     1       1.895   8.882  16.700  0.00  0.00    +0.000 HD
ENDBRANCH  13  18
ENDBRANCH   1  11
BRANCH   4  20
ATOM     20  C   UNL     1       5.300   4.468  17.300  0.00  0.00    +0.000 A 
ATOM     21  C   UNL     1       4.858   4.320  15.982  0.00  0.00    +0.000 A 
ATOM     22  C   UNL     1       5.768   4.403  14.929  0.00  0.00    +0.000 A 
ATOM     23  C   UNL     1       7.100   4.626  15.231  0.00  0.00    +0.000 A 
ATOM     24  N   UNL     1       7.571   4.763  16.489  0.00  0.00    +0.000 NA
ATOM     25  C   UNL     1       6.662   4.677  17.493  0.00  0.00    +0.000 A 
ENDBRANCH   4  20
TORSDOF 5
ENDMDL
MODEL 2
REMARK VINA RESULT:      -7.6      0.965      1.612
REMARK  Name = 
REMARK  5 active torsions:
REMARK  status: ('A' for Active; 'I' for Inactive)
REMARK    1  A    between atoms: C_2  and  O_3
REMARK    2  A    between atoms: C_2  and  C_4
REMARK    3  A    between atoms: C_7  and  N_8
REMARK    4  A    between atoms: C_11  and  C_12
REMARK    5  A    between atoms: C_21  and  O_22
REMARK                            x       y       z     vdW  Elec       q    Type
REMARK                         _______ _______ _______ _____ _____    ______ ____
ROOT
ATOM      1  N   UNL     1       2.575   6.058  20.298  0.00  0.00    +0.000 N 
ATOM      2  C   UNL     1       3.340   5.241  19.532  0.00  0.00    +0.000 A 
ATOM      3  N   UNL     1       4.074   5.587  18.499  0.00  0.00    +0.000 NA
ATOM      4  C   UNL     1       4.644   4.484  17.891  0.00  0.00    +0.000 A 
ATOM      5  C   UNL     1       4.354   3.280  18.497  0.00  0.00    +0.000 A 
ATOM      6  S   UNL     1       3.371   3.547  19.877  0.00  0.00    +0.000 S 
ATOM      7  H   UNL     1       2.047   5.603  21.035  0.00  0.00    +0.000 HD
ENDROOT
BRANCH   1  11
ATOM      8  C   UNL     1       1.197   9.891  19.107  0.00  0.00    +0.000 A 
ATOM      9  C   UNL     1       1.849   9.040  18.208  0.00  0.00    +0.000 A 
ATOM     10  C   UNL     1       2.264   7.766  18.610  0.00  0.00    +0.000 A 
ATOM     11  C   UNL     1       2.059   7.317  19.923  0.00  0.00    +0.000 A 
ATOM     12  C   UNL     1       1.374   8.165  20.806  0.00  0.00    +0.000 A 
ATOM     13  C   UNL     1       0.952   9.437  20.401  0.00  0.00    +0.000 A 
BRANCH   8  15
ATOM     14  O   UNL     1      -0.285  11.734  18.841  0.00  0.00    +0.000 OA
ATOM     15  C   UNL     1       0.813  11.249  18.622  0.00  0.00    +0.000 C 
BRANCH  15  16
ATOM     16  O   UNL     1       1.795  11.911  17.979  0.00  0.00    +0.000 OA
ATOM     17  H   UNL     1       1.987  12.781  18.393  0.00  0.00    +0.000 HD
ENDBRANCH  15  16
ENDBRANCH   8  15
BRANCH  13  18
ATOM     18  O   UNL     1       0.290  10.235  21.300  0.00  0.00    +0.000 OA
ATOM     19  H   UNL     1      -0.170   9.656  21.934  0.00  0.00    +0.000 HD
ENDBRANCH  13  18
ENDBRANCH   1  11
BRANCH   4  20
ATOM     20  C   UNL     1       5.495   4.648  16.726  0.00  0.00    +0.000 A 
ATOM     21  C   UNL     1       5.201   3.963  15.543  0.00  0.00    +0.000 A 
ATOM     22  C   UNL     1       6.020   4.120  14.425  0.00  0.00    +0.000 A 
ATOM     23  C   UNL     1       7.117   4.958  14.530  0.00  0.00    +0.000 A 
ATOM     24  N   UNL     1       7.443   5.629  15.656  0.00  0.00    +0.000 NA
ATOM     25  C   UNL     1       6.628   5.456  16.727  0.00  0.00    +0.000 A 
ENDBRANCH   4  20
TORSDOF 5
ENDMDL
MODEL 3
REMARK VINA RESULT:      -7.5      4.222      7.469
REMARK  Name = 
REMARK  5 active torsions:
REMARK  status: ('A' for Active; 'I' for Inactive)
REMARK    1  A    between atoms: C_2  and  O_3
REMARK    2  A    between atoms: C_2  and  C_4
REMARK    3  A    between atoms: C_7  and  N_8
REMARK    4  A    between atoms: C_11  and  C_12
REMARK    5  A    between atoms: C_21  and  O_22
REMARK                            x       y       z     vdW  Elec       q    Type
REMARK                         _______ _______ _______ _____ _____    ______ ____
ROOT
ATOM      1  N   UNL     1       4.846   3.270  17.311  0.00  0.00    +0.000 N 
ATOM      2  C   UNL     1       4.122   4.051  18.150  0.00  0.00    +0.000 A 
ATOM      3  N   UNL     1       3.661   5.257  17.906  0.00  0.00    +0.000 NA
ATOM      4  C   UNL     1       3.051   5.801  19.021  0.00  0.00    +0.000 A 
ATOM      5  C   UNL     1       3.029   4.975  20.125  0.00  0.00    +0.000 A 
ATOM      6  S   UNL     1       3.761   3.473  19.740  0.00  0.00    +0.000 S 
ATOM      7  H   UNL     1       5.147   2.378  17.689  0.00  0.00    +0.000 HD
ENDROOT
BRANCH   1  11
ATOM      8  C   UNL     1       7.135   4.771  14.068  0.00  0.00    +0.000 A 
ATOM      9  C   UNL     1       7.470   5.067  15.394  0.00  0.00    +0.000 A 
ATOM     10  C   UNL     1       6.724   4.533  16.450  0.00  0.00    +0.000 A 
ATOM     11  C   UNL     1       5.614   3.710  16.211  0.00  0.00    +0.000 A 
ATOM     12  C   UNL     1       5.309   3.393  14.879  0.00  0.00    +0.000 A 
ATOM     13  C   UNL     1       6.060   3.920  13.823  0.00  0.00    +0.000 A 
BRANCH   8  15
ATOM     14  O   UNL     1       7.640   5.335  11.811  0.00  0.00    +0.000 OA
ATOM     15  C   UNL     1       7.951   5.402  12.990  0.00  0.00    +0.000 C 
BRANCH  15  16
ATOM     16  O   UNL     1       9.020   6.095  13.430  0.00  0.00    +0.000 OA
ATOM     17  H   UNL     1       9.813   5.949  12.869  0.00  0.00    +0.000 HD
ENDBRANCH  15  16
ENDBRANCH   8  15
BRANCH  13  18
ATOM     18  O   UNL     1       5.721   3.587  12.535  0.00  0.00    +0.000 OA
ATOM     19  H   UNL     1       5.278   2.720  12.556  0.00  0.00    +0.000 HD
ENDBRANCH  13  18
ENDBRANCH   1  11
BRANCH   4  20
ATOM     20  C   UNL     1       2.473   7.132  18.963  0.00  0.00    +0.000 A 
ATOM     21  C   UNL     1       2.582   7.892  17.795  0.00  0.00    +0.000 A 
ATOM     22  C   UNL     1       2.027   9.170  17.741  0.00  0.00    +0.000 A 
ATOM     23  C   UNL     1       1.384   9.652  18.868  0.00  0.00    +0.000 A 
ATOM     24  N   UNL     1       1.266   8.957  20.020  0.00  0.00    +0.000 NA
ATOM     25  C   UNL     1       1.816   7.716  20.042  0.00  0.00    +0.000 A 
ENDBRANCH   4  20
TORSDOF 5
ENDMDL
MODEL 4
REMARK VINA RESULT:      -7.5      0.778      1.166
REMARK  Name = 
REMARK  5 active torsions:
REMARK  status: ('A' for Active; 'I' for Inactive)
REMARK    1  A    between atoms: C_2  and  O_3
REMARK    2  A    between atoms: C_2  and  C_4
REMARK    3  A    between atoms: C_7  and  N_8
REMARK    4  A    between atoms: C_11  and  C_12
REMARK    5  A    between atoms: C_21  and  O_22
REMARK                            x       y       z     vdW  Elec       q    Type
REMARK                         _______ _______ _______ _____ _____    ______ ____
ROOT
ATOM      1  N   UNL     1       1.839   6.411  20.867  0.00  0.00    +0.000 N 
ATOM      2  C   UNL     1       2.577   5.448  20.262  0.00  0.00    +0.000 A 
ATOM      3  N   UNL     1       3.529   5.625  19.374  0.00  0.00    +0.000 NA
ATOM      4  C   UNL     1       4.003   4.418  18.893  0.00  0.00    +0.000 A 
ATOM      5  C   UNL     1       3.413   3.305  19.453  0.00  0.00    +0.000 A 
ATOM      6  S   UNL     1       2.262   3.788  20.629  0.00  0.00    +0.000 S 
ATOM      7  H   UNL     1       1.121   6.081  21.503  0.00  0.00    +0.000 HD
ENDROOT
BRANCH   1  11
ATOM      8  C   UNL     1       0.989  10.334  19.487  0.00  0.00    +0.000 A 
ATOM      9  C   UNL     1       0.732   9.955  20.810  0.00  0.00    +0.000 A 
ATOM     10  C   UNL     1       1.053   8.668  21.255  0.00  0.00    +0.000 A 
ATOM     11  C   UNL     1       1.616   7.721  20.389  0.00  0.00    +0.000 A 
ATOM     12  C   UNL     1       1.901   8.122  19.075  0.00  0.00    +0.000 A 
ATOM     13  C   UNL     1       1.587   9.411  18.632  0.00  0.00    +0.000 A 
BRANCH   8  15
ATOM     14  O   UNL     1       1.029  12.710  19.614  0.00  0.00    +0.000 OA
ATOM     15  C   UNL     1       0.589  11.709  19.070  0.00  0.00    +0.000 C 
BRANCH  15  16
ATOM     16  O   UNL     1      -0.246  11.753  18.013  0.00  0.00    +0.000 OA
ATOM     17  H   UNL     1      -1.041  11.190  18.145  0.00  0.00    +0.000 HD
ENDBRANCH  15  16
ENDBRANCH   8  15
BRANCH  13  18
ATOM     18  O   UNL     1       1.878   9.759  17.336  0.00  0.00    +0.000 OA
ATOM     19  H   UNL     1       1.956   8.939  16.816  0.00  0.00    +0.000 HD
ENDBRANCH  13  18
ENDBRANCH   1  11
BRANCH   4  20
ATOM     20  C   UNL     1       5.060   4.390  17.898  0.00  0.00    +0.000 A 
ATOM     21  C   UNL     1       6.356   4.786  18.243  0.00  0.00    +0.000 A 
ATOM     22  C   UNL     1       7.370   4.760  17.286  0.00  0.00    +0.000 A 
ATOM     23  C   UNL     1       7.051   4.343  16.005  0.00  0.00    +0.000 A 
ATOM     24  N   UNL     1       5.811   3.963  15.627  0.00  0.00    +0.000 NA
ATOM     25  C   UNL     1       4.845   3.999  16.580  0.00  0.00    +0.000 A 
ENDBRANCH   4  20
TORSDOF 5
ENDMDL
MODEL 5
REMARK VINA RESULT:      -7.4      3.550      7.349
REMARK  Name = 
REMARK  5 active torsions:
REMARK  status: ('A' for Active; 'I' for Inactive)
REMARK    1  A    between atoms: C_2  and  O_3
REMARK    2  A    between atoms: C_2  and  C_4
REMARK    3  A    between atoms: C_7  and  N_8
REMARK    4  A    between atoms: C_11  and  C_12
REMARK    5  A    between atoms: C_21  and  O_22
REMARK                            x       y       z     vdW  Elec       q    Type
REMARK                         _______ _______ _______ _____ _____    ______ ____
ROOT
ATOM      1  N   UNL     1       4.379   3.413  17.652  0.00  0.00    +0.000 N 
ATOM      2  C   UNL     1       3.647   4.122  18.546  0.00  0.00    +0.000 A 
ATOM      3  N   UNL     1       3.220   5.357  18.414  0.00  0.00    +0.000 NA
ATOM      4  C   UNL     1       2.588   5.800  19.561  0.00  0.00    +0.000 A 
ATOM      5  C   UNL     1       2.513   4.867  20.573  0.00  0.00    +0.000 A 
ATOM      6  S   UNL     1       3.224   3.394  20.057  0.00  0.00    +0.000 S 
ATOM      7  H   UNL     1       4.648   2.479  17.946  0.00  0.00    +0.000 HD
ENDROOT
BRANCH   1  11
ATOM      8  C   UNL     1       6.881   4.829  14.530  0.00  0.00    +0.000 A 
ATOM      9  C   UNL     1       5.936   3.821  14.306  0.00  0.00    +0.000 A 
ATOM     10  C   UNL     1       5.096   3.393  15.340  0.00  0.00    +0.000 A 
ATOM     11  C   UNL     1       5.191   3.943  16.626  0.00  0.00    +0.000 A 
ATOM     12  C   UNL     1       6.118   4.976  16.831  0.00  0.00    +0.000 A 
ATOM     13  C   UNL     1       6.953   5.409  15.795  0.00  0.00    +0.000 A 
BRANCH   8  15
ATOM     14  O   UNL     1       8.720   5.963  13.533  0.00  0.00    +0.000 OA
ATOM     15  C   UNL     1       7.768   5.213  13.394  0.00  0.00    +0.000 C 
BRANCH  15  16
ATOM     16  O   UNL     1       7.465   4.618  12.222  0.00  0.00    +0.000 OA
ATOM     17  H   UNL     1       8.243   4.170  11.823  0.00  0.00    +0.000 HD
ENDBRANCH  15  16
ENDBRANCH   8  15
BRANCH  13  18
ATOM     18  O   UNL     1       7.849   6.419  16.041  0.00  0.00    +0.000 OA
ATOM     19  H   UNL     1       8.279   6.651  15.199  0.00  0.00    +0.000 HD
ENDBRANCH  13  18
ENDBRANCH   1  11
BRANCH   4  20
ATOM     20  C   UNL     1       2.042   7.144  19.624  0.00  0.00    +0.000 A 
ATOM     21  C   UNL     1       2.105   7.978  18.504  0.00  0.00    +0.000 A 
ATOM     22  C   UNL     1       1.582   9.269  18.566  0.00  0.00    +0.000 A 
ATOM     23  C   UNL     1       1.013   9.688  19.757  0.00  0.00    +0.000 A 
ATOM     24  N   UNL     1       0.941   8.919  20.865  0.00  0.00    +0.000 NA
ATOM     25  C   UNL     1       1.460   7.668  20.774  0.00  0.00    +0.000 A 
ENDBRANCH   4  20
TORSDOF 5
ENDMDL
MODEL 6
REMARK VINA RESULT:      -7.4      4.235      7.513
REMARK  Name = 
REMARK  5 active torsions:
REMARK  status: ('A' for Active; 'I' for Inactive)
REMARK    1  A    between atoms: C_2  and  O_3
REMARK    2  A    between atoms: C_2  and  C_4
REMARK    3  A    between atoms: C_7  and  N_8
REMARK    4  A    between atoms: C_11  and  C_12
REMARK    5  A    between atoms: C_21  and  O_22
REMARK                            x       y       z     vdW  Elec       q    Type
REMARK                         _______ _______ _______ _____ _____    ______ ____
ROOT
ATOM      1  N   UNL     1       4.773   3.422  17.298  0.00  0.00    +0.000 N 
ATOM      2  C   UNL     1       4.053   4.239  18.106  0.00  0.00    +0.000 A 
ATOM      3  N   UNL     1       3.613   5.444  17.820  0.00  0.00    +0.000 NA
ATOM      4  C   UNL     1       3.000   6.030  18.913  0.00  0.00    +0.000 A 
ATOM      5  C   UNL     1       2.953   5.238  20.040  0.00  0.00    +0.000 A 
ATOM      6  S   UNL     1       3.666   3.714  19.708  0.00  0.00    +0.000 S 
ATOM      7  H   UNL     1       5.056   2.538  17.706  0.00  0.00    +0.000 HD
ENDROOT
BRANCH   1  11
ATOM      8  C   UNL     1       7.114   4.791  14.033  0.00  0.00    +0.000 A 
ATOM      9  C   UNL     1       7.417   5.156  15.350  0.00  0.00    +0.000 A 
ATOM     10  C   UNL     1       6.654   4.665  16.415  0.00  0.00    +0.000 A 
ATOM     11  C   UNL     1       5.560   3.817  16.194  0.00  0.00    +0.000 A 
ATOM     12  C   UNL     1       5.287   3.431  14.873  0.00  0.00    +0.000 A 
ATOM     13  C   UNL     1       6.054   3.916  13.808  0.00  0.00    +0.000 A 
BRANCH   8  15
ATOM     14  O   UNL     1       7.626   5.308  11.767  0.00  0.00    +0.000 OA
ATOM     15  C   UNL     1       7.946   5.379  12.943  0.00  0.00    +0.000 C 
BRANCH  15  16
ATOM     16  O   UNL     1       9.041   6.038  13.369  0.00  0.00    +0.000 OA
ATOM     17  H   UNL     1       9.811   5.900  12.774  0.00  0.00    +0.000 HD
ENDBRANCH  15  16
ENDBRANCH   8  15
BRANCH  13  18
ATOM     18  O   UNL     1       5.748   3.516  12.532  0.00  0.00    +0.000 OA
ATOM     19  H   UNL     1       6.534   3.081  12.157  0.00  0.00    +0.000 HD
ENDBRANCH  13  18
ENDBRANCH   1  11
BRANCH   4  20
ATOM     20  C   UNL     1       2.443   7.367  18.809  0.00  0.00    +0.000 A 
ATOM     21  C   UNL     1       1.727   7.912  19.879  0.00  0.00    +0.000 A 
ATOM     22  C   UNL     1       1.192   9.195  19.778  0.00  0.00    +0.000 A 
ATOM     23  C   UNL     1       1.386   9.895  18.599  0.00  0.00    +0.000 A 
ATOM     24  N   UNL     1       2.062   9.402  17.538  0.00  0.00    +0.000 NA
ATOM     25  C   UNL     1       2.570   8.151  17.666  0.00  0.00    +0.000 A 
ENDBRANCH   4  20
TORSDOF 5
ENDMDL
MODEL 7
REMARK VINA RESULT:      -7.4      3.563      7.375
REMARK  Name = 
REMARK  5 active torsions:
REMARK  status: ('A' for Active; 'I' for Inactive)
REMARK    1  A    between atoms: C_2  and  O_3
REMARK    2  A    between atoms: C_2  and  C_4
REMARK    3  A    between atoms: C_7  and  N_8
REMARK    4  A    between atoms: C_11  and  C_12
REMARK    5  A    between atoms: C_21  and  O_22
REMARK                            x       y       z     vdW  Elec       q    Type
REMARK                         _______ _______ _______ _____ _____    ______ ____
ROOT
ATOM      1  N   UNL     1       4.431   3.315  17.615  0.00  0.00    +0.000 N 
ATOM      2  C   UNL     1       3.705   3.997  18.535  0.00  0.00    +0.000 A 
ATOM      3  N   UNL     1       3.275   5.235  18.440  0.00  0.00    +0.000 NA
ATOM      4  C   UNL     1       2.651   5.645  19.605  0.00  0.00    +0.000 A 
ATOM      5  C   UNL     1       2.586   4.683  20.590  0.00  0.00    +0.000 A 
ATOM      6  S   UNL     1       3.295   3.226  20.028  0.00  0.00    +0.000 S 
ATOM      7  H   UNL     1       4.704   2.374  17.880  0.00  0.00    +0.000 HD
ENDROOT
BRANCH   1  11
ATOM      8  C   UNL     1       6.908   4.823  14.517  0.00  0.00    +0.000 A 
ATOM      9  C   UNL     1       5.985   3.799  14.278  0.00  0.00    +0.000 A 
ATOM     10  C   UNL     1       5.152   3.341  15.304  0.00  0.00    +0.000 A 
ATOM     11  C   UNL     1       5.234   3.875  16.598  0.00  0.00    +0.000 A 
ATOM     12  C   UNL     1       6.139   4.924  16.818  0.00  0.00    +0.000 A 
ATOM     13  C   UNL     1       6.967   5.387  15.790  0.00  0.00    +0.000 A 
BRANCH   8  15
ATOM     14  O   UNL     1       8.747   5.980  13.545  0.00  0.00    +0.000 OA
ATOM     15  C   UNL     1       7.789   5.240  13.388  0.00  0.00    +0.000 C 
BRANCH  15  16
ATOM     16  O   UNL     1       7.476   4.686  12.200  0.00  0.00    +0.000 OA
ATOM     17  H   UNL     1       6.504   4.648  12.054  0.00  0.00    +0.000 HD
ENDBRANCH  15  16
ENDBRANCH   8  15
BRANCH  13  18
ATOM     18  O   UNL     1       7.842   6.412  16.051  0.00  0.00    +0.000 OA
ATOM     19  H   UNL     1       7.819   6.589  17.009  0.00  0.00    +0.000 HD
ENDBRANCH  13  18
ENDBRANCH   1  11
BRANCH   4  20
ATOM     20  C   UNL     1       2.104   6.985  19.710  0.00  0.00    +0.000 A 
ATOM     21  C   UNL     1       1.445   7.383  20.877  0.00  0.00    +0.000 A 
ATOM     22  C   UNL     1       0.918   8.670  20.976  0.00  0.00    +0.000 A 
ATOM     23  C   UNL     1       1.062   9.521  19.893  0.00  0.00    +0.000 A 
ATOM     24  N   UNL     1       1.681   9.174  18.744  0.00  0.00    +0.000 NA
ATOM     25  C   UNL     1       2.183   7.915  18.677  0.00  0.00    +0.000 A 
ENDBRANCH   4  20
TORSDOF 5
ENDMDL
MODEL 8
REMARK VINA RESULT:      -7.3      0.938      1.195
REMARK  Name = 
REMARK  5 active torsions:
REMARK  status: ('A' for Active; 'I' for Inactive)
REMARK    1  A    between atoms: C_2  and  O_3
REMARK    2  A    between atoms: C_2  and  C_4
REMARK    3  A    between atoms: C_7  and  N_8
REMARK    4  A    between atoms: C_11  and  C_12
REMARK    5  A    between atoms: C_21  and  O_22
REMARK                            x       y       z     vdW  Elec       q    Type
REMARK                         _______ _______ _______ _____ _____    ______ ____
ROOT
ATOM      1  N   UNL     1       2.093   6.570  20.640  0.00  0.00    +0.000 N 
ATOM      2  C   UNL     1       2.749   5.689  19.845  0.00  0.00    +0.000 A 
ATOM      3  N   UNL     1       3.467   5.969  18.781  0.00  0.00    +0.000 NA
ATOM      4  C   UNL     1       3.911   4.819  18.153  0.00  0.00    +0.000 A 
ATOM      5  C   UNL     1       3.541   3.646  18.775  0.00  0.00    +0.000 A 
ATOM      6  S   UNL     1       2.644   3.998  20.194  0.00  0.00    +0.000 S 
ATOM      7  H   UNL     1       1.557   6.164  21.399  0.00  0.00    +0.000 HD
ENDROOT
BRANCH   1  11
ATOM      8  C   UNL     1       0.663  10.435  19.624  0.00  0.00    +0.000 A 
ATOM      9  C   UNL     1       0.491   9.910  20.910  0.00  0.00    +0.000 A 
ATOM     10  C   UNL     1       1.002   8.649  21.235  0.00  0.00    +0.000 A 
ATOM     11  C   UNL     1       1.675   7.871  20.282  0.00  0.00    +0.000 A 
ATOM     12  C   UNL     1       1.871   8.421  19.006  0.00  0.00    +0.000 A 
ATOM     13  C   UNL     1       1.367   9.686  18.684  0.00  0.00    +0.000 A 
BRANCH   8  15
ATOM     14  O   UNL     1      -0.630  11.975  18.351  0.00  0.00    +0.000 OA
ATOM     15  C   UNL     1       0.062  11.770  19.335  0.00  0.00    +0.000 C 
BRANCH  15  16
ATOM     16  O   UNL     1       0.301  12.706  20.275  0.00  0.00    +0.000 OA
ATOM     17  H   UNL     1      -0.221  13.525  20.123  0.00  0.00    +0.000 HD
ENDBRANCH  15  16
ENDBRANCH   8  15
BRANCH  13  18
ATOM     18  O   UNL     1       1.577  10.183  17.422  0.00  0.00    +0.000 OA
ATOM     19  H   UNL     1       0.876   9.835  16.841  0.00  0.00    +0.000 HD
ENDBRANCH  13  18
ENDBRANCH   1  11
BRANCH   4  20
ATOM     20  C   UNL     1       4.723   4.907  16.954  0.00  0.00    +0.000 A 
ATOM     21  C   UNL     1       5.247   3.746  16.376  0.00  0.00    +0.000 A 
ATOM     22  C   UNL     1       6.028   3.832  15.225  0.00  0.00    +0.000 A 
ATOM     23  C   UNL     1       6.268   5.086  14.688  0.00  0.00    +0.000 A 
ATOM     24  N   UNL     1       5.791   6.232  15.220  0.00  0.00    +0.000 NA
ATOM     25  C   UNL     1       5.035   6.117  16.341  0.00  0.00    +0.000 A 
ENDBRANCH   4  20
TORSDOF 5
ENDMDL
MODEL 9
REMARK VINA RESULT:      -7.2      4.403      8.018
REMARK  Name = 
REMARK  5 active torsions:
REMARK  status: ('A' for Active; 'I' for Inactive)
REMARK    1  A    between atoms: C_2  and  O_3
REMARK    2  A    between atoms: C_2  and  C_4
REMARK    3  A    between atoms: C_7  and  N_8
REMARK    4  A    between atoms: C_11  and  C_12
REMARK    5  A    between atoms: C_21  and  O_22
REMARK                            x       y       z     vdW  Elec       q    Type
REMARK                         _______ _______ _______ _____ _____    ______ ____
ROOT
ATOM      1  N   UNL     1       1.551   8.674  20.767  0.00  0.00    +0.000 N 
ATOM      2  C   UNL     1       0.697   9.636  20.337  0.00  0.00    +0.000 A 
ATOM      3  N   UNL     1      -0.270   9.498  19.459  0.00  0.00    +0.000 NA
ATOM      4  C   UNL     1      -0.879  10.709  19.182  0.00  0.00    +0.000 A 
ATOM      5  C   UNL     1      -0.376  11.780  19.889  0.00  0.00    +0.000 A 
ATOM      6  S   UNL     1       0.865  11.246  20.946  0.00  0.00    +0.000 S 
ATOM      7  H   UNL     1       2.260   8.978  21.426  0.00  0.00    +0.000 HD
ENDROOT
BRANCH   1  11
ATOM      8  C   UNL     1       2.442   5.153  18.572  0.00  0.00    +0.000 A 
ATOM      9  C   UNL     1       2.754   6.422  18.071  0.00  0.00    +0.000 A 
ATOM     10  C   UNL     1       2.485   7.569  18.826  0.00  0.00    +0.000 A 
ATOM     11  C   UNL     1       1.879   7.481  20.087  0.00  0.00    +0.000 A 
ATOM     12  C   UNL     1       1.602   6.202  20.594  0.00  0.00    +0.000 A 
ATOM     13  C   UNL     1       1.878   5.055  19.842  0.00  0.00    +0.000 A 
BRANCH   8  15
ATOM     14  O   UNL     1       3.821   3.777  17.205  0.00  0.00    +0.000 OA
ATOM     15  C   UNL     1       2.724   3.975  17.701  0.00  0.00    +0.000 C 
BRANCH  15  16
ATOM     16  O   UNL     1       1.687   3.126  17.556  0.00  0.00    +0.000 OA
ATOM     17  H   UNL     1       1.256   2.919  18.415  0.00  0.00    +0.000 HD
ENDBRANCH  15  16
ENDBRANCH   8  15
BRANCH  13  18
ATOM     18  O   UNL     1       1.585   3.825  20.375  0.00  0.00    +0.000 OA
ATOM     19  H   UNL     1       1.520   3.924  21.342  0.00  0.00    +0.000 HD
ENDBRANCH  13  18
ENDBRANCH   1  11
BRANCH   4  20
ATOM     20  C   UNL     1      -1.975  10.776  18.233  0.00  0.00    +0.000 A 
ATOM     21  C   UNL     1      -1.905  10.065  17.031  0.00  0.00    +0.000 A 
ATOM     22  C   UNL     1      -2.958  10.132  16.120  0.00  0.00    +0.000 A 
ATOM     23  C   UNL     1      -4.052  10.919  16.439  0.00  0.00    +0.000 A 
ATOM     24  N   UNL     1      -4.155  11.630  17.583  0.00  0.00    +0.000 NA
ATOM     25  C   UNL     1      -3.114  11.546  18.450  0.00  0.00    +0.000 A 
ENDBRANCH   4  20
TORSDOF 5
ENDMDL
