MODEL 1
REMARK VINA RESULT:      -8.5      0.000      0.000
REMARK  Name = 
REMARK  6 active torsions:
REMARK  status: ('A' for Active; 'I' for Inactive)
REMARK    1  A    between atoms: C_1  and  N_2
REMARK    2  A    between atoms: N_2  and  C_3
REMARK    3  A    between atoms: N_6  and  C_7
REMARK    4  A    between atoms: N_9  and  C_10
REMARK    5  A    between atoms: C_18  and  C_19
REMARK    6  A    between atoms: C_22  and  C_23
REMARK                            x       y       z     vdW  Elec       q    Type
REMARK                         _______ _______ _______ _____ _____    ______ ____
ROOT
ATOM      1  C   UNL     1       0.933   9.228  20.500  0.00  0.00    +0.000 A 
ATOM      2  N   UNL     1       1.399   7.982  20.747  0.00  0.00    +0.000 NA
ATOM      3  C   UNL     1       2.129   7.369  19.808  0.00  0.00    +0.000 A 
ATOM      4  N   UNL     1       2.636   6.099  20.107  0.00  0.00    +0.000 N 
ATOM      5  N   UNL     1       2.366   7.913  18.609  0.00  0.00    +0.000 NA
ATOM      6  C   UNL     1       1.858   9.121  18.362  0.00  0.00    +0.000 A 
ATOM      7  C   UNL     1       1.138   9.841  19.279  0.00  0.00    +0.000 A 
ATOM      8  H   UNL     1       2.135   5.723  20.902  0.00  0.00    +0.000 HD
ENDROOT
BRANCH   4   9
ATOM      9  C   UNL     1       3.456   5.355  19.339  0.00  0.00    +0.000 A 
ATOM     10  C   UNL     1       4.823   5.295  19.439  0.00  0.00    +0.000 A 
ATOM     11  N   UNL     1       5.248   4.565  18.374  0.00  0.00    +0.000 N 
ATOM     12  N   UNL     1       4.238   3.971  17.710  0.00  0.00    +0.000 NA
ATOM     13  C   UNL     1       3.131   4.487  18.269  0.00  0.00    +0.000 A 
ATOM     14  C   UNL     1       1.799   4.163  17.707  0.00  0.00    +0.000 C 
BRANCH  11  15
ATOM     15  C   UNL     1       6.635   4.437  17.946  0.00  0.00    +0.000 C 
ATOM     16  C   UNL     1       6.773   4.291  16.430  0.00  0.00    +0.000 C 
ATOM     17  C   UNL     1       6.625   5.632  15.720  0.00  0.00    +0.000 C 
ATOM     18  O   UNL     1       7.537   6.595  16.254  0.00  0.00    +0.000 OA
ATOM     19  C   UNL     1       7.316   6.849  17.646  0.00  0.00    +0.000 C 
ATOM     20  C   UNL     1       7.516   5.577  18.456  0.00  0.00    +0.000 C 
ATOM     21  F   UNL     1       7.313   5.803  19.778  0.00  0.00    +0.000 F 
ENDBRANCH  11  15
ENDBRANCH   4   9
BRANCH   7  22
ATOM     22  C   UNL     1       0.675  11.197  18.881  0.00  0.00    +0.000 C 
ATOM     23  F   UNL     1       0.462  12.073  19.897  0.00  0.00    +0.000 F 
ATOM     24  F   UNL     1       1.584  11.811  18.066  0.00  0.00    +0.000 F 
ATOM     25  F   UNL     1      -0.482  11.158  18.161  0.00  0.00    +0.000 F 
ENDBRANCH   7  22
BRANCH   1  27
ATOM     26  C   UNL     1       0.344   9.338  22.843  0.00  0.00    +0.000 C 
ATOM     27  N   UNL     1       0.182   9.864  21.497  0.00  0.00    +0.000 N 
ATOM     28  H   UNL     1       0.312  10.874  21.471  0.00  0.00    +0.000 HD
ENDBRANCH   1  27
TORSDOF 4
ENDMDL
MODEL 2
REMARK VINA RESULT:      -8.2      2.861      4.326
REMARK  Name = 
REMARK  6 active torsions:
REMARK  status: ('A' for Active; 'I' for Inactive)
REMARK    1  A    between atoms: C_1  and  N_2
REMARK    2  A    between atoms: N_2  and  C_3
REMARK    3  A    between atoms: N_6  and  C_7
REMARK    4  A    between atoms: N_9  and  C_10
REMARK    5  A    between atoms: C_18  and  C_19
REMARK    6  A    between atoms: C_22  and  C_23
REMARK                            x       y       z     vdW  Elec       q    Type
REMARK                         _______ _______ _______ _____ _____    ______ ____
ROOT
ATOM      1  C   UNL     1       1.513   9.697  18.573  0.00  0.00    +0.000 A 
ATOM      2  N   UNL     1       2.418   8.913  17.942  0.00  0.00    +0.000 NA
ATOM      3  C   UNL     1       2.760   7.747  18.500  0.00  0.00    +0.000 A 
ATOM      4  N   UNL     1       3.663   6.935  17.803  0.00  0.00    +0.000 N 
ATOM      5  N   UNL     1       2.292   7.351  19.689  0.00  0.00    +0.000 NA
ATOM      6  C   UNL     1       1.440   8.157  20.323  0.00  0.00    +0.000 A 
ATOM      7  C   UNL     1       0.999   9.347  19.807  0.00  0.00    +0.000 A 
ATOM      8  H   UNL     1       4.131   7.490  17.100  0.00  0.00    +0.000 HD
ENDROOT
BRANCH   4   9
ATOM      9  C   UNL     1       4.069   5.696  18.149  0.00  0.00    +0.000 A 
ATOM     10  C   UNL     1       3.259   4.608  18.354  0.00  0.00    +0.000 A 
ATOM     11  N   UNL     1       4.061   3.627  18.845  0.00  0.00    +0.000 N 
ATOM     12  N   UNL     1       5.370   3.936  18.773  0.00  0.00    +0.000 NA
ATOM     13  C   UNL     1       5.381   5.223  18.389  0.00  0.00    +0.000 A 
ATOM     14  C   UNL     1       6.663   5.964  18.322  0.00  0.00    +0.000 C 
BRANCH  11  15
ATOM     15  C   UNL     1       3.593   2.374  19.423  0.00  0.00    +0.000 C 
ATOM     16  C   UNL     1       3.475   2.436  20.946  0.00  0.00    +0.000 C 
ATOM     17  C   UNL     1       2.211   3.167  21.384  0.00  0.00    +0.000 C 
ATOM     18  O   UNL     1       1.052   2.590  20.776  0.00  0.00    +0.000 OA
ATOM     19  C   UNL     1       1.087   2.663  19.346  0.00  0.00    +0.000 C 
ATOM     20  C   UNL     1       2.282   1.893  18.804  0.00  0.00    +0.000 C 
ATOM     21  F   UNL     1       2.325   1.950  17.450  0.00  0.00    +0.000 F 
ENDBRANCH  11  15
ENDBRANCH   4   9
BRANCH   7  22
ATOM     22  C   UNL     1       0.010  10.120  20.604  0.00  0.00    +0.000 C 
ATOM     23  F   UNL     1       0.439  11.316  21.083  0.00  0.00    +0.000 F 
ATOM     24  F   UNL     1      -1.102  10.411  19.865  0.00  0.00    +0.000 F 
ATOM     25  F   UNL     1      -0.449   9.420  21.680  0.00  0.00    +0.000 F 
ENDBRANCH   7  22
BRANCH   1  27
ATOM     26  C   UNL     1       2.052  12.027  18.212  0.00  0.00    +0.000 C 
ATOM     27  N   UNL     1       1.152  10.910  17.971  0.00  0.00    +0.000 N 
ATOM     28  H   UNL     1       0.964  10.788  16.978  0.00  0.00    +0.000 HD
ENDBRANCH   1  27
TORSDOF 4
ENDMDL
MODEL 3
REMARK VINA RESULT:      -8.1      4.899      8.176
REMARK  Name = 
REMARK  6 active torsions:
REMARK  status: ('A' for Active; 'I' for Inactive)
REMARK    1  A    between atoms: C_1  and  N_2
REMARK    2  A    between atoms: N_2  and  C_3
REMARK    3  A    between atoms: N_6  and  C_7
REMARK    4  A    between atoms: N_9  and  C_10
REMARK    5  A    between atoms: C_18  and  C_19
REMARK    6  A    between atoms: C_22  and  C_23
REMARK                            x       y       z     vdW  Elec       q    Type
REMARK                         _______ _______ _______ _____ _____    ______ ____
ROOT
ATOM      1  C   UNL     1       7.453   4.947  13.940  0.00  0.00    +0.000 A 
ATOM      2  N   UNL     1       7.295   5.491  15.169  0.00  0.00    +0.000 NA
ATOM      3  C   UNL     1       6.204   5.179  15.877  0.00  0.00    +0.000 A 
ATOM      4  N   UNL     1       6.089   5.721  17.163  0.00  0.00    +0.000 N 
ATOM      5  N   UNL     1       5.230   4.400  15.395  0.00  0.00    +0.000 NA
ATOM      6  C   UNL     1       5.376   3.910  14.163  0.00  0.00    +0.000 A 
ATOM      7  C   UNL     1       6.479   4.139  13.384  0.00  0.00    +0.000 A 
ATOM      8  H   UNL     1       6.734   6.495  17.254  0.00  0.00    +0.000 HD
ENDROOT
BRANCH   4   9
ATOM      9  C   UNL     1       5.117   5.467  18.062  0.00  0.00    +0.000 A 
ATOM     10  C   UNL     1       5.076   4.403  18.928  0.00  0.00    +0.000 A 
ATOM     11  N   UNL     1       3.855   4.448  19.523  0.00  0.00    +0.000 N 
ATOM     12  N   UNL     1       3.185   5.586  19.259  0.00  0.00    +0.000 NA
ATOM     13  C   UNL     1       3.934   6.197  18.327  0.00  0.00    +0.000 A 
ATOM     14  C   UNL     1       3.447   7.441  17.685  0.00  0.00    +0.000 C 
BRANCH  11  15
ATOM     15  C   UNL     1       3.283   3.386  20.342  0.00  0.00    +0.000 C 
ATOM     16  C   UNL     1       2.117   3.871  21.205  0.00  0.00    +0.000 C 
ATOM     17  C   UNL     1       0.834   4.004  20.393  0.00  0.00    +0.000 C 
ATOM     18  O   UNL     1       0.531   2.783  19.714  0.00  0.00    +0.000 OA
ATOM     19  C   UNL     1       1.556   2.399  18.790  0.00  0.00    +0.000 C 
ATOM     20  C   UNL     1       2.870   2.166  19.520  0.00  0.00    +0.000 C 
ATOM     21  F   UNL     1       3.849   1.798  18.657  0.00  0.00    +0.000 F 
ENDBRANCH  11  15
ENDBRANCH   4   9
BRANCH   7  22
ATOM     22  C   UNL     1       6.527   3.489  12.048  0.00  0.00    +0.000 C 
ATOM     23  F   UNL     1       7.588   2.670  11.823  0.00  0.00    +0.000 F 
ATOM     24  F   UNL     1       5.425   2.709  11.838  0.00  0.00    +0.000 F 
ATOM     25  F   UNL     1       6.523   4.396  11.030  0.00  0.00    +0.000 F 
ENDBRANCH   7  22
BRANCH   1  27
ATOM     26  C   UNL     1       8.468   6.357  12.257  0.00  0.00    +0.000 C 
ATOM     27  N   UNL     1       8.607   5.270  13.215  0.00  0.00    +0.000 N 
ATOM     28  H   UNL     1       9.403   5.415  13.832  0.00  0.00    +0.000 HD
ENDBRANCH   1  27
TORSDOF 4
ENDMDL
MODEL 4
REMARK VINA RESULT:      -7.9      1.711      2.501
REMARK  Name = 
REMARK  6 active torsions:
REMARK  status: ('A' for Active; 'I' for Inactive)
REMARK    1  A    between atoms: C_1  and  N_2
REMARK    2  A    between atoms: N_2  and  C_3
REMARK    3  A    between atoms: N_6  and  C_7
REMARK    4  A    between atoms: N_9  and  C_10
REMARK    5  A    between atoms: C_18  and  C_19
REMARK    6  A    between atoms: C_22  and  C_23
REMARK                            x       y       z     vdW  Elec       q    Type
REMARK                         _______ _______ _______ _____ _____    ______ ____
ROOT
ATOM      1  C   UNL     1       0.427   9.741  20.026  0.00  0.00    +0.000 A 
ATOM      2  N   UNL     1       1.039   9.170  18.962  0.00  0.00    +0.000 NA
ATOM      3  C   UNL     1       1.797   8.086  19.160  0.00  0.00    +0.000 A 
ATOM      4  N   UNL     1       2.382   7.490  18.036  0.00  0.00    +0.000 N 
ATOM      5  N   UNL     1       2.026   7.578  20.376  0.00  0.00    +0.000 NA
ATOM      6  C   UNL     1       1.456   8.181  21.420  0.00  0.00    +0.000 A 
ATOM      7  C   UNL     1       0.628   9.267  21.308  0.00  0.00    +0.000 A 
ATOM      8  H   UNL     1       2.358   8.144  17.265  0.00  0.00    +0.000 HD
ENDROOT
BRANCH   4   9
ATOM      9  C   UNL     1       3.106   6.353  18.010  0.00  0.00    +0.000 A 
ATOM     10  C   UNL     1       4.474   6.265  18.073  0.00  0.00    +0.000 A 
ATOM     11  N   UNL     1       4.779   4.960  17.846  0.00  0.00    +0.000 N 
ATOM     12  N   UNL     1       3.696   4.161  17.850  0.00  0.00    +0.000 NA
ATOM     13  C   UNL     1       2.660   5.014  17.906  0.00  0.00    +0.000 A 
ATOM     14  C   UNL     1       1.273   4.502  17.799  0.00  0.00    +0.000 C 
BRANCH  11  15
ATOM     15  C   UNL     1       6.118   4.446  17.590  0.00  0.00    +0.000 C 
ATOM     16  C   UNL     1       6.344   4.095  16.119  0.00  0.00    +0.000 C 
ATOM     17  C   UNL     1       6.608   5.339  15.278  0.00  0.00    +0.000 C 
ATOM     18  O   UNL     1       7.688   6.103  15.822  0.00  0.00    +0.000 OA
ATOM     19  C   UNL     1       7.420   6.563  17.152  0.00  0.00    +0.000 C 
ATOM     20  C   UNL     1       7.216   5.383  18.091  0.00  0.00    +0.000 C 
ATOM     21  F   UNL     1       6.965   5.804  19.355  0.00  0.00    +0.000 F 
ENDBRANCH  11  15
ENDBRANCH   4   9
BRANCH   7  22
ATOM     22  C   UNL     1       0.024   9.805  22.554  0.00  0.00    +0.000 C 
ATOM     23  F   UNL     1      -0.146  11.152  22.598  0.00  0.00    +0.000 F 
ATOM     24  F   UNL     1      -1.220   9.282  22.767  0.00  0.00    +0.000 F 
ATOM     25  F   UNL     1       0.745   9.476  23.664  0.00  0.00    +0.000 F 
ENDBRANCH   7  22
BRANCH   1  27
ATOM     26  C   UNL     1       0.209  11.905  18.968  0.00  0.00    +0.000 C 
ATOM     27  N   UNL     1      -0.376  10.867  19.803  0.00  0.00    +0.000 N 
ATOM     28  H   UNL     1      -1.303  10.602  19.476  0.00  0.00    +0.000 HD
ENDBRANCH   1  27
TORSDOF 4
ENDMDL
MODEL 5
REMARK VINA RESULT:      -7.8      2.813      4.178
REMARK  Name = 
REMARK  6 active torsions:
REMARK  status: ('A' for Active; 'I' for Inactive)
REMARK    1  A    between atoms: C_1  and  N_2
REMARK    2  A    between atoms: N_2  and  C_3
REMARK    3  A    between atoms: N_6  and  C_7
REMARK    4  A    between atoms: N_9  and  C_10
REMARK    5  A    between atoms: C_18  and  C_19
REMARK    6  A    between atoms: C_22  and  C_23
REMARK                            x       y       z     vdW  Elec       q    Type
REMARK                         _______ _______ _______ _____ _____    ______ ____
ROOT
ATOM      1  C   UNL     1       1.227  10.496  18.772  0.00  0.00    +0.000 A 
ATOM      2  N   UNL     1       1.996   9.684  18.009  0.00  0.00    +0.000 NA
ATOM      3  C   UNL     1       2.236   8.438  18.432  0.00  0.00    +0.000 A 
ATOM      4  N   UNL     1       2.996   7.606  17.603  0.00  0.00    +0.000 N 
ATOM      5  N   UNL     1       1.798   7.980  19.611  0.00  0.00    +0.000 NA
ATOM      6  C   UNL     1       1.084   8.808  20.374  0.00  0.00    +0.000 A 
ATOM      7  C   UNL     1       0.751  10.083  20.001  0.00  0.00    +0.000 A 
ATOM      8  H   UNL     1       3.482   8.174  16.921  0.00  0.00    +0.000 HD
ENDROOT
BRANCH   4   9
ATOM      9  C   UNL     1       3.278   6.303  17.804  0.00  0.00    +0.000 A 
ATOM     10  C   UNL     1       2.363   5.298  17.993  0.00  0.00    +0.000 A 
ATOM     11  N   UNL     1       3.079   4.192  18.323  0.00  0.00    +0.000 N 
ATOM     12  N   UNL     1       4.405   4.358  18.154  0.00  0.00    +0.000 NA
ATOM     13  C   UNL     1       4.539   5.665  17.879  0.00  0.00    +0.000 A 
ATOM     14  C   UNL     1       5.891   6.260  17.753  0.00  0.00    +0.000 C 
BRANCH  11  15
ATOM     15  C   UNL     1       2.515   2.951  18.836  0.00  0.00    +0.000 C 
ATOM     16  C   UNL     1       3.584   1.907  19.162  0.00  0.00    +0.000 C 
ATOM     17  C   UNL     1       4.271   2.202  20.490  0.00  0.00    +0.000 C 
ATOM     18  O   UNL     1       3.312   2.337  21.542  0.00  0.00    +0.000 OA
ATOM     19  C   UNL     1       2.395   3.413  21.314  0.00  0.00    +0.000 C 
ATOM     20  C   UNL     1       1.600   3.173  20.040  0.00  0.00    +0.000 C 
ATOM     21  F   UNL     1       0.724   4.184  19.813  0.00  0.00    +0.000 F 
ENDBRANCH  11  15
ENDBRANCH   4   9
BRANCH   7  22
ATOM     22  C   UNL     1      -0.093  10.876  20.934  0.00  0.00    +0.000 C 
ATOM     23  F   UNL     1      -1.262  11.343  20.425  0.00  0.00    +0.000 F 
ATOM     24  F   UNL     1      -0.449  10.139  22.027  0.00  0.00    +0.000 F 
ATOM     25  F   UNL     1       0.566  11.961  21.434  0.00  0.00    +0.000 F 
ENDBRANCH   7  22
BRANCH   1  27
ATOM     26  C   UNL     1       2.078  12.732  18.418  0.00  0.00    +0.000 C 
ATOM     27  N   UNL     1       0.972  11.793  18.310  0.00  0.00    +0.000 N 
ATOM     28  H   UNL     1       0.582  11.781  17.370  0.00  0.00    +0.000 HD
ENDBRANCH   1  27
TORSDOF 4
ENDMDL
MODEL 6
REMARK VINA RESULT:      -7.8      1.568      2.042
REMARK  Name = 
REMARK  6 active torsions:
REMARK  status: ('A' for Active; 'I' for Inactive)
REMARK    1  A    between atoms: C_1  and  N_2
REMARK    2  A    between atoms: N_2  and  C_3
REMARK    3  A    between atoms: N_6  and  C_7
REMARK    4  A    between atoms: N_9  and  C_10
REMARK    5  A    between atoms: C_18  and  C_19
REMARK    6  A    between atoms: C_22  and  C_23
REMARK                            x       y       z     vdW  Elec       q    Type
REMARK                         _______ _______ _______ _____ _____    ______ ____
ROOT
ATOM      1  C   UNL     1       0.350   9.679  20.839  0.00  0.00    +0.000 A 
ATOM      2  N   UNL     1       1.002   8.494  20.874  0.00  0.00    +0.000 NA
ATOM      3  C   UNL     1       1.672   8.094  19.788  0.00  0.00    +0.000 A 
ATOM      4  N   UNL     1       2.374   6.885  19.867  0.00  0.00    +0.000 N 
ATOM      5  N   UNL     1       1.674   8.788  18.645  0.00  0.00    +0.000 NA
ATOM      6  C   UNL     1       0.986   9.930  18.609  0.00  0.00    +0.000 A 
ATOM      7  C   UNL     1       0.309  10.440  19.686  0.00  0.00    +0.000 A 
ATOM      8  H   UNL     1       2.038   6.360  20.664  0.00  0.00    +0.000 HD
ENDROOT
BRANCH   4   9
ATOM      9  C   UNL     1       3.173   6.351  18.921  0.00  0.00    +0.000 A 
ATOM     10  C   UNL     1       4.461   6.731  18.643  0.00  0.00    +0.000 A 
ATOM     11  N   UNL     1       4.821   6.053  17.521  0.00  0.00    +0.000 N 
ATOM     12  N   UNL     1       3.931   5.104  17.176  0.00  0.00    +0.000 NA
ATOM     13  C   UNL     1       2.894   5.310  18.004  0.00  0.00    +0.000 A 
ATOM     14  C   UNL     1       1.648   4.525  17.839  0.00  0.00    +0.000 C 
BRANCH  11  15
ATOM     15  C   UNL     1       6.017   6.316  16.732  0.00  0.00    +0.000 C 
ATOM     16  C   UNL     1       7.289   6.341  17.579  0.00  0.00    +0.000 C 
ATOM     17  C   UNL     1       7.765   4.933  17.921  0.00  0.00    +0.000 C 
ATOM     18  O   UNL     1       7.921   4.146  16.738  0.00  0.00    +0.000 OA
ATOM     19  C   UNL     1       6.694   3.994  16.014  0.00  0.00    +0.000 C 
ATOM     20  C   UNL     1       6.173   5.349  15.559  0.00  0.00    +0.000 C 
ATOM     21  F   UNL     1       5.014   5.220  14.869  0.00  0.00    +0.000 F 
ENDBRANCH  11  15
ENDBRANCH   4   9
BRANCH   7  22
ATOM     22  C   UNL     1      -0.374  11.749  19.515  0.00  0.00    +0.000 C 
ATOM     23  F   UNL     1      -1.707  11.762  19.773  0.00  0.00    +0.000 F 
ATOM     24  F   UNL     1       0.158  12.697  20.343  0.00  0.00    +0.000 F 
ATOM     25  F   UNL     1      -0.225  12.251  18.255  0.00  0.00    +0.000 F 
ENDBRANCH   7  22
BRANCH   1  27
ATOM     26  C   UNL     1       0.010   9.394  23.216  0.00  0.00    +0.000 C 
ATOM     27  N   UNL     1      -0.335  10.094  21.988  0.00  0.00    +0.000 N 
ATOM     28  H   UNL     1      -0.285  11.103  22.105  0.00  0.00    +0.000 HD
ENDBRANCH   1  27
TORSDOF 4
ENDMDL
MODEL 7
REMARK VINA RESULT:      -7.7      4.723      7.982
REMARK  Name = 
REMARK  6 active torsions:
REMARK  status: ('A' for Active; 'I' for Inactive)
REMARK    1  A    between atoms: C_1  and  N_2
REMARK    2  A    between atoms: N_2  and  C_3
REMARK    3  A    between atoms: N_6  and  C_7
REMARK    4  A    between atoms: N_9  and  C_10
REMARK    5  A    between atoms: C_18  and  C_19
REMARK    6  A    between atoms: C_22  and  C_23
REMARK                            x       y       z     vdW  Elec       q    Type
REMARK                         _______ _______ _______ _____ _____    ______ ____
ROOT
ATOM      1  C   UNL     1       7.353   4.998  14.135  0.00  0.00    +0.000 A 
ATOM      2  N   UNL     1       7.178   5.601  15.334  0.00  0.00    +0.000 NA
ATOM      3  C   UNL     1       6.048   5.370  16.012  0.00  0.00    +0.000 A 
ATOM      4  N   UNL     1       5.913   5.970  17.270  0.00  0.00    +0.000 N 
ATOM      5  N   UNL     1       5.055   4.617  15.526  0.00  0.00    +0.000 NA
ATOM      6  C   UNL     1       5.222   4.070  14.321  0.00  0.00    +0.000 A 
ATOM      7  C   UNL     1       6.362   4.214  13.576  0.00  0.00    +0.000 A 
ATOM      8  H   UNL     1       6.590   6.716  17.354  0.00  0.00    +0.000 HD
ENDROOT
BRANCH   4   9
ATOM      9  C   UNL     1       4.898   5.799  18.141  0.00  0.00    +0.000 A 
ATOM     10  C   UNL     1       4.796   4.801  19.078  0.00  0.00    +0.000 A 
ATOM     11  N   UNL     1       3.553   4.912  19.614  0.00  0.00    +0.000 N 
ATOM     12  N   UNL     1       2.920   6.041  19.240  0.00  0.00    +0.000 NA
ATOM     13  C   UNL     1       3.721   6.570  18.301  0.00  0.00    +0.000 A 
ATOM     14  C   UNL     1       3.290   7.773  17.552  0.00  0.00    +0.000 C 
BRANCH  11  15
ATOM     15  C   UNL     1       2.923   3.923  20.479  0.00  0.00    +0.000 C 
ATOM     16  C   UNL     1       1.396   4.013  20.463  0.00  0.00    +0.000 C 
ATOM     17  C   UNL     1       0.808   3.367  19.213  0.00  0.00    +0.000 C 
ATOM     18  O   UNL     1       1.270   2.022  19.069  0.00  0.00    +0.000 OA
ATOM     19  C   UNL     1       2.694   1.942  18.933  0.00  0.00    +0.000 C 
ATOM     20  C   UNL     1       3.378   2.497  20.173  0.00  0.00    +0.000 C 
ATOM     21  F   UNL     1       4.727   2.424  20.060  0.00  0.00    +0.000 F 
ENDBRANCH  11  15
ENDBRANCH   4   9
BRANCH   7  22
ATOM     22  C   UNL     1       6.427   3.507  12.270  0.00  0.00    +0.000 C 
ATOM     23  F   UNL     1       6.289   4.285  11.165  0.00  0.00    +0.000 F 
ATOM     24  F   UNL     1       7.626   2.871  12.110  0.00  0.00    +0.000 F 
ATOM     25  F   UNL     1       5.485   2.526  12.165  0.00  0.00    +0.000 F 
ENDBRANCH   7  22
BRANCH   1  27
ATOM     26  C   UNL     1       8.465   6.201  12.356  0.00  0.00    +0.000 C 
ATOM     27  N   UNL     1       8.547   5.236  13.442  0.00  0.00    +0.000 N 
ATOM     28  H   UNL     1       9.308   5.455  14.081  0.00  0.00    +0.000 HD
ENDBRANCH   1  27
TORSDOF 4
ENDMDL
MODEL 8
REMARK VINA RESULT:      -7.7      1.416      1.778
REMARK  Name = 
REMARK  6 active torsions:
REMARK  status: ('A' for Active; 'I' for Inactive)
REMARK    1  A    between atoms: C_1  and  N_2
REMARK    2  A    between atoms: N_2  and  C_3
REMARK    3  A    between atoms: N_6  and  C_7
REMARK    4  A    between atoms: N_9  and  C_10
REMARK    5  A    between atoms: C_18  and  C_19
REMARK    6  A    between atoms: C_22  and  C_23
REMARK                            x       y       z     vdW  Elec       q    Type
REMARK                         _______ _______ _______ _____ _____    ______ ____
ROOT
ATOM      1  C   UNL     1       0.967   9.464  21.310  0.00  0.00    +0.000 A 
ATOM      2  N   UNL     1       1.453   8.201  21.296  0.00  0.00    +0.000 NA
ATOM      3  C   UNL     1       1.839   7.672  20.130  0.00  0.00    +0.000 A 
ATOM      4  N   UNL     1       2.380   6.381  20.150  0.00  0.00    +0.000 N 
ATOM      5  N   UNL     1       1.706   8.317  18.965  0.00  0.00    +0.000 NA
ATOM      6  C   UNL     1       1.179   9.542  18.989  0.00  0.00    +0.000 A 
ATOM      7  C   UNL     1       0.799  10.180  20.140  0.00  0.00    +0.000 A 
ATOM      8  H   UNL     1       2.142   5.938  21.028  0.00  0.00    +0.000 HD
ENDROOT
BRANCH   4   9
ATOM      9  C   UNL     1       2.901   5.706  19.106  0.00  0.00    +0.000 A 
ATOM     10  C   UNL     1       4.029   6.050  18.403  0.00  0.00    +0.000 A 
ATOM     11  N   UNL     1       4.088   5.199  17.345  0.00  0.00    +0.000 N 
ATOM     12  N   UNL     1       3.195   4.195  17.430  0.00  0.00    +0.000 NA
ATOM     13  C   UNL     1       2.432   4.523  18.486  0.00  0.00    +0.000 A 
ATOM     14  C   UNL     1       1.241   3.708  18.821  0.00  0.00    +0.000 C 
BRANCH  11  15
ATOM     15  C   UNL     1       4.986   5.341  16.207  0.00  0.00    +0.000 C 
ATOM     16  C   UNL     1       5.635   6.724  16.136  0.00  0.00    +0.000 C 
ATOM     17  C   UNL     1       6.788   6.854  17.125  0.00  0.00    +0.000 C 
ATOM     18  O   UNL     1       7.739   5.803  16.941  0.00  0.00    +0.000 OA
ATOM     19  C   UNL     1       7.171   4.505  17.152  0.00  0.00    +0.000 C 
ATOM     20  C   UNL     1       6.051   4.247  16.155  0.00  0.00    +0.000 C 
ATOM     21  F   UNL     1       5.505   3.019  16.341  0.00  0.00    +0.000 F 
ENDBRANCH  11  15
ENDBRANCH   4   9
BRANCH   7  22
ATOM     22  C   UNL     1       0.271  11.564  20.019  0.00  0.00    +0.000 C 
ATOM     23  F   UNL     1       0.913  12.511  20.752  0.00  0.00    +0.000 F 
ATOM     24  F   UNL     1       0.338  12.008  18.729  0.00  0.00    +0.000 F 
ATOM     25  F   UNL     1      -1.047  11.648  20.359  0.00  0.00    +0.000 F 
ENDBRANCH   7  22
BRANCH   1  27
ATOM     26  C   UNL     1      -0.698   9.552  23.062  0.00  0.00    +0.000 C 
ATOM     27  N   UNL     1       0.580  10.012  22.539  0.00  0.00    +0.000 N 
ATOM     28  H   UNL     1       1.321   9.926  23.232  0.00  0.00    +0.000 HD
ENDBRANCH   1  27
TORSDOF 4
ENDMDL
MODEL 9
REMARK VINA RESULT:      -7.7      2.827      4.298
REMARK  Name = 
REMARK  6 active torsions:
REMARK  status: ('A' for Active; 'I' for Inactive)
REMARK    1  A    between atoms: C_1  and  N_2
REMARK    2  A    between atoms: N_2  and  C_3
REMARK    3  A    between atoms: N_6  and  C_7
REMARK    4  A    between atoms: N_9  and  C_10
REMARK    5  A    between atoms: C_18  and  C_19
REMARK    6  A    between atoms: C_22  and  C_23
REMARK                            x       y       z     vdW  Elec       q    Type
REMARK                         _______ _______ _______ _____ _____    ______ ____
ROOT
ATOM      1  C   UNL     1       0.646  10.417  19.055  0.00  0.00    +0.000 A 
ATOM      2  N   UNL     1       1.329   9.631  18.190  0.00  0.00    +0.000 NA
ATOM      3  C   UNL     1       1.905   8.515  18.651  0.00  0.00    +0.000 A 
ATOM      4  N   UNL     1       2.567   7.698  17.728  0.00  0.00    +0.000 N 
ATOM      5  N   UNL     1       1.887   8.175  19.945  0.00  0.00    +0.000 NA
ATOM      6  C   UNL     1       1.252   8.986  20.793  0.00  0.00    +0.000 A 
ATOM      7  C   UNL     1       0.596  10.124  20.404  0.00  0.00    +0.000 A 
ATOM      8  H   UNL     1       2.739   8.227  16.883  0.00  0.00    +0.000 HD
ENDROOT
BRANCH   4   9
ATOM      9  C   UNL     1       3.135   6.499  17.971  0.00  0.00    +0.000 A 
ATOM     10  C   UNL     1       2.510   5.402  18.508  0.00  0.00    +0.000 A 
ATOM     11  N   UNL     1       3.485   4.483  18.732  0.00  0.00    +0.000 N 
ATOM     12  N   UNL     1       4.666   4.829  18.183  0.00  0.00    +0.000 NA
ATOM     13  C   UNL     1       4.471   6.086  17.752  0.00  0.00    +0.000 A 
ATOM     14  C   UNL     1       5.605   6.861  17.195  0.00  0.00    +0.000 C 
BRANCH  11  15
ATOM     15  C   UNL     1       3.320   3.259  19.503  0.00  0.00    +0.000 C 
ATOM     16  C   UNL     1       2.612   3.494  20.838  0.00  0.00    +0.000 C 
ATOM     17  C   UNL     1       1.105   3.641  20.657  0.00  0.00    +0.000 C 
ATOM     18  O   UNL     1       0.565   2.522  19.950  0.00  0.00    +0.000 OA
ATOM     19  C   UNL     1       1.118   2.383  18.636  0.00  0.00    +0.000 C 
ATOM     20  C   UNL     1       2.621   2.154  18.714  0.00  0.00    +0.000 C 
ATOM     21  F   UNL     1       3.158   2.017  17.476  0.00  0.00    +0.000 F 
ENDBRANCH  11  15
ENDBRANCH   4   9
BRANCH   7  22
ATOM     22  C   UNL     1      -0.111  10.905  21.452  0.00  0.00    +0.000 C 
ATOM     23  F   UNL     1      -0.059  10.395  22.710  0.00  0.00    +0.000 F 
ATOM     24  F   UNL     1       0.403  12.167  21.559  0.00  0.00    +0.000 F 
ATOM     25  F   UNL     1      -1.432  11.081  21.166  0.00  0.00    +0.000 F 
ENDBRANCH   7  22
BRANCH   1  27
ATOM     26  C   UNL     1      -1.289  11.394  17.982  0.00  0.00    +0.000 C 
ATOM     27  N   UNL     1       0.036  11.575  18.556  0.00  0.00    +0.000 N 
ATOM     28  H   UNL     1       0.046  12.325  19.245  0.00  0.00    +0.000 HD
ENDBRANCH   1  27
TORSDOF 4
ENDMDL
