MODEL 1
REMARK VINA RESULT:      -6.6      0.000      0.000
REMARK  Name = 
REMARK  10 active torsions:
REMARK  status: ('A' for Active; 'I' for Inactive)
REMARK    1  A    between atoms: C_2  and  C_3
REMARK    2  A    between atoms: C_3  and  S_4
REMARK    3  A    between atoms: S_4  and  C_5
REMARK    4  A    between atoms: C_8  and  C_9
REMARK    5  A    between atoms: C_12  and  N_13
REMARK    6  A    between atoms: N_13  and  C_14
REMARK    7  A    between atoms: C_14  and  N_16
REMARK    8  A    between atoms: N_16  and  C_17
REMARK    9  A    between atoms: C_17  and  C_18
REMARK   10  A    between atoms: C_18  and  O_19
REMARK                            x       y       z     vdW  Elec       q    Type
REMARK                         _______ _______ _______ _____ _____    ______ ____
ROOT
ATOM      1  C   UNL     1       5.773   4.407  16.740  0.00  0.00    +0.000 A 
ATOM      2  C   UNL     1       4.604   3.634  16.759  0.00  0.00    +0.000 A 
ATOM      3  C   UNL     1       3.932   3.374  17.969  0.00  0.00    +0.000 A 
ATOM      4  C   UNL     1       4.432   3.863  19.183  0.00  0.00    +0.000 A 
ATOM      5  C   UNL     1       5.569   4.667  19.152  0.00  0.00    +0.000 A 
ATOM      6  C   UNL     1       6.241   4.922  17.955  0.00  0.00    +0.000 A 
ENDROOT
BRANCH   1  10
ATOM      7  C   UNL     1       6.937   4.421  13.427  0.00  0.00    +0.000 A 
ATOM      8  N   UNL     1       7.758   5.343  13.886  0.00  0.00    +0.000 NA
ATOM      9  N   UNL     1       7.451   5.526  15.222  0.00  0.00    +0.000 NA
ATOM     10  C   UNL     1       6.464   4.697  15.491  0.00  0.00    +0.000 A 
ATOM     11  O   UNL     1       6.077   3.972  14.391  0.00  0.00    +0.000 OA
BRANCH   7  12
ATOM     12  S   UNL     1       6.961   3.802  11.805  0.00  0.00    +0.000 S 
BRANCH  12  13
ATOM     13  C   UNL     1       5.548   2.669  11.873  0.00  0.00    +0.000 C 
BRANCH  13  15
ATOM     14  C   UNL     1       3.466   3.181  10.558  0.00  0.00    +0.000 C 
ATOM     15  C   UNL     1       4.284   3.424  11.592  0.00  0.00    +0.000 C 
ENDBRANCH  13  15
ENDBRANCH  12  13
ENDBRANCH   7  12
ENDBRANCH   1  10
BRANCH   4  16
ATOM     16  N   UNL     1       3.718   3.556  20.367  0.00  0.00    +0.000 N 
ATOM     17  H   UNL     1       4.273   3.114  21.088  0.00  0.00    +0.000 HD
BRANCH  16  18
ATOM     18  C   UNL     1       2.425   3.903  20.750  0.00  0.00    +0.000 C 
ATOM     19  S   UNL     1       1.064   2.924  20.744  0.00  0.00    +0.000 S 
BRANCH  18  20
ATOM     20  N   UNL     1       2.388   5.229  21.165  0.00  0.00    +0.000 N 
ATOM     21  H   UNL     1       2.936   5.495  21.970  0.00  0.00    +0.000 HD
BRANCH  20  22
ATOM     22  C   UNL     1       1.685   6.326  20.487  0.00  0.00    +0.000 C 
BRANCH  22  23
ATOM     23  C   UNL     1       2.561   6.970  19.405  0.00  0.00    +0.000 C 
BRANCH  23  24
ATOM     24  O   UNL     1       2.262   6.379  18.139  0.00  0.00    +0.000 OA
ATOM     25  H   UNL     1       2.813   5.577  18.088  0.00  0.00    +0.000 HD
ENDBRANCH  23  24
ENDBRANCH  22  23
ENDBRANCH  20  22
ENDBRANCH  18  20
ENDBRANCH  16  18
ENDBRANCH   4  16
TORSDOF 10
ENDMDL
MODEL 2
REMARK VINA RESULT:      -6.5      1.541      1.938
REMARK  Name = 
REMARK  10 active torsions:
REMARK  status: ('A' for Active; 'I' for Inactive)
REMARK    1  A    between atoms: C_2  and  C_3
REMARK    2  A    between atoms: C_3  and  S_4
REMARK    3  A    between atoms: S_4  and  C_5
REMARK    4  A    between atoms: C_8  and  C_9
REMARK    5  A    between atoms: C_12  and  N_13
REMARK    6  A    between atoms: N_13  and  C_14
REMARK    7  A    between atoms: C_14  and  N_16
REMARK    8  A    between atoms: N_16  and  C_17
REMARK    9  A    between atoms: C_17  and  C_18
REMARK   10  A    between atoms: C_18  and  O_19
REMARK                            x       y       z     vdW  Elec       q    Type
REMARK                         _______ _______ _______ _____ _____    ______ ____
ROOT
ATOM      1  C   UNL     1       5.608   5.090  16.773  0.00  0.00    +0.000 A 
ATOM      2  C   UNL     1       4.216   4.936  16.721  0.00  0.00    +0.000 A 
ATOM      3  C   UNL     1       3.450   4.922  17.903  0.00  0.00    +0.000 A 
ATOM      4  C   UNL     1       4.065   5.039  19.155  0.00  0.00    +0.000 A 
ATOM      5  C   UNL     1       5.443   5.237  19.197  0.00  0.00    +0.000 A 
ATOM      6  C   UNL     1       6.207   5.245  18.029  0.00  0.00    +0.000 A 
ENDROOT
BRANCH   1  10
ATOM      7  C   UNL     1       6.932   4.562  13.564  0.00  0.00    +0.000 A 
ATOM      8  N   UNL     1       7.884   5.364  13.996  0.00  0.00    +0.000 NA
ATOM      9  N   UNL     1       7.544   5.732  15.285  0.00  0.00    +0.000 NA
ATOM     10  C   UNL     1       6.407   5.125  15.555  0.00  0.00    +0.000 A 
ATOM     11  O   UNL     1       5.954   4.374  14.500  0.00  0.00    +0.000 OA
BRANCH   7  12
ATOM     12  S   UNL     1       6.930   3.789  12.009  0.00  0.00    +0.000 S 
BRANCH  12  13
ATOM     13  C   UNL     1       5.402   2.822  12.135  0.00  0.00    +0.000 C 
BRANCH  13  15
ATOM     14  C   UNL     1       3.453   3.220  10.595  0.00  0.00    +0.000 C 
ATOM     15  C   UNL     1       4.256   3.621  11.592  0.00  0.00    +0.000 C 
ENDBRANCH  13  15
ENDBRANCH  12  13
ENDBRANCH   7  12
ENDBRANCH   1  10
BRANCH   4  16
ATOM     16  N   UNL     1       3.240   5.005  20.307  0.00  0.00    +0.000 N 
ATOM     17  H   UNL     1       3.711   4.705  21.150  0.00  0.00    +0.000 HD
BRANCH  16  18
ATOM     18  C   UNL     1       1.937   5.462  20.490  0.00  0.00    +0.000 C 
ATOM     19  S   UNL     1       1.435   7.046  20.710  0.00  0.00    +0.000 S 
BRANCH  18  20
ATOM     20  N   UNL     1       1.048   4.394  20.467  0.00  0.00    +0.000 N 
ATOM     21  H   UNL     1       0.089   4.574  20.205  0.00  0.00    +0.000 HD
BRANCH  20  22
ATOM     22  C   UNL     1       1.384   2.985  20.705  0.00  0.00    +0.000 C 
BRANCH  22  23
ATOM     23  C   UNL     1       1.460   2.195  19.392  0.00  0.00    +0.000 C 
BRANCH  23  24
ATOM     24  O   UNL     1       0.738   2.894  18.376  0.00  0.00    +0.000 OA
ATOM     25  H   UNL     1      -0.081   3.205  18.803  0.00  0.00    +0.000 HD
ENDBRANCH  23  24
ENDBRANCH  22  23
ENDBRANCH  20  22
ENDBRANCH  18  20
ENDBRANCH  16  18
ENDBRANCH   4  16
TORSDOF 10
ENDMDL
MODEL 3
REMARK VINA RESULT:      -6.3      1.761      2.340
REMARK  Name = 
REMARK  10 active torsions:
REMARK  status: ('A' for Active; 'I' for Inactive)
REMARK    1  A    between atoms: C_2  and  C_3
REMARK    2  A    between atoms: C_3  and  S_4
REMARK    3  A    between atoms: S_4  and  C_5
REMARK    4  A    between atoms: C_8  and  C_9
REMARK    5  A    between atoms: C_12  and  N_13
REMARK    6  A    between atoms: N_13  and  C_14
REMARK    7  A    between atoms: C_14  and  N_16
REMARK    8  A    between atoms: N_16  and  C_17
REMARK    9  A    between atoms: C_17  and  C_18
REMARK   10  A    between atoms: C_18  and  O_19
REMARK                            x       y       z     vdW  Elec       q    Type
REMARK                         _______ _______ _______ _____ _____    ______ ____
ROOT
ATOM      1  C   UNL     1       5.587   5.209  16.857  0.00  0.00    +0.000 A 
ATOM      2  C   UNL     1       4.802   6.310  17.225  0.00  0.00    +0.000 A 
ATOM      3  C   UNL     1       4.015   6.273  18.393  0.00  0.00    +0.000 A 
ATOM      4  C   UNL     1       3.982   5.128  19.198  0.00  0.00    +0.000 A 
ATOM      5  C   UNL     1       4.799   4.054  18.850  0.00  0.00    +0.000 A 
ATOM      6  C   UNL     1       5.576   4.084  17.691  0.00  0.00    +0.000 A 
ENDROOT
BRANCH   1  10
ATOM      7  C   UNL     1       6.981   4.707  13.673  0.00  0.00    +0.000 A 
ATOM      8  N   UNL     1       7.945   5.469  14.148  0.00  0.00    +0.000 NA
ATOM      9  N   UNL     1       7.582   5.821  15.435  0.00  0.00    +0.000 NA
ATOM     10  C   UNL     1       6.420   5.244  15.662  0.00  0.00    +0.000 A 
ATOM     11  O   UNL     1       5.972   4.530  14.579  0.00  0.00    +0.000 OA
BRANCH   7  12
ATOM     12  S   UNL     1       6.997   3.967  12.103  0.00  0.00    +0.000 S 
BRANCH  12  13
ATOM     13  C   UNL     1       5.359   3.190  12.098  0.00  0.00    +0.000 C 
BRANCH  13  15
ATOM     14  C   UNL     1       6.570   1.273  11.008  0.00  0.00    +0.000 C 
ATOM     15  C   UNL     1       5.432   1.869  11.393  0.00  0.00    +0.000 C 
ENDBRANCH  13  15
ENDBRANCH  12  13
ENDBRANCH   7  12
ENDBRANCH   1  10
BRANCH   4  16
ATOM     16  N   UNL     1       3.161   5.149  20.351  0.00  0.00    +0.000 N 
ATOM     17  H   UNL     1       3.646   4.945  21.215  0.00  0.00    +0.000 HD
BRANCH  16  18
ATOM     18  C   UNL     1       1.836   5.552  20.502  0.00  0.00    +0.000 C 
ATOM     19  S   UNL     1       1.273   7.096  20.831  0.00  0.00    +0.000 S 
BRANCH  18  20
ATOM     20  N   UNL     1       0.983   4.467  20.335  0.00  0.00    +0.000 N 
ATOM     21  H   UNL     1       0.076   4.629  19.922  0.00  0.00    +0.000 HD
BRANCH  20  22
ATOM     22  C   UNL     1       1.305   3.064  20.625  0.00  0.00    +0.000 C 
BRANCH  22  23
ATOM     23  C   UNL     1       1.454   2.244  19.336  0.00  0.00    +0.000 C 
BRANCH  23  24
ATOM     24  O   UNL     1       0.288   2.413  18.529  0.00  0.00    +0.000 OA
ATOM     25  H   UNL     1      -0.260   1.624  18.690  0.00  0.00    +0.000 HD
ENDBRANCH  23  24
ENDBRANCH  22  23
ENDBRANCH  20  22
ENDBRANCH  18  20
ENDBRANCH  16  18
ENDBRANCH   4  16
TORSDOF 10
ENDMDL
MODEL 4
REMARK VINA RESULT:      -6.2      1.868      2.244
REMARK  Name = 
REMARK  10 active torsions:
REMARK  status: ('A' for Active; 'I' for Inactive)
REMARK    1  A    between atoms: C_2  and  C_3
REMARK    2  A    between atoms: C_3  and  S_4
REMARK    3  A    between atoms: S_4  and  C_5
REMARK    4  A    between atoms: C_8  and  C_9
REMARK    5  A    between atoms: C_12  and  N_13
REMARK    6  A    between atoms: N_13  and  C_14
REMARK    7  A    between atoms: C_14  and  N_16
REMARK    8  A    between atoms: N_16  and  C_17
REMARK    9  A    between atoms: C_17  and  C_18
REMARK   10  A    between atoms: C_18  and  O_19
REMARK                            x       y       z     vdW  Elec       q    Type
REMARK                         _______ _______ _______ _____ _____    ______ ____
ROOT
ATOM      1  C   UNL     1       5.576   5.142  15.926  0.00  0.00    +0.000 A 
ATOM      2  C   UNL     1       5.439   4.117  16.871  0.00  0.00    +0.000 A 
ATOM      3  C   UNL     1       4.808   4.357  18.107  0.00  0.00    +0.000 A 
ATOM      4  C   UNL     1       4.324   5.632  18.427  0.00  0.00    +0.000 A 
ATOM      5  C   UNL     1       4.423   6.635  17.465  0.00  0.00    +0.000 A 
ATOM      6  C   UNL     1       5.053   6.402  16.241  0.00  0.00    +0.000 A 
ENDROOT
BRANCH   1  10
ATOM      7  C   UNL     1       6.517   3.870  12.791  0.00  0.00    +0.000 A 
ATOM      8  N   UNL     1       7.456   4.790  12.876  0.00  0.00    +0.000 NA
ATOM      9  N   UNL     1       7.256   5.459  14.069  0.00  0.00    +0.000 NA
ATOM     10  C   UNL     1       6.209   4.898  14.637  0.00  0.00    +0.000 A 
ATOM     11  O   UNL     1       5.681   3.887  13.873  0.00  0.00    +0.000 OA
BRANCH   7  12
ATOM     12  S   UNL     1       6.374   2.728  11.491  0.00  0.00    +0.000 S 
BRANCH  12  13
ATOM     13  C   UNL     1       4.571   2.563  11.407  0.00  0.00    +0.000 C 
BRANCH  13  15
ATOM     14  C   UNL     1       3.128   3.868   9.812  0.00  0.00    +0.000 C 
ATOM     15  C   UNL     1       3.976   3.821  10.850  0.00  0.00    +0.000 C 
ENDBRANCH  13  15
ENDBRANCH  12  13
ENDBRANCH   7  12
ENDBRANCH   1  10
BRANCH   4  16
ATOM     16  N   UNL     1       3.711   5.813  19.691  0.00  0.00    +0.000 N 
ATOM     17  H   UNL     1       4.359   5.964  20.452  0.00  0.00    +0.000 HD
BRANCH  16  18
ATOM     18  C   UNL     1       2.367   5.968  20.022  0.00  0.00    +0.000 C 
ATOM     19  S   UNL     1       1.632   7.315  20.695  0.00  0.00    +0.000 S 
BRANCH  18  20
ATOM     20  N   UNL     1       1.661   4.811  19.709  0.00  0.00    +0.000 N 
ATOM     21  H   UNL     1       1.578   4.548  18.738  0.00  0.00    +0.000 HD
BRANCH  20  22
ATOM     22  C   UNL     1       1.084   3.866  20.673  0.00  0.00    +0.000 C 
BRANCH  22  23
ATOM     23  C   UNL     1       2.166   3.244  21.566  0.00  0.00    +0.000 C 
BRANCH  23  24
ATOM     24  O   UNL     1       3.227   2.747  20.749  0.00  0.00    +0.000 OA
ATOM     25  H   UNL     1       3.152   3.224  19.903  0.00  0.00    +0.000 HD
ENDBRANCH  23  24
ENDBRANCH  22  23
ENDBRANCH  20  22
ENDBRANCH  18  20
ENDBRANCH  16  18
ENDBRANCH   4  16
TORSDOF 10
ENDMDL
MODEL 5
REMARK VINA RESULT:      -6.1      4.632      8.056
REMARK  Name = 
REMARK  10 active torsions:
REMARK  status: ('A' for Active; 'I' for Inactive)
REMARK    1  A    between atoms: C_2  and  C_3
REMARK    2  A    between atoms: C_3  and  S_4
REMARK    3  A    between atoms: S_4  and  C_5
REMARK    4  A    between atoms: C_8  and  C_9
REMARK    5  A    between atoms: C_12  and  N_13
REMARK    6  A    between atoms: N_13  and  C_14
REMARK    7  A    between atoms: C_14  and  N_16
REMARK    8  A    between atoms: N_16  and  C_17
REMARK    9  A    between atoms: C_17  and  C_18
REMARK   10  A    between atoms: C_18  and  O_19
REMARK                            x       y       z     vdW  Elec       q    Type
REMARK                         _______ _______ _______ _____ _____    ______ ____
ROOT
ATOM      1  C   UNL     1       1.879   8.369  19.219  0.00  0.00    +0.000 A 
ATOM      2  C   UNL     1       2.570   8.363  17.999  0.00  0.00    +0.000 A 
ATOM      3  C   UNL     1       3.400   7.280  17.648  0.00  0.00    +0.000 A 
ATOM      4  C   UNL     1       3.570   6.198  18.520  0.00  0.00    +0.000 A 
ATOM      5  C   UNL     1       2.847   6.190  19.710  0.00  0.00    +0.000 A 
ATOM      6  C   UNL     1       2.028   7.264  20.065  0.00  0.00    +0.000 A 
ENDROOT
BRANCH   1  10
ATOM      7  C   UNL     1      -0.241  11.168  19.203  0.00  0.00    +0.000 A 
ATOM      8  N   UNL     1      -0.136  11.058  20.512  0.00  0.00    +0.000 NA
ATOM      9  N   UNL     1       0.667   9.960  20.759  0.00  0.00    +0.000 NA
ATOM     10  C   UNL     1       1.004   9.476  19.582  0.00  0.00    +0.000 A 
ATOM     11  O   UNL     1       0.451  10.188  18.547  0.00  0.00    +0.000 OA
BRANCH   7  12
ATOM     12  S   UNL     1      -1.110  12.432  18.390  0.00  0.00    +0.000 S 
BRANCH  12  13
ATOM     13  C   UNL     1      -2.649  11.559  17.994  0.00  0.00    +0.000 C 
BRANCH  13  15
ATOM     14  C   UNL     1      -2.578   9.752  16.245  0.00  0.00    +0.000 C 
ATOM     15  C   UNL     1      -2.589  11.049  16.585  0.00  0.00    +0.000 C 
ENDBRANCH  13  15
ENDBRANCH  12  13
ENDBRANCH   7  12
ENDBRANCH   1  10
BRANCH   4  16
ATOM     16  N   UNL     1       4.428   5.146  18.115  0.00  0.00    +0.000 N 
ATOM     17  H   UNL     1       4.236   4.782  17.191  0.00  0.00    +0.000 HD
BRANCH  16  18
ATOM     18  C   UNL     1       5.578   4.644  18.719  0.00  0.00    +0.000 C 
ATOM     19  S   UNL     1       7.003   5.467  19.038  0.00  0.00    +0.000 S 
BRANCH  18  20
ATOM     20  N   UNL     1       5.400   3.305  19.050  0.00  0.00    +0.000 N 
ATOM     21  H   UNL     1       6.186   2.679  18.953  0.00  0.00    +0.000 HD
BRANCH  20  22
ATOM     22  C   UNL     1       4.184   2.711  19.618  0.00  0.00    +0.000 C 
BRANCH  22  23
ATOM     23  C   UNL     1       3.506   1.760  18.624  0.00  0.00    +0.000 C 
BRANCH  23  24
ATOM     24  O   UNL     1       4.328   0.606  18.435  0.00  0.00    +0.000 OA
ATOM     25  H   UNL     1       5.102   0.916  17.932  0.00  0.00    +0.000 HD
ENDBRANCH  23  24
ENDBRANCH  22  23
ENDBRANCH  20  22
ENDBRANCH  18  20
ENDBRANCH  16  18
ENDBRANCH   4  16
TORSDOF 10
ENDMDL
MODEL 6
REMARK VINA RESULT:      -6.0      4.963      7.164
REMARK  Name = 
REMARK  10 active torsions:
REMARK  status: ('A' for Active; 'I' for Inactive)
REMARK    1  A    between atoms: C_2  and  C_3
REMARK    2  A    between atoms: C_3  and  S_4
REMARK    3  A    between atoms: S_4  and  C_5
REMARK    4  A    between atoms: C_8  and  C_9
REMARK    5  A    between atoms: C_12  and  N_13
REMARK    6  A    between atoms: N_13  and  C_14
REMARK    7  A    between atoms: C_14  and  N_16
REMARK    8  A    between atoms: N_16  and  C_17
REMARK    9  A    between atoms: C_17  and  C_18
REMARK   10  A    between atoms: C_18  and  O_19
REMARK                            x       y       z     vdW  Elec       q    Type
REMARK                         _______ _______ _______ _____ _____    ______ ____
ROOT
ATOM      1  C   UNL     1       2.288   7.641  19.016  0.00  0.00    +0.000 A 
ATOM      2  C   UNL     1       1.978   8.400  17.879  0.00  0.00    +0.000 A 
ATOM      3  C   UNL     1       1.117   9.512  17.969  0.00  0.00    +0.000 A 
ATOM      4  C   UNL     1       0.534   9.867  19.191  0.00  0.00    +0.000 A 
ATOM      5  C   UNL     1       0.880   9.135  20.325  0.00  0.00    +0.000 A 
ATOM      6  C   UNL     1       1.728   8.030  20.240  0.00  0.00    +0.000 A 
ENDROOT
BRANCH   1  10
ATOM      7  C   UNL     1       4.626   5.225  18.002  0.00  0.00    +0.000 A 
ATOM      8  N   UNL     1       4.315   4.669  19.155  0.00  0.00    +0.000 NA
ATOM      9  N   UNL     1       3.390   5.496  19.764  0.00  0.00    +0.000 NA
ATOM     10  C   UNL     1       3.193   6.502  18.937  0.00  0.00    +0.000 A 
ATOM     11  O   UNL     1       3.956   6.401  17.801  0.00  0.00    +0.000 OA
BRANCH   7  12
ATOM     12  S   UNL     1       5.716   4.536  16.840  0.00  0.00    +0.000 S 
BRANCH  12  13
ATOM     13  C   UNL     1       7.299   4.828  17.673  0.00  0.00    +0.000 C 
BRANCH  13  15
ATOM     14  C   UNL     1       7.655   7.317  17.605  0.00  0.00    +0.000 C 
ATOM     15  C   UNL     1       7.308   6.204  18.267  0.00  0.00    +0.000 C 
ENDBRANCH  13  15
ENDBRANCH  12  13
ENDBRANCH   7  12
ENDBRANCH   1  10
BRANCH   4  16
ATOM     16  N   UNL     1      -0.334  10.986  19.213  0.00  0.00    +0.000 N 
ATOM     17  H   UNL     1      -1.068  10.933  19.907  0.00  0.00    +0.000 HD
BRANCH  16  18
ATOM     18  C   UNL     1      -0.244  12.204  18.542  0.00  0.00    +0.000 C 
ATOM     19  S   UNL     1       1.012  13.311  18.606  0.00  0.00    +0.000 S 
BRANCH  18  20
ATOM     20  N   UNL     1      -1.379  12.408  17.766  0.00  0.00    +0.000 N 
ATOM     21  H   UNL     1      -1.627  13.355  17.519  0.00  0.00    +0.000 HD
BRANCH  20  22
ATOM     22  C   UNL     1      -2.227  11.360  17.184  0.00  0.00    +0.000 C 
BRANCH  22  23
ATOM     23  C   UNL     1      -3.613  11.328  17.842  0.00  0.00    +0.000 C 
BRANCH  23  24
ATOM     24  O   UNL     1      -3.773  12.484  18.667  0.00  0.00    +0.000 OA
ATOM     25  H   UNL     1      -3.511  13.240  18.112  0.00  0.00    +0.000 HD
ENDBRANCH  23  24
ENDBRANCH  22  23
ENDBRANCH  20  22
ENDBRANCH  18  20
ENDBRANCH  16  18
ENDBRANCH   4  16
TORSDOF 10
ENDMDL
MODEL 7
REMARK VINA RESULT:      -6.0      4.319      6.862
REMARK  Name = 
REMARK  10 active torsions:
REMARK  status: ('A' for Active; 'I' for Inactive)
REMARK    1  A    between atoms: C_2  and  C_3
REMARK    2  A    between atoms: C_3  and  S_4
REMARK    3  A    between atoms: S_4  and  C_5
REMARK    4  A    between atoms: C_8  and  C_9
REMARK    5  A    between atoms: C_12  and  N_13
REMARK    6  A    between atoms: N_13  and  C_14
REMARK    7  A    between atoms: C_14  and  N_16
REMARK    8  A    between atoms: N_16  and  C_17
REMARK    9  A    between atoms: C_17  and  C_18
REMARK   10  A    between atoms: C_18  and  O_19
REMARK                            x       y       z     vdW  Elec       q    Type
REMARK                         _______ _______ _______ _____ _____    ______ ____
ROOT
ATOM      1  C   UNL     1       2.485   7.373  18.539  0.00  0.00    +0.000 A 
ATOM      2  C   UNL     1       1.996   7.450  19.850  0.00  0.00    +0.000 A 
ATOM      3  C   UNL     1       1.393   8.632  20.324  0.00  0.00    +0.000 A 
ATOM      4  C   UNL     1       1.292   9.762  19.503  0.00  0.00    +0.000 A 
ATOM      5  C   UNL     1       1.740   9.664  18.188  0.00  0.00    +0.000 A 
ATOM      6  C   UNL     1       2.343   8.496  17.716  0.00  0.00    +0.000 A 
ENDROOT
BRANCH   1  10
ATOM      7  C   UNL     1       3.340   4.035  17.861  0.00  0.00    +0.000 A 
ATOM      8  N   UNL     1       4.309   4.590  17.162  0.00  0.00    +0.000 NA
ATOM      9  N   UNL     1       4.148   5.959  17.269  0.00  0.00    +0.000 NA
ATOM     10  C   UNL     1       3.092   6.149  18.033  0.00  0.00    +0.000 A 
ATOM     11  O   UNL     1       2.522   4.967  18.436  0.00  0.00    +0.000 OA
BRANCH   7  12
ATOM     12  S   UNL     1       3.142   2.324  18.080  0.00  0.00    +0.000 S 
BRANCH  12  13
ATOM     13  C   UNL     1       1.518   2.289  18.883  0.00  0.00    +0.000 C 
BRANCH  13  15
ATOM     14  C   UNL     1       1.295   3.303  21.175  0.00  0.00    +0.000 C 
ATOM     15  C   UNL     1       1.693   2.305  20.372  0.00  0.00    +0.000 C 
ENDBRANCH  13  15
ENDBRANCH  12  13
ENDBRANCH   7  12
ENDBRANCH   1  10
BRANCH   4  16
ATOM     16  N   UNL     1       0.688  10.924  20.043  0.00  0.00    +0.000 N 
ATOM     17  H   UNL     1       1.152  11.788  19.800  0.00  0.00    +0.000 HD
BRANCH  16  18
ATOM     18  C   UNL     1      -0.520  11.074  20.720  0.00  0.00    +0.000 C 
ATOM     19  S   UNL     1      -0.797  10.886  22.362  0.00  0.00    +0.000 S 
BRANCH  18  20
ATOM     20  N   UNL     1      -1.529  11.421  19.829  0.00  0.00    +0.000 N 
ATOM     21  H   UNL     1      -2.010  12.298  19.967  0.00  0.00    +0.000 HD
BRANCH  20  22
ATOM     22  C   UNL     1      -1.919  10.668  18.630  0.00  0.00    +0.000 C 
BRANCH  22  23
ATOM     23  C   UNL     1      -2.207  11.603  17.448  0.00  0.00    +0.000 C 
BRANCH  23  24
ATOM     24  O   UNL     1      -1.226  12.641  17.414  0.00  0.00    +0.000 OA
ATOM     25  H   UNL     1      -1.019  12.836  18.346  0.00  0.00    +0.000 HD
ENDBRANCH  23  24
ENDBRANCH  22  23
ENDBRANCH  20  22
ENDBRANCH  18  20
ENDBRANCH  16  18
ENDBRANCH   4  16
TORSDOF 10
ENDMDL
MODEL 8
REMARK VINA RESULT:      -6.0      4.384      6.961
REMARK  Name = 
REMARK  10 active torsions:
REMARK  status: ('A' for Active; 'I' for Inactive)
REMARK    1  A    between atoms: C_2  and  C_3
REMARK    2  A    between atoms: C_3  and  S_4
REMARK    3  A    between atoms: S_4  and  C_5
REMARK    4  A    between atoms: C_8  and  C_9
REMARK    5  A    between atoms: C_12  and  N_13
REMARK    6  A    between atoms: N_13  and  C_14
REMARK    7  A    between atoms: C_14  and  N_16
REMARK    8  A    between atoms: N_16  and  C_17
REMARK    9  A    between atoms: C_17  and  C_18
REMARK   10  A    between atoms: C_18  and  O_19
REMARK                            x       y       z     vdW  Elec       q    Type
REMARK                         _______ _______ _______ _____ _____    ______ ____
ROOT
ATOM      1  C   UNL     1       2.549   7.240  18.569  0.00  0.00    +0.000 A 
ATOM      2  C   UNL     1       2.468   8.250  17.600  0.00  0.00    +0.000 A 
ATOM      3  C   UNL     1       1.854   9.483  17.897  0.00  0.00    +0.000 A 
ATOM      4  C   UNL     1       1.290   9.716  19.157  0.00  0.00    +0.000 A 
ATOM      5  C   UNL     1       1.413   8.725  20.128  0.00  0.00    +0.000 A 
ATOM      6  C   UNL     1       2.016   7.500  19.837  0.00  0.00    +0.000 A 
ENDROOT
BRANCH   1  10
ATOM      7  C   UNL     1       3.462   3.854  18.395  0.00  0.00    +0.000 A 
ATOM      8  N   UNL     1       4.491   4.328  17.724  0.00  0.00    +0.000 NA
ATOM      9  N   UNL     1       4.321   5.698  17.644  0.00  0.00    +0.000 NA
ATOM     10  C   UNL     1       3.200   5.970  18.278  0.00  0.00    +0.000 A 
ATOM     11  O   UNL     1       2.593   4.841  18.771  0.00  0.00    +0.000 OA
BRANCH   7  12
ATOM     12  S   UNL     1       3.243   2.181  18.806  0.00  0.00    +0.000 S 
BRANCH  12  13
ATOM     13  C   UNL     1       1.461   2.162  19.135  0.00  0.00    +0.000 C 
BRANCH  13  15
ATOM     14  C   UNL     1       1.937   2.613  21.564  0.00  0.00    +0.000 C 
ATOM     15  C   UNL     1       1.189   2.796  20.466  0.00  0.00    +0.000 C 
ENDBRANCH  13  15
ENDBRANCH  12  13
ENDBRANCH   7  12
ENDBRANCH   1  10
BRANCH   4  16
ATOM     16  N   UNL     1       0.676  10.971  19.389  0.00  0.00    +0.000 N 
ATOM     17  H   UNL     1       1.316  11.753  19.412  0.00  0.00    +0.000 HD
BRANCH  16  18
ATOM     18  C   UNL     1      -0.674  11.313  19.435  0.00  0.00    +0.000 C 
ATOM     19  S   UNL     1      -1.621  11.891  18.179  0.00  0.00    +0.000 S 
BRANCH  18  20
ATOM     20  N   UNL     1      -1.177  11.108  20.715  0.00  0.00    +0.000 N 
ATOM     21  H   UNL     1      -2.071  10.649  20.810  0.00  0.00    +0.000 HD
BRANCH  20  22
ATOM     22  C   UNL     1      -0.487  11.419  21.973  0.00  0.00    +0.000 C 
BRANCH  22  23
ATOM     23  C   UNL     1      -0.913  10.465  23.097  0.00  0.00    +0.000 C 
BRANCH  23  24
ATOM     24  O   UNL     1       0.245   9.836  23.649  0.00  0.00    +0.000 OA
ATOM     25  H   UNL     1       0.865  10.558  23.851  0.00  0.00    +0.000 HD
ENDBRANCH  23  24
ENDBRANCH  22  23
ENDBRANCH  20  22
ENDBRANCH  18  20
ENDBRANCH  16  18
ENDBRANCH   4  16
TORSDOF 10
ENDMDL
MODEL 9
REMARK VINA RESULT:      -6.0      4.527      6.969
REMARK  Name = 
REMARK  10 active torsions:
REMARK  status: ('A' for Active; 'I' for Inactive)
REMARK    1  A    between atoms: C_2  and  C_3
REMARK    2  A    between atoms: C_3  and  S_4
REMARK    3  A    between atoms: S_4  and  C_5
REMARK    4  A    between atoms: C_8  and  C_9
REMARK    5  A    between atoms: C_12  and  N_13
REMARK    6  A    between atoms: N_13  and  C_14
REMARK    7  A    between atoms: C_14  and  N_16
REMARK    8  A    between atoms: N_16  and  C_17
REMARK    9  A    between atoms: C_17  and  C_18
REMARK   10  A    between atoms: C_18  and  O_19
REMARK                            x       y       z     vdW  Elec       q    Type
REMARK                         _______ _______ _______ _____ _____    ______ ____
ROOT
ATOM      1  C   UNL     1       2.352   7.570  18.531  0.00  0.00    +0.000 A 
ATOM      2  C   UNL     1       2.049   8.663  17.707  0.00  0.00    +0.000 A 
ATOM      3  C   UNL     1       1.364   9.783  18.220  0.00  0.00    +0.000 A 
ATOM      4  C   UNL     1       0.951   9.817  19.557  0.00  0.00    +0.000 A 
ATOM      5  C   UNL     1       1.294   8.748  20.381  0.00  0.00    +0.000 A 
ATOM      6  C   UNL     1       1.968   7.634  19.876  0.00  0.00    +0.000 A 
ENDROOT
BRANCH   1  10
ATOM      7  C   UNL     1       3.457   4.336  17.728  0.00  0.00    +0.000 A 
ATOM      8  N   UNL     1       4.465   4.986  17.184  0.00  0.00    +0.000 NA
ATOM      9  N   UNL     1       4.219   6.334  17.365  0.00  0.00    +0.000 NA
ATOM     10  C   UNL     1       3.077   6.417  18.015  0.00  0.00    +0.000 A 
ATOM     11  O   UNL     1       2.530   5.183  18.268  0.00  0.00    +0.000 OA
BRANCH   7  12
ATOM     12  S   UNL     1       3.330   2.606  17.804  0.00  0.00    +0.000 S 
BRANCH  12  13
ATOM     13  C   UNL     1       1.677   2.438  18.530  0.00  0.00    +0.000 C 
BRANCH  13  15
ATOM     14  C   UNL     1       1.185   3.078  20.912  0.00  0.00    +0.000 C 
ATOM     15  C   UNL     1       1.794   2.287  20.017  0.00  0.00    +0.000 C 
ENDBRANCH  13  15
ENDBRANCH  12  13
ENDBRANCH   7  12
ENDBRANCH   1  10
BRANCH   4  16
ATOM     16  N   UNL     1       0.255  10.965  20.008  0.00  0.00    +0.000 N 
ATOM     17  H   UNL     1      -0.752  10.878  19.990  0.00  0.00    +0.000 HD
BRANCH  16  18
ATOM     18  C   UNL     1       0.736  12.125  20.612  0.00  0.00    +0.000 C 
ATOM     19  S   UNL     1       1.919  13.160  20.031  0.00  0.00    +0.000 S 
BRANCH  18  20
ATOM     20  N   UNL     1       0.082  12.343  21.820  0.00  0.00    +0.000 N 
ATOM     21  H   UNL     1       0.535  12.920  22.513  0.00  0.00    +0.000 HD
BRANCH  20  22
ATOM     22  C   UNL     1      -1.268  11.880  22.166  0.00  0.00    +0.000 C 
BRANCH  22  23
ATOM     23  C   UNL     1      -1.222  10.686  23.128  0.00  0.00    +0.000 C 
BRANCH  23  24
ATOM     24  O   UNL     1       0.135  10.283  23.321  0.00  0.00    +0.000 OA
ATOM     25  H   UNL     1       0.455  10.798  24.084  0.00  0.00    +0.000 HD
ENDBRANCH  23  24
ENDBRANCH  22  23
ENDBRANCH  20  22
ENDBRANCH  18  20
ENDBRANCH  16  18
ENDBRANCH   4  16
TORSDOF 10
ENDMDL
