MODEL 1
REMARK VINA RESULT:      -9.3      0.000      0.000
REMARK  Name = 
REMARK  9 active torsions:
REMARK  status: ('A' for Active; 'I' for Inactive)
REMARK    1  A    between atoms: C_1  and  C_2
REMARK    2  A    between atoms: C_5  and  N_6
REMARK    3  A    between atoms: C_7  and  C_9
REMARK    4  A    between atoms: C_9  and  S_10
REMARK    5  A    between atoms: S_10  and  C_11
REMARK    6  A    between atoms: N_21  and  C_22
REMARK    7  A    between atoms: C_22  and  C_23
REMARK    8  A    between atoms: C_23  and  C_24
REMARK    9  A    between atoms: C_34  and  C_35
REMARK                            x       y       z     vdW  Elec       q    Type
REMARK                         _______ _______ _______ _____ _____    ______ ____
ROOT
ATOM      1  C   UNL     1       4.070   6.091  17.439  0.00  0.00    +0.000 A 
ATOM      2  N   UNL     1       4.258   4.808  17.451  0.00  0.00    +0.000 NA
ATOM      3  C   UNL     1       3.578   4.053  18.379  0.00  0.00    +0.000 A 
ATOM      4  N   UNL     1       3.837   2.708  18.326  0.00  0.00    +0.000 NA
ATOM      5  C   UNL     1       3.362   1.979  19.361  0.00  0.00    +0.000 A 
ATOM      6  C   UNL     1       2.679   2.545  20.421  0.00  0.00    +0.000 A 
ATOM      7  N   UNL     1       2.388   3.872  20.476  0.00  0.00    +0.000 NA
ATOM      8  C   UNL     1       2.854   4.601  19.417  0.00  0.00    +0.000 A 
ATOM      9  C   UNL     1       2.638   6.071  19.355  0.00  0.00    +0.000 A 
ATOM     10  O   UNL     1       2.103   6.639  20.303  0.00  0.00    +0.000 OA
ATOM     11  N   UNL     1       3.134   6.755  18.218  0.00  0.00    +0.000 N 
ENDROOT
BRANCH   1  12
ATOM     12  S   UNL     1       5.190   7.010  16.465  0.00  0.00    +0.000 S 
BRANCH  12  13
ATOM     13  C   UNL     1       6.764   6.194  16.892  0.00  0.00    +0.000 C 
BRANCH  13  15
ATOM     14  N   UNL     1       7.591   8.430  17.425  0.00  0.00    +0.000 N 
ATOM     15  C   UNL     1       7.539   7.107  17.827  0.00  0.00    +0.000 C 
ATOM     16  O   UNL     1       8.071   6.630  18.831  0.00  0.00    +0.000 OA
ATOM     17  H   UNL     1       7.083   8.686  16.585  0.00  0.00    +0.000 HD
BRANCH  14  22
ATOM     18  C   UNL     1      10.342  12.784  19.999  0.00  0.00    +0.000 C 
ATOM     19  C   UNL     1       9.637  11.661  19.290  0.00  0.00    +0.000 A 
ATOM     20  C   UNL     1       9.698  10.374  19.834  0.00  0.00    +0.000 A 
ATOM     21  C   UNL     1       9.040   9.304  19.227  0.00  0.00    +0.000 A 
ATOM     22  C   UNL     1       8.294   9.485  18.065  0.00  0.00    +0.000 A 
ATOM     23  C   UNL     1       8.244  10.772  17.502  0.00  0.00    +0.000 A 
ATOM     24  C   UNL     1       8.915  11.863  18.099  0.00  0.00    +0.000 A 
ATOM     25  C   UNL     1       8.855  13.225  17.461  0.00  0.00    +0.000 C 
ENDBRANCH  14  22
ENDBRANCH  13  15
ENDBRANCH  12  13
ENDBRANCH   1  12
BRANCH  11  26
ATOM     26  C   UNL     1       2.873   8.226  18.222  0.00  0.00    +0.000 C 
BRANCH  26  27
ATOM     27  C   UNL     1       1.466   8.834  18.055  0.00  0.00    +0.000 C 
BRANCH  27  28
ATOM     28  C   UNL     1       0.898   9.795  19.061  0.00  0.00    +0.000 A 
ATOM     29  C   UNL     1       0.472  11.062  18.671  0.00  0.00    +0.000 A 
ATOM     30  N   UNL     1       0.707  11.851  19.774  0.00  0.00    +0.000 N 
ATOM     31  C   UNL     1       0.217  11.092  20.817  0.00  0.00    +0.000 A 
ATOM     32  C   UNL     1      -0.396  11.512  22.015  0.00  0.00    +0.000 A 
ATOM     33  C   UNL     1      -0.801  10.514  22.869  0.00  0.00    +0.000 A 
ATOM     34  C   UNL     1      -0.455   9.191  22.625  0.00  0.00    +0.000 A 
ATOM     35  C   UNL     1       0.238   8.793  21.460  0.00  0.00    +0.000 A 
ATOM     36  C   UNL     1       0.486   9.758  20.459  0.00  0.00    +0.000 A 
ATOM     37  H   UNL     1       1.583  12.339  19.898  0.00  0.00    +0.000 HD
ENDBRANCH  27  28
ENDBRANCH  26  27
ENDBRANCH  11  26
TORSDOF 7
ENDMDL
MODEL 2
REMARK VINA RESULT:      -9.1      4.877      8.652
REMARK  Name = 
REMARK  9 active torsions:
REMARK  status: ('A' for Active; 'I' for Inactive)
REMARK    1  A    between atoms: C_1  and  C_2
REMARK    2  A    between atoms: C_5  and  N_6
REMARK    3  A    between atoms: C_7  and  C_9
REMARK    4  A    between atoms: C_9  and  S_10
REMARK    5  A    between atoms: S_10  and  C_11
REMARK    6  A    between atoms: N_21  and  C_22
REMARK    7  A    between atoms: C_22  and  C_23
REMARK    8  A    between atoms: C_23  and  C_24
REMARK    9  A    between atoms: C_34  and  C_35
REMARK                            x       y       z     vdW  Elec       q    Type
REMARK                         _______ _______ _______ _____ _____    ______ ____
ROOT
ATOM      1  C   UNL     1      -0.617  10.828  21.257  0.00  0.00    +0.000 A 
ATOM      2  N   UNL     1      -0.857  11.461  22.363  0.00  0.00    +0.000 NA
ATOM      3  C   UNL     1      -0.796  12.835  22.359  0.00  0.00    +0.000 A 
ATOM      4  N   UNL     1      -1.058  13.425  23.569  0.00  0.00    +0.000 NA
ATOM      5  C   UNL     1      -0.786  14.748  23.647  0.00  0.00    +0.000 A 
ATOM      6  C   UNL     1      -0.255  15.464  22.591  0.00  0.00    +0.000 A 
ATOM      7  N   UNL     1      -0.015  14.902  21.375  0.00  0.00    +0.000 NA
ATOM      8  C   UNL     1      -0.311  13.569  21.297  0.00  0.00    +0.000 A 
ATOM      9  C   UNL     1      -0.073  12.813  20.039  0.00  0.00    +0.000 A 
ATOM     10  O   UNL     1       0.467  13.379  19.092  0.00  0.00    +0.000 OA
ATOM     11  N   UNL     1      -0.420  11.440  20.028  0.00  0.00    +0.000 N 
ENDROOT
BRANCH   1  12
ATOM     12  S   UNL     1      -0.398   9.102  21.406  0.00  0.00    +0.000 S 
BRANCH  12  13
ATOM     13  C   UNL     1       1.421   8.982  21.341  0.00  0.00    +0.000 C 
BRANCH  13  15
ATOM     14  N   UNL     1       1.944   6.645  20.861  0.00  0.00    +0.000 N 
ATOM     15  C   UNL     1       1.795   7.914  20.328  0.00  0.00    +0.000 C 
ATOM     16  O   UNL     1       1.957   8.232  19.149  0.00  0.00    +0.000 OA
ATOM     17  H   UNL     1       1.754   6.525  21.850  0.00  0.00    +0.000 HD
BRANCH  14  22
ATOM     18  C   UNL     1       3.478   1.906  17.974  0.00  0.00    +0.000 C 
ATOM     19  C   UNL     1       3.055   3.120  18.753  0.00  0.00    +0.000 A 
ATOM     20  C   UNL     1       4.011   4.093  19.060  0.00  0.00    +0.000 A 
ATOM     21  C   UNL     1       3.662   5.249  19.760  0.00  0.00    +0.000 A 
ATOM     22  C   UNL     1       2.349   5.474  20.165  0.00  0.00    +0.000 A 
ATOM     23  C   UNL     1       1.387   4.492  19.877  0.00  0.00    +0.000 A 
ATOM     24  C   UNL     1       1.727   3.311  19.180  0.00  0.00    +0.000 A 
ATOM     25  C   UNL     1       0.676   2.269  18.901  0.00  0.00    +0.000 C 
ENDBRANCH  14  22
ENDBRANCH  13  15
ENDBRANCH  12  13
ENDBRANCH   1  12
BRANCH  11  26
ATOM     26  C   UNL     1      -0.160  10.749  18.730  0.00  0.00    +0.000 C 
BRANCH  26  27
ATOM     27  C   UNL     1      -1.223   9.911  17.992  0.00  0.00    +0.000 C 
BRANCH  27  28
ATOM     28  C   UNL     1      -2.507  10.520  17.504  0.00  0.00    +0.000 A 
ATOM     29  C   UNL     1      -3.058  10.135  16.284  0.00  0.00    +0.000 A 
ATOM     30  N   UNL     1      -3.701  11.265  15.833  0.00  0.00    +0.000 N 
ATOM     31  C   UNL     1      -4.379  11.711  16.949  0.00  0.00    +0.000 A 
ATOM     32  C   UNL     1      -5.621  12.373  17.033  0.00  0.00    +0.000 A 
ATOM     33  C   UNL     1      -6.055  12.683  18.300  0.00  0.00    +0.000 A 
ATOM     34  C   UNL     1      -5.222  12.505  19.397  0.00  0.00    +0.000 A 
ATOM     35  C   UNL     1      -3.942  11.920  19.287  0.00  0.00    +0.000 A 
ATOM     36  C   UNL     1      -3.544  11.395  18.036  0.00  0.00    +0.000 A 
ATOM     37  H   UNL     1      -3.232  11.942  15.246  0.00  0.00    +0.000 HD
ENDBRANCH  27  28
ENDBRANCH  26  27
ENDBRANCH  11  26
TORSDOF 7
ENDMDL
MODEL 3
REMARK VINA RESULT:      -9.0      5.065      8.750
REMARK  Name = 
REMARK  9 active torsions:
REMARK  status: ('A' for Active; 'I' for Inactive)
REMARK    1  A    between atoms: C_1  and  C_2
REMARK    2  A    between atoms: C_5  and  N_6
REMARK    3  A    between atoms: C_7  and  C_9
REMARK    4  A    between atoms: C_9  and  S_10
REMARK    5  A    between atoms: S_10  and  C_11
REMARK    6  A    between atoms: N_21  and  C_22
REMARK    7  A    between atoms: C_22  and  C_23
REMARK    8  A    between atoms: C_23  and  C_24
REMARK    9  A    between atoms: C_34  and  C_35
REMARK                            x       y       z     vdW  Elec       q    Type
REMARK                         _______ _______ _______ _____ _____    ______ ____
ROOT
ATOM      1  C   UNL     1      -0.017  11.572  19.797  0.00  0.00    +0.000 A 
ATOM      2  N   UNL     1      -0.368  10.767  18.842  0.00  0.00    +0.000 NA
ATOM      3  C   UNL     1      -1.617  10.913  18.285  0.00  0.00    +0.000 A 
ATOM      4  N   UNL     1      -1.909  10.020  17.287  0.00  0.00    +0.000 NA
ATOM      5  C   UNL     1      -3.199   9.995  16.882  0.00  0.00    +0.000 A 
ATOM      6  C   UNL     1      -4.174  10.797  17.446  0.00  0.00    +0.000 A 
ATOM      7  N   UNL     1      -3.897  11.708  18.417  0.00  0.00    +0.000 NA
ATOM      8  C   UNL     1      -2.588  11.742  18.808  0.00  0.00    +0.000 A 
ATOM      9  C   UNL     1      -2.142  12.669  19.882  0.00  0.00    +0.000 A 
ATOM     10  O   UNL     1      -2.976  13.351  20.471  0.00  0.00    +0.000 OA
ATOM     11  N   UNL     1      -0.767  12.660  20.221  0.00  0.00    +0.000 N 
ENDROOT
BRANCH   1  12
ATOM     12  S   UNL     1       1.432  11.131  20.664  0.00  0.00    +0.000 S 
BRANCH  12  13
ATOM     13  C   UNL     1       0.745  10.013  21.931  0.00  0.00    +0.000 C 
BRANCH  13  15
ATOM     14  N   UNL     1       1.756   8.089  20.817  0.00  0.00    +0.000 N 
ATOM     15  C   UNL     1       0.586   8.633  21.317  0.00  0.00    +0.000 C 
ATOM     16  O   UNL     1      -0.531   8.114  21.283  0.00  0.00    +0.000 OA
ATOM     17  H   UNL     1       2.611   8.621  20.937  0.00  0.00    +0.000 HD
BRANCH  14  22
ATOM     18  C   UNL     1       2.202   3.028  18.107  0.00  0.00    +0.000 C 
ATOM     19  C   UNL     1       2.102   4.332  18.849  0.00  0.00    +0.000 A 
ATOM     20  C   UNL     1       2.452   5.514  18.187  0.00  0.00    +0.000 A 
ATOM     21  C   UNL     1       2.352   6.751  18.825  0.00  0.00    +0.000 A 
ATOM     22  C   UNL     1       1.893   6.849  20.136  0.00  0.00    +0.000 A 
ATOM     23  C   UNL     1       1.558   5.664  20.813  0.00  0.00    +0.000 A 
ATOM     24  C   UNL     1       1.665   4.403  20.185  0.00  0.00    +0.000 A 
ATOM     25  C   UNL     1       1.314   3.151  20.943  0.00  0.00    +0.000 C 
ENDBRANCH  14  22
ENDBRANCH  13  15
ENDBRANCH  12  13
ENDBRANCH   1  12
BRANCH  11  26
ATOM     26  C   UNL     1      -0.392  13.620  21.302  0.00  0.00    +0.000 C 
BRANCH  26  27
ATOM     27  C   UNL     1       0.386  14.926  21.038  0.00  0.00    +0.000 C 
BRANCH  27  28
ATOM     28  C   UNL     1      -0.088  15.935  20.030  0.00  0.00    +0.000 A 
ATOM     29  C   UNL     1      -1.278  16.632  20.226  0.00  0.00    +0.000 A 
ATOM     30  N   UNL     1      -1.749  16.857  18.953  0.00  0.00    +0.000 N 
ATOM     31  C   UNL     1      -0.631  17.294  18.273  0.00  0.00    +0.000 A 
ATOM     32  C   UNL     1      -0.536  18.223  17.217  0.00  0.00    +0.000 A 
ATOM     33  C   UNL     1       0.731  18.473  16.745  0.00  0.00    +0.000 A 
ATOM     34  C   UNL     1       1.810  17.712  17.178  0.00  0.00    +0.000 A 
ATOM     35  C   UNL     1       1.685  16.721  18.176  0.00  0.00    +0.000 A 
ATOM     36  C   UNL     1       0.443  16.580  18.835  0.00  0.00    +0.000 A 
ATOM     37  H   UNL     1      -2.372  16.205  18.497  0.00  0.00    +0.000 HD
ENDBRANCH  27  28
ENDBRANCH  26  27
ENDBRANCH  11  26
TORSDOF 7
ENDMDL
MODEL 4
REMARK VINA RESULT:      -8.9      1.572      2.259
REMARK  Name = 
REMARK  9 active torsions:
REMARK  status: ('A' for Active; 'I' for Inactive)
REMARK    1  A    between atoms: C_1  and  C_2
REMARK    2  A    between atoms: C_5  and  N_6
REMARK    3  A    between atoms: C_7  and  C_9
REMARK    4  A    between atoms: C_9  and  S_10
REMARK    5  A    between atoms: S_10  and  C_11
REMARK    6  A    between atoms: N_21  and  C_22
REMARK    7  A    between atoms: C_22  and  C_23
REMARK    8  A    between atoms: C_23  and  C_24
REMARK    9  A    between atoms: C_34  and  C_35
REMARK                            x       y       z     vdW  Elec       q    Type
REMARK                         _______ _______ _______ _____ _____    ______ ____
ROOT
ATOM      1  C   UNL     1       4.350   5.911  17.967  0.00  0.00    +0.000 A 
ATOM      2  N   UNL     1       4.554   4.685  18.336  0.00  0.00    +0.000 NA
ATOM      3  C   UNL     1       3.755   4.153  19.321  0.00  0.00    +0.000 A 
ATOM      4  N   UNL     1       4.041   2.855  19.654  0.00  0.00    +0.000 NA
ATOM      5  C   UNL     1       3.427   2.385  20.763  0.00  0.00    +0.000 A 
ATOM      6  C   UNL     1       2.582   3.163  21.534  0.00  0.00    +0.000 A 
ATOM      7  N   UNL     1       2.265   4.444  21.203  0.00  0.00    +0.000 NA
ATOM      8  C   UNL     1       2.873   4.905  20.069  0.00  0.00    +0.000 A 
ATOM      9  C   UNL     1       2.645   6.298  19.600  0.00  0.00    +0.000 A 
ATOM     10  O   UNL     1       1.964   7.057  20.284  0.00  0.00    +0.000 OA
ATOM     11  N   UNL     1       3.296   6.699  18.408  0.00  0.00    +0.000 N 
ENDROOT
BRANCH   1  12
ATOM     12  S   UNL     1       5.589   6.615  16.958  0.00  0.00    +0.000 S 
BRANCH  12  13
ATOM     13  C   UNL     1       6.952   6.783  18.158  0.00  0.00    +0.000 C 
BRANCH  13  15
ATOM     14  N   UNL     1       7.965   8.954  18.632  0.00  0.00    +0.000 N 
ATOM     15  C   UNL     1       7.846   7.927  17.712  0.00  0.00    +0.000 C 
ATOM     16  O   UNL     1       8.369   7.884  16.598  0.00  0.00    +0.000 OA
ATOM     17  H   UNL     1       7.496   8.843  19.525  0.00  0.00    +0.000 HD
BRANCH  14  22
ATOM     18  C   UNL     1      10.966  13.816  17.921  0.00  0.00    +0.000 C 
ATOM     19  C   UNL     1      10.192  12.547  18.146  0.00  0.00    +0.000 A 
ATOM     20  C   UNL     1       8.940  12.402  17.542  0.00  0.00    +0.000 A 
ATOM     21  C   UNL     1       8.195  11.233  17.702  0.00  0.00    +0.000 A 
ATOM     22  C   UNL     1       8.679  10.170  18.460  0.00  0.00    +0.000 A 
ATOM     23  C   UNL     1       9.929  10.316  19.086  0.00  0.00    +0.000 A 
ATOM     24  C   UNL     1      10.690  11.498  18.943  0.00  0.00    +0.000 A 
ATOM     25  C   UNL     1      12.017  11.630  19.641  0.00  0.00    +0.000 C 
ENDBRANCH  14  22
ENDBRANCH  13  15
ENDBRANCH  12  13
ENDBRANCH   1  12
BRANCH  11  26
ATOM     26  C   UNL     1       3.014   8.106  17.995  0.00  0.00    +0.000 C 
BRANCH  26  27
ATOM     27  C   UNL     1       1.652   8.564  17.435  0.00  0.00    +0.000 C 
BRANCH  27  28
ATOM     28  C   UNL     1       0.806   9.579  18.151  0.00  0.00    +0.000 A 
ATOM     29  C   UNL     1       1.385  10.504  19.017  0.00  0.00    +0.000 A 
ATOM     30  N   UNL     1       0.413  10.734  19.962  0.00  0.00    +0.000 N 
ATOM     31  C   UNL     1      -0.730  10.903  19.208  0.00  0.00    +0.000 A 
ATOM     32  C   UNL     1      -1.847  11.727  19.453  0.00  0.00    +0.000 A 
ATOM     33  C   UNL     1      -2.839  11.697  18.502  0.00  0.00    +0.000 A 
ATOM     34  C   UNL     1      -2.800  10.772  17.467  0.00  0.00    +0.000 A 
ATOM     35  C   UNL     1      -1.713   9.889  17.282  0.00  0.00    +0.000 A 
ATOM     36  C   UNL     1      -0.578  10.032  18.113  0.00  0.00    +0.000 A 
ATOM     37  H   UNL     1       0.359  10.187  20.810  0.00  0.00    +0.000 HD
ENDBRANCH  27  28
ENDBRANCH  26  27
ENDBRANCH  11  26
TORSDOF 7
ENDMDL
MODEL 5
REMARK VINA RESULT:      -8.8      3.768      9.024
REMARK  Name = 
REMARK  9 active torsions:
REMARK  status: ('A' for Active; 'I' for Inactive)
REMARK    1  A    between atoms: C_1  and  C_2
REMARK    2  A    between atoms: C_5  and  N_6
REMARK    3  A    between atoms: C_7  and  C_9
REMARK    4  A    between atoms: C_9  and  S_10
REMARK    5  A    between atoms: S_10  and  C_11
REMARK    6  A    between atoms: N_21  and  C_22
REMARK    7  A    between atoms: C_22  and  C_23
REMARK    8  A    between atoms: C_23  and  C_24
REMARK    9  A    between atoms: C_34  and  C_35
REMARK                            x       y       z     vdW  Elec       q    Type
REMARK                         _______ _______ _______ _____ _____    ______ ____
ROOT
ATOM      1  C   UNL     1       2.992   6.525  18.969  0.00  0.00    +0.000 A 
ATOM      2  N   UNL     1       2.283   6.021  19.931  0.00  0.00    +0.000 NA
ATOM      3  C   UNL     1       2.626   4.782  20.419  0.00  0.00    +0.000 A 
ATOM      4  N   UNL     1       1.823   4.321  21.431  0.00  0.00    +0.000 NA
ATOM      5  C   UNL     1       1.997   3.024  21.772  0.00  0.00    +0.000 A 
ATOM      6  C   UNL     1       2.904   2.200  21.133  0.00  0.00    +0.000 A 
ATOM      7  N   UNL     1       3.729   2.647  20.148  0.00  0.00    +0.000 NA
ATOM      8  C   UNL     1       3.562   3.964  19.821  0.00  0.00    +0.000 A 
ATOM      9  C   UNL     1       4.373   4.585  18.741  0.00  0.00    +0.000 A 
ATOM     10  O   UNL     1       5.142   3.883  18.089  0.00  0.00    +0.000 OA
ATOM     11  N   UNL     1       4.157   5.958  18.471  0.00  0.00    +0.000 N 
ENDROOT
BRANCH   1  12
ATOM     12  S   UNL     1       2.317   7.934  18.190  0.00  0.00    +0.000 S 
BRANCH  12  13
ATOM     13  C   UNL     1       1.944   8.979  19.638  0.00  0.00    +0.000 C 
BRANCH  13  15
ATOM     14  N   UNL     1       0.079   9.916  18.369  0.00  0.00    +0.000 N 
ATOM     15  C   UNL     1       0.478   9.374  19.578  0.00  0.00    +0.000 C 
ATOM     16  O   UNL     1      -0.229   9.216  20.574  0.00  0.00    +0.000 OA
ATOM     17  H   UNL     1       0.767   9.963  17.625  0.00  0.00    +0.000 HD
BRANCH  14  22
ATOM     18  C   UNL     1      -5.166  11.881  17.037  0.00  0.00    +0.000 C 
ATOM     19  C   UNL     1      -3.785  11.375  17.346  0.00  0.00    +0.000 A 
ATOM     20  C   UNL     1      -3.184  11.746  18.553  0.00  0.00    +0.000 A 
ATOM     21  C   UNL     1      -1.913  11.282  18.896  0.00  0.00    +0.000 A 
ATOM     22  C   UNL     1      -1.207  10.429  18.052  0.00  0.00    +0.000 A 
ATOM     23  C   UNL     1      -1.797  10.068  16.828  0.00  0.00    +0.000 A 
ATOM     24  C   UNL     1      -3.078  10.539  16.462  0.00  0.00    +0.000 A 
ATOM     25  C   UNL     1      -3.675  10.147  15.136  0.00  0.00    +0.000 C 
ENDBRANCH  14  22
ENDBRANCH  13  15
ENDBRANCH  12  13
ENDBRANCH   1  12
BRANCH  11  26
ATOM     26  C   UNL     1       5.011   6.514  17.380  0.00  0.00    +0.000 C 
BRANCH  26  27
ATOM     27  C   UNL     1       4.742   6.257  15.883  0.00  0.00    +0.000 C 
BRANCH  27  28
ATOM     28  C   UNL     1       5.722   5.512  15.023  0.00  0.00    +0.000 A 
ATOM     29  C   UNL     1       7.037   5.323  15.442  0.00  0.00    +0.000 A 
ATOM     30  N   UNL     1       7.764   5.302  14.274  0.00  0.00    +0.000 N 
ATOM     31  C   UNL     1       7.024   4.473  13.456  0.00  0.00    +0.000 A 
ATOM     32  C   UNL     1       7.465   3.583  12.454  0.00  0.00    +0.000 A 
ATOM     33  C   UNL     1       6.484   2.869  11.808  0.00  0.00    +0.000 A 
ATOM     34  C   UNL     1       5.142   3.156  12.021  0.00  0.00    +0.000 A 
ATOM     35  C   UNL     1       4.715   4.114  12.966  0.00  0.00    +0.000 A 
ATOM     36  C   UNL     1       5.682   4.718  13.801  0.00  0.00    +0.000 A 
ATOM     37  H   UNL     1       8.160   6.145  13.882  0.00  0.00    +0.000 HD
ENDBRANCH  27  28
ENDBRANCH  26  27
ENDBRANCH  11  26
TORSDOF 7
ENDMDL
MODEL 6
REMARK VINA RESULT:      -8.8      4.763      8.730
REMARK  Name = 
REMARK  9 active torsions:
REMARK  status: ('A' for Active; 'I' for Inactive)
REMARK    1  A    between atoms: C_1  and  C_2
REMARK    2  A    between atoms: C_5  and  N_6
REMARK    3  A    between atoms: C_7  and  C_9
REMARK    4  A    between atoms: C_9  and  S_10
REMARK    5  A    between atoms: S_10  and  C_11
REMARK    6  A    between atoms: N_21  and  C_22
REMARK    7  A    between atoms: C_22  and  C_23
REMARK    8  A    between atoms: C_23  and  C_24
REMARK    9  A    between atoms: C_34  and  C_35
REMARK                            x       y       z     vdW  Elec       q    Type
REMARK                         _______ _______ _______ _____ _____    ______ ____
ROOT
ATOM      1  C   UNL     1       0.073  12.172  21.334  0.00  0.00    +0.000 A 
ATOM      2  N   UNL     1       0.759  13.048  22.001  0.00  0.00    +0.000 NA
ATOM      3  C   UNL     1       1.620  13.870  21.312  0.00  0.00    +0.000 A 
ATOM      4  N   UNL     1       2.309  14.763  22.091  0.00  0.00    +0.000 NA
ATOM      5  C   UNL     1       3.316  15.422  21.476  0.00  0.00    +0.000 A 
ATOM      6  C   UNL     1       3.655  15.201  20.154  0.00  0.00    +0.000 A 
ATOM      7  N   UNL     1       2.964  14.341  19.358  0.00  0.00    +0.000 NA
ATOM      8  C   UNL     1       1.935  13.693  19.980  0.00  0.00    +0.000 A 
ATOM      9  C   UNL     1       1.109  12.699  19.244  0.00  0.00    +0.000 A 
ATOM     10  O   UNL     1       1.410  12.408  18.089  0.00  0.00    +0.000 OA
ATOM     11  N   UNL     1       0.048  12.081  19.950  0.00  0.00    +0.000 N 
ENDROOT
BRANCH   1  12
ATOM     12  S   UNL     1      -0.745  10.963  22.292  0.00  0.00    +0.000 S 
BRANCH  12  13
ATOM     13  C   UNL     1       0.626   9.808  22.629  0.00  0.00    +0.000 C 
BRANCH  13  15
ATOM     14  N   UNL     1       1.697   8.094  21.259  0.00  0.00    +0.000 N 
ATOM     15  C   UNL     1       0.492   8.620  21.693  0.00  0.00    +0.000 C 
ATOM     16  O   UNL     1      -0.630   8.228  21.372  0.00  0.00    +0.000 OA
ATOM     17  H   UNL     1       2.549   8.504  21.626  0.00  0.00    +0.000 HD
BRANCH  14  22
ATOM     18  C   UNL     1       2.308   3.730  17.553  0.00  0.00    +0.000 C 
ATOM     19  C   UNL     1       2.164   4.846  18.551  0.00  0.00    +0.000 A 
ATOM     20  C   UNL     1       2.514   6.144  18.167  0.00  0.00    +0.000 A 
ATOM     21  C   UNL     1       2.375   7.217  19.049  0.00  0.00    +0.000 A 
ATOM     22  C   UNL     1       1.875   7.029  20.335  0.00  0.00    +0.000 A 
ATOM     23  C   UNL     1       1.540   5.724  20.734  0.00  0.00    +0.000 A 
ATOM     24  C   UNL     1       1.686   4.626  19.856  0.00  0.00    +0.000 A 
ATOM     25  C   UNL     1       1.335   3.237  20.320  0.00  0.00    +0.000 C 
ENDBRANCH  14  22
ENDBRANCH  13  15
ENDBRANCH  12  13
ENDBRANCH   1  12
BRANCH  11  26
ATOM     26  C   UNL     1      -0.741  11.102  19.144  0.00  0.00    +0.000 C 
BRANCH  26  27
ATOM     27  C   UNL     1      -1.999  11.490  18.341  0.00  0.00    +0.000 C 
BRANCH  27  28
ATOM     28  C   UNL     1      -3.252  11.964  19.020  0.00  0.00    +0.000 A 
ATOM     29  C   UNL     1      -3.188  12.853  20.091  0.00  0.00    +0.000 A 
ATOM     30  N   UNL     1      -4.275  12.523  20.868  0.00  0.00    +0.000 N 
ATOM     31  C   UNL     1      -5.296  12.400  19.949  0.00  0.00    +0.000 A 
ATOM     32  C   UNL     1      -6.668  12.691  20.095  0.00  0.00    +0.000 A 
ATOM     33  C   UNL     1      -7.451  12.480  18.985  0.00  0.00    +0.000 A 
ATOM     34  C   UNL     1      -6.931  11.851  17.860  0.00  0.00    +0.000 A 
ATOM     35  C   UNL     1      -5.571  11.484  17.760  0.00  0.00    +0.000 A 
ATOM     36  C   UNL     1      -4.689  11.873  18.793  0.00  0.00    +0.000 A 
ATOM     37  H   UNL     1      -4.206  11.843  21.612  0.00  0.00    +0.000 HD
ENDBRANCH  27  28
ENDBRANCH  26  27
ENDBRANCH  11  26
TORSDOF 7
ENDMDL
MODEL 7
REMARK VINA RESULT:      -8.8      4.094      7.971
REMARK  Name = 
REMARK  9 active torsions:
REMARK  status: ('A' for Active; 'I' for Inactive)
REMARK    1  A    between atoms: C_1  and  C_2
REMARK    2  A    between atoms: C_5  and  N_6
REMARK    3  A    between atoms: C_7  and  C_9
REMARK    4  A    between atoms: C_9  and  S_10
REMARK    5  A    between atoms: S_10  and  C_11
REMARK    6  A    between atoms: N_21  and  C_22
REMARK    7  A    between atoms: C_22  and  C_23
REMARK    8  A    between atoms: C_23  and  C_24
REMARK    9  A    between atoms: C_34  and  C_35
REMARK                            x       y       z     vdW  Elec       q    Type
REMARK                         _______ _______ _______ _____ _____    ______ ____
ROOT
ATOM      1  C   UNL     1      -0.213  10.401  18.722  0.00  0.00    +0.000 A 
ATOM      2  N   UNL     1      -0.799   9.961  17.652  0.00  0.00    +0.000 NA
ATOM      3  C   UNL     1      -1.966  10.565  17.247  0.00  0.00    +0.000 A 
ATOM      4  N   UNL     1      -2.522  10.036  16.110  0.00  0.00    +0.000 NA
ATOM      5  C   UNL     1      -3.774  10.457  15.820  0.00  0.00    +0.000 A 
ATOM      6  C   UNL     1      -4.468  11.344  16.622  0.00  0.00    +0.000 A 
ATOM      7  N   UNL     1      -3.922  11.900  17.737  0.00  0.00    +0.000 NA
ATOM      8  C   UNL     1      -2.649  11.486  18.014  0.00  0.00    +0.000 A 
ATOM      9  C   UNL     1      -1.934  11.986  19.218  0.00  0.00    +0.000 A 
ATOM     10  O   UNL     1      -2.527  12.717  20.007  0.00  0.00    +0.000 OA
ATOM     11  N   UNL     1      -0.612  11.526  19.430  0.00  0.00    +0.000 N 
ENDROOT
BRANCH   1  12
ATOM     12  S   UNL     1       1.070   9.397  19.350  0.00  0.00    +0.000 S 
BRANCH  12  13
ATOM     13  C   UNL     1       2.113   9.207  17.866  0.00  0.00    +0.000 C 
BRANCH  13  15
ATOM     14  N   UNL     1       2.408   7.060  18.991  0.00  0.00    +0.000 N 
ATOM     15  C   UNL     1       2.825   7.868  17.948  0.00  0.00    +0.000 C 
ATOM     16  O   UNL     1       3.707   7.604  17.130  0.00  0.00    +0.000 OA
ATOM     17  H   UNL     1       1.650   7.398  19.574  0.00  0.00    +0.000 HD
BRANCH  14  22
ATOM     18  C   UNL     1       4.439   1.863  20.412  0.00  0.00    +0.000 C 
ATOM     19  C   UNL     1       3.896   3.226  20.080  0.00  0.00    +0.000 A 
ATOM     20  C   UNL     1       4.651   4.072  19.262  0.00  0.00    +0.000 A 
ATOM     21  C   UNL     1       4.178   5.337  18.906  0.00  0.00    +0.000 A 
ATOM     22  C   UNL     1       2.937   5.790  19.346  0.00  0.00    +0.000 A 
ATOM     23  C   UNL     1       2.183   4.952  20.184  0.00  0.00    +0.000 A 
ATOM     24  C   UNL     1       2.653   3.674  20.563  0.00  0.00    +0.000 A 
ATOM     25  C   UNL     1       1.828   2.807  21.476  0.00  0.00    +0.000 C 
ENDBRANCH  14  22
ENDBRANCH  13  15
ENDBRANCH  12  13
ENDBRANCH   1  12
BRANCH  11  26
ATOM     26  C   UNL     1       0.044  12.076  20.653  0.00  0.00    +0.000 C 
BRANCH  26  27
ATOM     27  C   UNL     1       1.492  12.607  20.668  0.00  0.00    +0.000 C 
BRANCH  27  28
ATOM     28  C   UNL     1       2.036  13.443  19.544  0.00  0.00    +0.000 A 
ATOM     29  C   UNL     1       2.549  12.843  18.396  0.00  0.00    +0.000 A 
ATOM     30  N   UNL     1       3.530  13.710  17.973  0.00  0.00    +0.000 N 
ATOM     31  C   UNL     1       2.924  14.946  18.066  0.00  0.00    +0.000 A 
ATOM     32  C   UNL     1       3.103  16.091  17.264  0.00  0.00    +0.000 A 
ATOM     33  C   UNL     1       2.338  17.185  17.593  0.00  0.00    +0.000 A 
ATOM     34  C   UNL     1       1.578  17.193  18.756  0.00  0.00    +0.000 A 
ATOM     35  C   UNL     1       1.475  16.066  19.600  0.00  0.00    +0.000 A 
ATOM     36  C   UNL     1       2.076  14.855  19.187  0.00  0.00    +0.000 A 
ATOM     37  H   UNL     1       4.488  13.615  18.279  0.00  0.00    +0.000 HD
ENDBRANCH  27  28
ENDBRANCH  26  27
ENDBRANCH  11  26
TORSDOF 7
ENDMDL
MODEL 8
REMARK VINA RESULT:      -8.8      4.530      8.884
REMARK  Name = 
REMARK  9 active torsions:
REMARK  status: ('A' for Active; 'I' for Inactive)
REMARK    1  A    between atoms: C_1  and  C_2
REMARK    2  A    between atoms: C_5  and  N_6
REMARK    3  A    between atoms: C_7  and  C_9
REMARK    4  A    between atoms: C_9  and  S_10
REMARK    5  A    between atoms: S_10  and  C_11
REMARK    6  A    between atoms: N_21  and  C_22
REMARK    7  A    between atoms: C_22  and  C_23
REMARK    8  A    between atoms: C_23  and  C_24
REMARK    9  A    between atoms: C_34  and  C_35
REMARK                            x       y       z     vdW  Elec       q    Type
REMARK                         _______ _______ _______ _____ _____    ______ ____
ROOT
ATOM      1  C   UNL     1       0.481  12.410  20.919  0.00  0.00    +0.000 A 
ATOM      2  N   UNL     1       1.682  12.595  21.372  0.00  0.00    +0.000 NA
ATOM      3  C   UNL     1       2.394  13.681  20.920  0.00  0.00    +0.000 A 
ATOM      4  N   UNL     1       3.655  13.800  21.445  0.00  0.00    +0.000 NA
ATOM      5  C   UNL     1       4.451  14.720  20.855  0.00  0.00    +0.000 A 
ATOM      6  C   UNL     1       4.041  15.480  19.776  0.00  0.00    +0.000 A 
ATOM      7  N   UNL     1       2.785  15.396  19.260  0.00  0.00    +0.000 NA
ATOM      8  C   UNL     1       1.978  14.478  19.874  0.00  0.00    +0.000 A 
ATOM      9  C   UNL     1       0.587  14.255  19.399  0.00  0.00    +0.000 A 
ATOM     10  O   UNL     1       0.192  14.847  18.399  0.00  0.00    +0.000 OA
ATOM     11  N   UNL     1      -0.194  13.301  20.097  0.00  0.00    +0.000 N 
ENDROOT
BRANCH   1  12
ATOM     12  S   UNL     1      -0.235  10.860  21.283  0.00  0.00    +0.000 S 
BRANCH  12  13
ATOM     13  C   UNL     1       1.259   9.848  21.548  0.00  0.00    +0.000 C 
BRANCH  13  15
ATOM     14  N   UNL     1       2.029   7.787  20.487  0.00  0.00    +0.000 N 
ATOM     15  C   UNL     1       0.963   8.429  21.094  0.00  0.00    +0.000 C 
ATOM     16  O   UNL     1      -0.164   7.964  21.265  0.00  0.00    +0.000 OA
ATOM     17  H   UNL     1       2.911   8.286  20.437  0.00  0.00    +0.000 HD
BRANCH  14  22
ATOM     18  C   UNL     1       1.898   2.496  18.222  0.00  0.00    +0.000 C 
ATOM     19  C   UNL     1       1.951   3.862  18.847  0.00  0.00    +0.000 A 
ATOM     20  C   UNL     1       2.294   4.958  18.048  0.00  0.00    +0.000 A 
ATOM     21  C   UNL     1       2.332   6.249  18.576  0.00  0.00    +0.000 A 
ATOM     22  C   UNL     1       2.023   6.488  19.912  0.00  0.00    +0.000 A 
ATOM     23  C   UNL     1       1.697   5.389  20.726  0.00  0.00    +0.000 A 
ATOM     24  C   UNL     1       1.665   4.075  20.208  0.00  0.00    +0.000 A 
ATOM     25  C   UNL     1       1.329   2.917  21.110  0.00  0.00    +0.000 C 
ENDBRANCH  14  22
ENDBRANCH  13  15
ENDBRANCH  12  13
ENDBRANCH   1  12
BRANCH  11  26
ATOM     26  C   UNL     1      -1.582  13.136  19.568  0.00  0.00    +0.000 C 
BRANCH  26  27
ATOM     27  C   UNL     1      -1.970  12.052  18.542  0.00  0.00    +0.000 C 
BRANCH  27  28
ATOM     28  C   UNL     1      -3.406  11.694  18.279  0.00  0.00    +0.000 A 
ATOM     29  C   UNL     1      -3.744  10.827  17.243  0.00  0.00    +0.000 A 
ATOM     30  N   UNL     1      -4.985  11.259  16.835  0.00  0.00    +0.000 N 
ATOM     31  C   UNL     1      -5.664  11.442  18.021  0.00  0.00    +0.000 A 
ATOM     32  C   UNL     1      -7.034  11.264  18.302  0.00  0.00    +0.000 A 
ATOM     33  C   UNL     1      -7.422  11.512  19.598  0.00  0.00    +0.000 A 
ATOM     34  C   UNL     1      -6.534  12.072  20.507  0.00  0.00    +0.000 A 
ATOM     35  C   UNL     1      -5.183  12.328  20.186  0.00  0.00    +0.000 A 
ATOM     36  C   UNL     1      -4.692  11.893  18.934  0.00  0.00    +0.000 A 
ATOM     37  H   UNL     1      -5.091  11.948  16.102  0.00  0.00    +0.000 HD
ENDBRANCH  27  28
ENDBRANCH  26  27
ENDBRANCH  11  26
TORSDOF 7
ENDMDL
MODEL 9
REMARK VINA RESULT:      -8.7      4.164      8.203
REMARK  Name = 
REMARK  9 active torsions:
REMARK  status: ('A' for Active; 'I' for Inactive)
REMARK    1  A    between atoms: C_1  and  C_2
REMARK    2  A    between atoms: C_5  and  N_6
REMARK    3  A    between atoms: C_7  and  C_9
REMARK    4  A    between atoms: C_9  and  S_10
REMARK    5  A    between atoms: S_10  and  C_11
REMARK    6  A    between atoms: N_21  and  C_22
REMARK    7  A    between atoms: C_22  and  C_23
REMARK    8  A    between atoms: C_23  and  C_24
REMARK    9  A    between atoms: C_34  and  C_35
REMARK                            x       y       z     vdW  Elec       q    Type
REMARK                         _______ _______ _______ _____ _____    ______ ____
ROOT
ATOM      1  C   UNL     1      -0.662  10.732  19.258  0.00  0.00    +0.000 A 
ATOM      2  N   UNL     1      -0.935  10.242  18.088  0.00  0.00    +0.000 NA
ATOM      3  C   UNL     1      -2.060  10.688  17.435  0.00  0.00    +0.000 A 
ATOM      4  N   UNL     1      -2.277  10.116  16.208  0.00  0.00    +0.000 NA
ATOM      5  C   UNL     1      -3.482  10.366  15.650  0.00  0.00    +0.000 A 
ATOM      6  C   UNL     1      -4.451  11.127  16.276  0.00  0.00    +0.000 A 
ATOM      7  N   UNL     1      -4.244  11.725  17.480  0.00  0.00    +0.000 NA
ATOM      8  C   UNL     1      -3.016  11.485  18.030  0.00  0.00    +0.000 A 
ATOM      9  C   UNL     1      -2.657  12.049  19.359  0.00  0.00    +0.000 A 
ATOM     10  O   UNL     1      -3.503  12.671  19.995  0.00  0.00    +0.000 OA
ATOM     11  N   UNL     1      -1.360  11.772  19.855  0.00  0.00    +0.000 N 
ENDROOT
BRANCH   1  12
ATOM     12  S   UNL     1       0.582   9.900  20.156  0.00  0.00    +0.000 S 
BRANCH  12  13
ATOM     13  C   UNL     1       1.622   9.270  18.796  0.00  0.00    +0.000 C 
BRANCH  13  15
ATOM     14  N   UNL     1       2.313   7.055  18.037  0.00  0.00    +0.000 N 
ATOM     15  C   UNL     1       2.051   7.854  19.136  0.00  0.00    +0.000 C 
ATOM     16  O   UNL     1       2.114   7.511  20.318  0.00  0.00    +0.000 OA
ATOM     17  H   UNL     1       2.244   7.480  17.119  0.00  0.00    +0.000 HD
BRANCH  14  22
ATOM     18  C   UNL     1       3.643   1.453  18.048  0.00  0.00    +0.000 C 
ATOM     19  C   UNL     1       3.275   2.910  18.081  0.00  0.00    +0.000 A 
ATOM     20  C   UNL     1       4.249   3.860  17.757  0.00  0.00    +0.000 A 
ATOM     21  C   UNL     1       3.949   5.223  17.749  0.00  0.00    +0.000 A 
ATOM     22  C   UNL     1       2.669   5.679  18.053  0.00  0.00    +0.000 A 
ATOM     23  C   UNL     1       1.691   4.731  18.399  0.00  0.00    +0.000 A 
ATOM     24  C   UNL     1       1.982   3.348  18.423  0.00  0.00    +0.000 A 
ATOM     25  C   UNL     1       0.916   2.360  18.814  0.00  0.00    +0.000 C 
ENDBRANCH  14  22
ENDBRANCH  13  15
ENDBRANCH  12  13
ENDBRANCH   1  12
BRANCH  11  26
ATOM     26  C   UNL     1      -1.069  12.377  21.190  0.00  0.00    +0.000 C 
BRANCH  26  27
ATOM     27  C   UNL     1      -0.898  13.894  21.409  0.00  0.00    +0.000 C 
BRANCH  27  28
ATOM     28  C   UNL     1       0.053  14.708  20.577  0.00  0.00    +0.000 A 
ATOM     29  C   UNL     1       0.240  16.065  20.833  0.00  0.00    +0.000 A 
ATOM     30  N   UNL     1       0.522  16.604  19.599  0.00  0.00    +0.000 N 
ATOM     31  C   UNL     1       1.442  15.723  19.070  0.00  0.00    +0.000 A 
ATOM     32  C   UNL     1       2.527  15.978  18.207  0.00  0.00    +0.000 A 
ATOM     33  C   UNL     1       3.289  14.888  17.857  0.00  0.00    +0.000 A 
ATOM     34  C   UNL     1       2.886  13.604  18.201  0.00  0.00    +0.000 A 
ATOM     35  C   UNL     1       1.745  13.356  18.994  0.00  0.00    +0.000 A 
ATOM     36  C   UNL     1       1.056  14.458  19.550  0.00  0.00    +0.000 A 
ATOM     37  H   UNL     1      -0.208  16.963  18.999  0.00  0.00    +0.000 HD
ENDBRANCH  27  28
ENDBRANCH  26  27
ENDBRANCH  11  26
TORSDOF 7
ENDMDL
