MODEL 1
REMARK VINA RESULT:      -6.7      0.000      0.000
REMARK  Name = 
REMARK  15 active torsions:
REMARK  status: ('A' for Active; 'I' for Inactive)
REMARK    1  A    between atoms: C_1  and  C_2
REMARK    2  A    between atoms: C_2  and  C_3
REMARK    3  A    between atoms: C_3  and  C_4
REMARK    4  A    between atoms: C_4  and  C_5
REMARK    5  A    between atoms: C_5  and  C_6
REMARK    6  A    between atoms: C_6  and  C_7
REMARK    7  A    between atoms: C_7  and  C_8
REMARK    8  A    between atoms: C_8  and  C_9
REMARK    9  A    between atoms: C_9  and  C_10
REMARK   10  A    between atoms: C_10  and  C_11
REMARK   11  A    between atoms: C_11  and  C_12
REMARK   12  A    between atoms: C_12  and  C_13
REMARK   13  A    between atoms: C_13  and  C_14
REMARK   14  A    between atoms: C_14  and  N_15
REMARK   15  A    between atoms: C_16  and  C_17
REMARK                            x       y       z     vdW  Elec       q    Type
REMARK                         _______ _______ _______ _____ _____    ______ ____
ROOT
ATOM      1  N   UNL     1       6.430   4.889  16.185  0.00  0.00    +0.000 N 
ATOM      2  C   UNL     1       5.157   4.326  16.166  0.00  0.00    +0.000 A 
ATOM      3  C   UNL     1       4.982   4.017  14.822  0.00  0.00    +0.000 A 
ATOM      4  N   UNL     1       6.053   4.383  14.058  0.00  0.00    +0.000 NA
ATOM      5  C   UNL     1       6.895   4.933  14.886  0.00  0.00    +0.000 A 
ATOM      6  N   UNL     1       8.079   5.443  14.517  0.00  0.00    +0.000 N 
ATOM      7  H   UNL     1       8.246   5.437  13.513  0.00  0.00    +0.000 HD
ATOM      8  H   UNL     1       8.426   6.291  14.947  0.00  0.00    +0.000 HD
ENDROOT
BRANCH   2   9
ATOM      9  C   UNL     1       4.213   4.119  17.283  0.00  0.00    +0.000 A 
ATOM     10  C   UNL     1       3.300   5.137  17.603  0.00  0.00    +0.000 A 
ATOM     11  C   UNL     1       2.358   4.972  18.628  0.00  0.00    +0.000 A 
ATOM     12  C   UNL     1       2.315   3.785  19.349  0.00  0.00    +0.000 A 
ATOM     13 CL   UNL     1       1.161   3.570  20.605  0.00  0.00    +0.000 Cl
ATOM     14  C   UNL     1       3.200   2.765  19.054  0.00  0.00    +0.000 A 
ATOM     15  C   UNL     1       4.132   2.939  18.030  0.00  0.00    +0.000 A 
ENDBRANCH   2   9
BRANCH   1  16
ATOM     16  C   UNL     1       7.159   5.350  17.353  0.00  0.00    +0.000 C 
BRANCH  16  17
ATOM     17  C   UNL     1       6.950   6.845  17.647  0.00  0.00    +0.000 C 
BRANCH  17  18
ATOM     18  C   UNL     1       8.149   7.575  18.242  0.00  0.00    +0.000 C 
BRANCH  18  19
ATOM     19  C   UNL     1       8.147   9.067  17.982  0.00  0.00    +0.000 C 
BRANCH  19  20
ATOM     20  C   UNL     1       8.974   9.828  18.998  0.00  0.00    +0.000 C 
BRANCH  20  21
ATOM     21  C   UNL     1       9.507  11.092  18.359  0.00  0.00    +0.000 C 
BRANCH  21  22
ATOM     22  C   UNL     1      10.973  11.239  18.707  0.00  0.00    +0.000 C 
BRANCH  22  23
ATOM     23  C   UNL     1      11.627  12.228  17.767  0.00  0.00    +0.000 C 
BRANCH  23  24
ATOM     24  C   UNL     1      10.573  13.166  17.212  0.00  0.00    +0.000 C 
BRANCH  24  25
ATOM     25  C   UNL     1      11.021  14.606  17.374  0.00  0.00    +0.000 C 
BRANCH  25  26
ATOM     26  C   UNL     1      11.676  14.802  18.732  0.00  0.00    +0.000 C 
BRANCH  26  27
ATOM     27  C   UNL     1      10.630  15.168  19.773  0.00  0.00    +0.000 C 
BRANCH  27  29
ATOM     28  C   UNL     1       9.083  13.718  21.105  0.00  0.00    +0.000 C 
ATOM     29  C   UNL     1      10.530  14.088  20.843  0.00  0.00    +0.000 C 
ENDBRANCH  27  29
ENDBRANCH  26  27
ENDBRANCH  25  26
ENDBRANCH  24  25
ENDBRANCH  23  24
ENDBRANCH  22  23
ENDBRANCH  21  22
ENDBRANCH  20  21
ENDBRANCH  19  20
ENDBRANCH  18  19
ENDBRANCH  17  18
ENDBRANCH  16  17
ENDBRANCH   1  16
TORSDOF 14
ENDMDL
MODEL 2
REMARK VINA RESULT:      -6.5      1.641      2.099
REMARK  Name = 
REMARK  15 active torsions:
REMARK  status: ('A' for Active; 'I' for Inactive)
REMARK    1  A    between atoms: C_1  and  C_2
REMARK    2  A    between atoms: C_2  and  C_3
REMARK    3  A    between atoms: C_3  and  C_4
REMARK    4  A    between atoms: C_4  and  C_5
REMARK    5  A    between atoms: C_5  and  C_6
REMARK    6  A    between atoms: C_6  and  C_7
REMARK    7  A    between atoms: C_7  and  C_8
REMARK    8  A    between atoms: C_8  and  C_9
REMARK    9  A    between atoms: C_9  and  C_10
REMARK   10  A    between atoms: C_10  and  C_11
REMARK   11  A    between atoms: C_11  and  C_12
REMARK   12  A    between atoms: C_12  and  C_13
REMARK   13  A    between atoms: C_13  and  C_14
REMARK   14  A    between atoms: C_14  and  N_15
REMARK   15  A    between atoms: C_16  and  C_17
REMARK                            x       y       z     vdW  Elec       q    Type
REMARK                         _______ _______ _______ _____ _____    ______ ____
ROOT
ATOM      1  N   UNL     1       6.021   5.860  16.560  0.00  0.00    +0.000 N 
ATOM      2  C   UNL     1       4.843   5.335  17.083  0.00  0.00    +0.000 A 
ATOM      3  C   UNL     1       4.727   4.123  16.412  0.00  0.00    +0.000 A 
ATOM      4  N   UNL     1       5.741   3.920  15.521  0.00  0.00    +0.000 NA
ATOM      5  C   UNL     1       6.487   4.984  15.599  0.00  0.00    +0.000 A 
ATOM      6  N   UNL     1       7.589   5.180  14.859  0.00  0.00    +0.000 N 
ATOM      7  H   UNL     1       7.764   4.457  14.166  0.00  0.00    +0.000 HD
ATOM      8  H   UNL     1       7.805   6.101  14.500  0.00  0.00    +0.000 HD
ENDROOT
BRANCH   2   9
ATOM      9  C   UNL     1       3.928   5.917  18.086  0.00  0.00    +0.000 A 
ATOM     10  C   UNL     1       3.296   7.140  17.805  0.00  0.00    +0.000 A 
ATOM     11  C   UNL     1       2.389   7.712  18.708  0.00  0.00    +0.000 A 
ATOM     12  C   UNL     1       2.100   7.070  19.906  0.00  0.00    +0.000 A 
ATOM     13 CL   UNL     1       0.986   7.760  21.018  0.00  0.00    +0.000 Cl
ATOM     14  C   UNL     1       2.705   5.865  20.207  0.00  0.00    +0.000 A 
ATOM     15  C   UNL     1       3.606   5.302  19.299  0.00  0.00    +0.000 A 
ENDBRANCH   2   9
BRANCH   1  16
ATOM     16  C   UNL     1       6.665   7.103  16.945  0.00  0.00    +0.000 C 
BRANCH  16  17
ATOM     17  C   UNL     1       7.726   6.922  18.043  0.00  0.00    +0.000 C 
BRANCH  17  18
ATOM     18  C   UNL     1       8.385   8.202  18.543  0.00  0.00    +0.000 C 
BRANCH  18  19
ATOM     19  C   UNL     1       8.146   9.402  17.649  0.00  0.00    +0.000 C 
BRANCH  19  20
ATOM     20  C   UNL     1       8.588  10.698  18.298  0.00  0.00    +0.000 C 
BRANCH  20  21
ATOM     21  C   UNL     1       9.548  10.387  19.426  0.00  0.00    +0.000 C 
BRANCH  21  22
ATOM     22  C   UNL     1      10.815  11.192  19.230  0.00  0.00    +0.000 C 
BRANCH  22  23
ATOM     23  C   UNL     1      11.043  12.090  20.426  0.00  0.00    +0.000 C 
BRANCH  23  24
ATOM     24  C   UNL     1      11.713  13.372  19.969  0.00  0.00    +0.000 C 
BRANCH  24  25
ATOM     25  C   UNL     1      11.891  13.358  18.463  0.00  0.00    +0.000 C 
BRANCH  25  26
ATOM     26  C   UNL     1      11.537  14.716  17.880  0.00  0.00    +0.000 C 
BRANCH  26  27
ATOM     27  C   UNL     1      10.280  15.261  18.541  0.00  0.00    +0.000 C 
BRANCH  27  29
ATOM     28  C   UNL     1       8.073  14.221  19.107  0.00  0.00    +0.000 C 
ATOM     29  C   UNL     1       9.038  14.573  17.989  0.00  0.00    +0.000 C 
ENDBRANCH  27  29
ENDBRANCH  26  27
ENDBRANCH  25  26
ENDBRANCH  24  25
ENDBRANCH  23  24
ENDBRANCH  22  23
ENDBRANCH  21  22
ENDBRANCH  20  21
ENDBRANCH  19  20
ENDBRANCH  18  19
ENDBRANCH  17  18
ENDBRANCH  16  17
ENDBRANCH   1  16
TORSDOF 14
ENDMDL
MODEL 3
REMARK VINA RESULT:      -6.4      5.619      8.264
REMARK  Name = 
REMARK  15 active torsions:
REMARK  status: ('A' for Active; 'I' for Inactive)
REMARK    1  A    between atoms: C_1  and  C_2
REMARK    2  A    between atoms: C_2  and  C_3
REMARK    3  A    between atoms: C_3  and  C_4
REMARK    4  A    between atoms: C_4  and  C_5
REMARK    5  A    between atoms: C_5  and  C_6
REMARK    6  A    between atoms: C_6  and  C_7
REMARK    7  A    between atoms: C_7  and  C_8
REMARK    8  A    between atoms: C_8  and  C_9
REMARK    9  A    between atoms: C_9  and  C_10
REMARK   10  A    between atoms: C_10  and  C_11
REMARK   11  A    between atoms: C_11  and  C_12
REMARK   12  A    between atoms: C_12  and  C_13
REMARK   13  A    between atoms: C_13  and  C_14
REMARK   14  A    between atoms: C_14  and  N_15
REMARK   15  A    between atoms: C_16  and  C_17
REMARK                            x       y       z     vdW  Elec       q    Type
REMARK                         _______ _______ _______ _____ _____    ______ ____
ROOT
ATOM      1  N   UNL     1       2.352   4.017  19.434  0.00  0.00    +0.000 N 
ATOM      2  C   UNL     1       3.192   4.095  18.327  0.00  0.00    +0.000 A 
ATOM      3  C   UNL     1       2.628   3.172  17.454  0.00  0.00    +0.000 A 
ATOM      4  N   UNL     1       1.536   2.549  17.985  0.00  0.00    +0.000 NA
ATOM      5  C   UNL     1       1.406   3.043  19.183  0.00  0.00    +0.000 A 
ATOM      6  N   UNL     1       0.448   2.671  20.044  0.00  0.00    +0.000 N 
ATOM      7  H   UNL     1      -0.138   1.907  19.717  0.00  0.00    +0.000 HD
ATOM      8  H   UNL     1       0.654   2.587  21.032  0.00  0.00    +0.000 HD
ENDROOT
BRANCH   2   9
ATOM      9  C   UNL     1       4.393   4.930  18.125  0.00  0.00    +0.000 A 
ATOM     10  C   UNL     1       4.340   5.992  17.207  0.00  0.00    +0.000 A 
ATOM     11  C   UNL     1       5.441   6.838  17.011  0.00  0.00    +0.000 A 
ATOM     12  C   UNL     1       6.613   6.634  17.731  0.00  0.00    +0.000 A 
ATOM     13 CL   UNL     1       7.966   7.668  17.502  0.00  0.00    +0.000 Cl
ATOM     14  C   UNL     1       6.691   5.599  18.643  0.00  0.00    +0.000 A 
ATOM     15  C   UNL     1       5.588   4.764  18.833  0.00  0.00    +0.000 A 
ENDBRANCH   2   9
BRANCH   1  16
ATOM     16  C   UNL     1       2.435   4.813  20.645  0.00  0.00    +0.000 C 
BRANCH  16  17
ATOM     17  C   UNL     1       1.509   6.041  20.629  0.00  0.00    +0.000 C 
BRANCH  17  18
ATOM     18  C   UNL     1       2.077   7.289  19.963  0.00  0.00    +0.000 C 
BRANCH  18  19
ATOM     19  C   UNL     1       1.373   8.570  20.362  0.00  0.00    +0.000 C 
BRANCH  19  20
ATOM     20  C   UNL     1       1.102   8.636  21.850  0.00  0.00    +0.000 C 
BRANCH  20  21
ATOM     21  C   UNL     1      -0.343   9.025  22.077  0.00  0.00    +0.000 C 
BRANCH  21  22
ATOM     22  C   UNL     1      -0.411  10.033  23.203  0.00  0.00    +0.000 C 
BRANCH  22  23
ATOM     23  C   UNL     1      -1.346  11.162  22.827  0.00  0.00    +0.000 C 
BRANCH  23  24
ATOM     24  C   UNL     1      -0.572  12.222  22.067  0.00  0.00    +0.000 C 
BRANCH  24  25
ATOM     25  C   UNL     1      -1.470  12.885  21.040  0.00  0.00    +0.000 C 
BRANCH  25  26
ATOM     26  C   UNL     1      -0.724  13.062  19.728  0.00  0.00    +0.000 C 
BRANCH  26  27
ATOM     27  C   UNL     1      -0.147  11.732  19.267  0.00  0.00    +0.000 C 
BRANCH  27  29
ATOM     28  C   UNL     1       1.677  13.359  18.722  0.00  0.00    +0.000 C 
ATOM     29  C   UNL     1       1.306  11.893  18.839  0.00  0.00    +0.000 C 
ENDBRANCH  27  29
ENDBRANCH  26  27
ENDBRANCH  25  26
ENDBRANCH  24  25
ENDBRANCH  23  24
ENDBRANCH  22  23
ENDBRANCH  21  22
ENDBRANCH  20  21
ENDBRANCH  19  20
ENDBRANCH  18  19
ENDBRANCH  17  18
ENDBRANCH  16  17
ENDBRANCH   1  16
TORSDOF 14
ENDMDL
MODEL 4
REMARK VINA RESULT:      -6.4      0.954      1.530
REMARK  Name = 
REMARK  15 active torsions:
REMARK  status: ('A' for Active; 'I' for Inactive)
REMARK    1  A    between atoms: C_1  and  C_2
REMARK    2  A    between atoms: C_2  and  C_3
REMARK    3  A    between atoms: C_3  and  C_4
REMARK    4  A    between atoms: C_4  and  C_5
REMARK    5  A    between atoms: C_5  and  C_6
REMARK    6  A    between atoms: C_6  and  C_7
REMARK    7  A    between atoms: C_7  and  C_8
REMARK    8  A    between atoms: C_8  and  C_9
REMARK    9  A    between atoms: C_9  and  C_10
REMARK   10  A    between atoms: C_10  and  C_11
REMARK   11  A    between atoms: C_11  and  C_12
REMARK   12  A    between atoms: C_12  and  C_13
REMARK   13  A    between atoms: C_13  and  C_14
REMARK   14  A    between atoms: C_14  and  N_15
REMARK   15  A    between atoms: C_16  and  C_17
REMARK                            x       y       z     vdW  Elec       q    Type
REMARK                         _______ _______ _______ _____ _____    ______ ____
ROOT
ATOM      1  N   UNL     1       6.478   4.815  16.502  0.00  0.00    +0.000 N 
ATOM      2  C   UNL     1       5.127   4.509  16.637  0.00  0.00    +0.000 A 
ATOM      3  C   UNL     1       4.690   4.481  15.318  0.00  0.00    +0.000 A 
ATOM      4  N   UNL     1       5.684   4.773  14.431  0.00  0.00    +0.000 NA
ATOM      5  C   UNL     1       6.739   5.003  15.159  0.00  0.00    +0.000 A 
ATOM      6  N   UNL     1       7.935   5.344  14.656  0.00  0.00    +0.000 N 
ATOM      7  H   UNL     1       7.942   5.486  13.648  0.00  0.00    +0.000 HD
ATOM      8  H   UNL     1       8.514   6.024  15.132  0.00  0.00    +0.000 HD
ENDROOT
BRANCH   2   9
ATOM      9  C   UNL     1       4.341   4.284  17.867  0.00  0.00    +0.000 A 
ATOM     10  C   UNL     1       4.216   2.978  18.369  0.00  0.00    +0.000 A 
ATOM     11  C   UNL     1       3.514   2.720  19.555  0.00  0.00    +0.000 A 
ATOM     12  C   UNL     1       2.927   3.765  20.258  0.00  0.00    +0.000 A 
ATOM     13 CL   UNL     1       2.068   3.461  21.715  0.00  0.00    +0.000 Cl
ATOM     14  C   UNL     1       3.036   5.060  19.788  0.00  0.00    +0.000 A 
ATOM     15  C   UNL     1       3.739   5.307  18.607  0.00  0.00    +0.000 A 
ENDBRANCH   2   9
BRANCH   1  16
ATOM     16  C   UNL     1       7.456   4.920  17.570  0.00  0.00    +0.000 C 
BRANCH  16  17
ATOM     17  C   UNL     1       7.479   6.305  18.237  0.00  0.00    +0.000 C 
BRANCH  17  18
ATOM     18  C   UNL     1       7.658   7.490  17.295  0.00  0.00    +0.000 C 
BRANCH  18  19
ATOM     19  C   UNL     1       7.510   8.838  17.972  0.00  0.00    +0.000 C 
BRANCH  19  20
ATOM     20  C   UNL     1       8.791   9.645  17.931  0.00  0.00    +0.000 C 
BRANCH  20  21
ATOM     21  C   UNL     1       9.189  10.019  19.342  0.00  0.00    +0.000 C 
BRANCH  21  22
ATOM     22  C   UNL     1      10.141  11.194  19.290  0.00  0.00    +0.000 C 
BRANCH  22  23
ATOM     23  C   UNL     1      10.071  11.853  17.929  0.00  0.00    +0.000 C 
BRANCH  23  24
ATOM     24  C   UNL     1      11.477  12.112  17.424  0.00  0.00    +0.000 C 
BRANCH  24  25
ATOM     25  C   UNL     1      11.513  13.399  16.623  0.00  0.00    +0.000 C 
BRANCH  25  26
ATOM     26  C   UNL     1      11.850  14.571  17.531  0.00  0.00    +0.000 C 
BRANCH  26  27
ATOM     27  C   UNL     1      10.711  15.580  17.534  0.00  0.00    +0.000 C 
BRANCH  27  29
ATOM     28  C   UNL     1      10.693  14.955  19.959  0.00  0.00    +0.000 C 
ATOM     29  C   UNL     1       9.855  15.425  18.785  0.00  0.00    +0.000 C 
ENDBRANCH  27  29
ENDBRANCH  26  27
ENDBRANCH  25  26
ENDBRANCH  24  25
ENDBRANCH  23  24
ENDBRANCH  22  23
ENDBRANCH  21  22
ENDBRANCH  20  21
ENDBRANCH  19  20
ENDBRANCH  18  19
ENDBRANCH  17  18
ENDBRANCH  16  17
ENDBRANCH   1  16
TORSDOF 14
ENDMDL
MODEL 5
REMARK VINA RESULT:      -6.4      2.599      4.477
REMARK  Name = 
REMARK  15 active torsions:
REMARK  status: ('A' for Active; 'I' for Inactive)
REMARK    1  A    between atoms: C_1  and  C_2
REMARK    2  A    between atoms: C_2  and  C_3
REMARK    3  A    between atoms: C_3  and  C_4
REMARK    4  A    between atoms: C_4  and  C_5
REMARK    5  A    between atoms: C_5  and  C_6
REMARK    6  A    between atoms: C_6  and  C_7
REMARK    7  A    between atoms: C_7  and  C_8
REMARK    8  A    between atoms: C_8  and  C_9
REMARK    9  A    between atoms: C_9  and  C_10
REMARK   10  A    between atoms: C_10  and  C_11
REMARK   11  A    between atoms: C_11  and  C_12
REMARK   12  A    between atoms: C_12  and  C_13
REMARK   13  A    between atoms: C_13  and  C_14
REMARK   14  A    between atoms: C_14  and  N_15
REMARK   15  A    between atoms: C_16  and  C_17
REMARK                            x       y       z     vdW  Elec       q    Type
REMARK                         _______ _______ _______ _____ _____    ______ ____
ROOT
ATOM      1  N   UNL     1       3.599   3.525  18.887  0.00  0.00    +0.000 N 
ATOM      2  C   UNL     1       2.423   4.205  19.192  0.00  0.00    +0.000 A 
ATOM      3  C   UNL     1       1.502   3.173  19.326  0.00  0.00    +0.000 A 
ATOM      4  N   UNL     1       2.055   1.946  19.095  0.00  0.00    +0.000 NA
ATOM      5  C   UNL     1       3.302   2.180  18.801  0.00  0.00    +0.000 A 
ATOM      6  N   UNL     1       4.188   1.222  18.491  0.00  0.00    +0.000 N 
ATOM      7  H   UNL     1       3.792   0.287  18.427  0.00  0.00    +0.000 HD
ATOM      8  H   UNL     1       4.882   1.383  17.771  0.00  0.00    +0.000 HD
ENDROOT
BRANCH   2   9
ATOM      9  C   UNL     1       2.195   5.658  19.327  0.00  0.00    +0.000 A 
ATOM     10  C   UNL     1       2.296   6.474  18.188  0.00  0.00    +0.000 A 
ATOM     11  C   UNL     1       2.049   7.852  18.258  0.00  0.00    +0.000 A 
ATOM     12  C   UNL     1       1.697   8.436  19.469  0.00  0.00    +0.000 A 
ATOM     13 CL   UNL     1       1.387  10.123  19.565  0.00  0.00    +0.000 Cl
ATOM     14  C   UNL     1       1.588   7.657  20.605  0.00  0.00    +0.000 A 
ATOM     15  C   UNL     1       1.833   6.284  20.524  0.00  0.00    +0.000 A 
ENDBRANCH   2   9
BRANCH   1  16
ATOM     16  C   UNL     1       4.914   4.109  18.692  0.00  0.00    +0.000 C 
BRANCH  16  17
ATOM     17  C   UNL     1       5.359   4.122  17.220  0.00  0.00    +0.000 C 
BRANCH  17  18
ATOM     18  C   UNL     1       4.904   5.326  16.403  0.00  0.00    +0.000 C 
BRANCH  18  19
ATOM     19  C   UNL     1       5.838   6.516  16.495  0.00  0.00    +0.000 C 
BRANCH  19  20
ATOM     20  C   UNL     1       7.240   6.115  16.903  0.00  0.00    +0.000 C 
BRANCH  20  21
ATOM     21  C   UNL     1       7.716   7.028  18.013  0.00  0.00    +0.000 C 
BRANCH  21  22
ATOM     22  C   UNL     1       7.291   8.447  17.699  0.00  0.00    +0.000 C 
BRANCH  22  23
ATOM     23  C   UNL     1       8.502   9.353  17.679  0.00  0.00    +0.000 C 
BRANCH  23  24
ATOM     24  C   UNL     1       8.912   9.675  19.103  0.00  0.00    +0.000 C 
BRANCH  24  25
ATOM     25  C   UNL     1       9.916  10.812  19.111  0.00  0.00    +0.000 C 
BRANCH  25  26
ATOM     26  C   UNL     1       9.573  11.822  18.029  0.00  0.00    +0.000 C 
BRANCH  26  27
ATOM     27  C   UNL     1      10.459  13.052  18.156  0.00  0.00    +0.000 C 
BRANCH  27  29
ATOM     28  C   UNL     1      11.550  14.520  19.867  0.00  0.00    +0.000 C 
ATOM     29  C   UNL     1      11.115  13.106  19.531  0.00  0.00    +0.000 C 
ENDBRANCH  27  29
ENDBRANCH  26  27
ENDBRANCH  25  26
ENDBRANCH  24  25
ENDBRANCH  23  24
ENDBRANCH  22  23
ENDBRANCH  21  22
ENDBRANCH  20  21
ENDBRANCH  19  20
ENDBRANCH  18  19
ENDBRANCH  17  18
ENDBRANCH  16  17
ENDBRANCH   1  16
TORSDOF 14
ENDMDL
MODEL 6
REMARK VINA RESULT:      -6.4      1.325      2.017
REMARK  Name = 
REMARK  15 active torsions:
REMARK  status: ('A' for Active; 'I' for Inactive)
REMARK    1  A    between atoms: C_1  and  C_2
REMARK    2  A    between atoms: C_2  and  C_3
REMARK    3  A    between atoms: C_3  and  C_4
REMARK    4  A    between atoms: C_4  and  C_5
REMARK    5  A    between atoms: C_5  and  C_6
REMARK    6  A    between atoms: C_6  and  C_7
REMARK    7  A    between atoms: C_7  and  C_8
REMARK    8  A    between atoms: C_8  and  C_9
REMARK    9  A    between atoms: C_9  and  C_10
REMARK   10  A    between atoms: C_10  and  C_11
REMARK   11  A    between atoms: C_11  and  C_12
REMARK   12  A    between atoms: C_12  and  C_13
REMARK   13  A    between atoms: C_13  and  C_14
REMARK   14  A    between atoms: C_14  and  N_15
REMARK   15  A    between atoms: C_16  and  C_17
REMARK                            x       y       z     vdW  Elec       q    Type
REMARK                         _______ _______ _______ _____ _____    ______ ____
ROOT
ATOM      1  N   UNL     1       6.206   4.849  16.485  0.00  0.00    +0.000 N 
ATOM      2  C   UNL     1       4.990   4.173  16.547  0.00  0.00    +0.000 A 
ATOM      3  C   UNL     1       4.818   3.739  15.238  0.00  0.00    +0.000 A 
ATOM      4  N   UNL     1       5.834   4.136  14.417  0.00  0.00    +0.000 NA
ATOM      5  C   UNL     1       6.637   4.828  15.174  0.00  0.00    +0.000 A 
ATOM      6  N   UNL     1       7.762   5.411  14.732  0.00  0.00    +0.000 N 
ATOM      7  H   UNL     1       7.907   5.337  13.728  0.00  0.00    +0.000 HD
ATOM      8  H   UNL     1       8.036   6.320  15.082  0.00  0.00    +0.000 HD
ENDROOT
BRANCH   2   9
ATOM      9  C   UNL     1       4.093   3.975  17.703  0.00  0.00    +0.000 A 
ATOM     10  C   UNL     1       2.825   4.581  17.695  0.00  0.00    +0.000 A 
ATOM     11  C   UNL     1       1.923   4.390  18.751  0.00  0.00    +0.000 A 
ATOM     12  C   UNL     1       2.274   3.588  19.831  0.00  0.00    +0.000 A 
ATOM     13 CL   UNL     1       1.174   3.343  21.128  0.00  0.00    +0.000 Cl
ATOM     14  C   UNL     1       3.513   2.978  19.863  0.00  0.00    +0.000 A 
ATOM     15  C   UNL     1       4.404   3.173  18.805  0.00  0.00    +0.000 A 
ENDBRANCH   2   9
BRANCH   1  16
ATOM     16  C   UNL     1       6.912   5.471  17.591  0.00  0.00    +0.000 C 
BRANCH  16  17
ATOM     17  C   UNL     1       6.774   7.002  17.614  0.00  0.00    +0.000 C 
BRANCH  17  18
ATOM     18  C   UNL     1       8.075   7.780  17.784  0.00  0.00    +0.000 C 
BRANCH  18  19
ATOM     19  C   UNL     1       7.885   9.282  17.853  0.00  0.00    +0.000 C 
BRANCH  19  20
ATOM     20  C   UNL     1       8.965   9.960  18.670  0.00  0.00    +0.000 C 
BRANCH  20  21
ATOM     21  C   UNL     1       9.186  11.359  18.137  0.00  0.00    +0.000 C 
BRANCH  21  22
ATOM     22  C   UNL     1      10.668  11.573  17.915  0.00  0.00    +0.000 C 
BRANCH  22  23
ATOM     23  C   UNL     1      11.118  12.831  18.626  0.00  0.00    +0.000 C 
BRANCH  23  24
ATOM     24  C   UNL     1      11.252  12.548  20.110  0.00  0.00    +0.000 C 
BRANCH  24  25
ATOM     25  C   UNL     1      10.148  13.252  20.876  0.00  0.00    +0.000 C 
BRANCH  25  26
ATOM     26  C   UNL     1       9.703  12.401  22.054  0.00  0.00    +0.000 C 
BRANCH  26  27
ATOM     27  C   UNL     1       8.207  12.136  21.977  0.00  0.00    +0.000 C 
BRANCH  27  29
ATOM     28  C   UNL     1       6.196  11.900  23.451  0.00  0.00    +0.000 C 
ATOM     29  C   UNL     1       7.681  11.620  23.311  0.00  0.00    +0.000 C 
ENDBRANCH  27  29
ENDBRANCH  26  27
ENDBRANCH  25  26
ENDBRANCH  24  25
ENDBRANCH  23  24
ENDBRANCH  22  23
ENDBRANCH  21  22
ENDBRANCH  20  21
ENDBRANCH  19  20
ENDBRANCH  18  19
ENDBRANCH  17  18
ENDBRANCH  16  17
ENDBRANCH   1  16
TORSDOF 14
ENDMDL
MODEL 7
REMARK VINA RESULT:      -6.3      5.543      8.430
REMARK  Name = 
REMARK  15 active torsions:
REMARK  status: ('A' for Active; 'I' for Inactive)
REMARK    1  A    between atoms: C_1  and  C_2
REMARK    2  A    between atoms: C_2  and  C_3
REMARK    3  A    between atoms: C_3  and  C_4
REMARK    4  A    between atoms: C_4  and  C_5
REMARK    5  A    between atoms: C_5  and  C_6
REMARK    6  A    between atoms: C_6  and  C_7
REMARK    7  A    between atoms: C_7  and  C_8
REMARK    8  A    between atoms: C_8  and  C_9
REMARK    9  A    between atoms: C_9  and  C_10
REMARK   10  A    between atoms: C_10  and  C_11
REMARK   11  A    between atoms: C_11  and  C_12
REMARK   12  A    between atoms: C_12  and  C_13
REMARK   13  A    between atoms: C_13  and  C_14
REMARK   14  A    between atoms: C_14  and  N_15
REMARK   15  A    between atoms: C_16  and  C_17
REMARK                            x       y       z     vdW  Elec       q    Type
REMARK                         _______ _______ _______ _____ _____    ______ ____
ROOT
ATOM      1  N   UNL     1       2.597   3.708  18.202  0.00  0.00    +0.000 N 
ATOM      2  C   UNL     1       3.956   3.595  17.920  0.00  0.00    +0.000 A 
ATOM      3  C   UNL     1       4.122   2.222  17.781  0.00  0.00    +0.000 A 
ATOM      4  N   UNL     1       2.964   1.531  17.985  0.00  0.00    +0.000 NA
ATOM      5  C   UNL     1       2.070   2.434  18.269  0.00  0.00    +0.000 A 
ATOM      6  N   UNL     1       0.789   2.154  18.555  0.00  0.00    +0.000 N 
ATOM      7  H   UNL     1       0.577   1.160  18.608  0.00  0.00    +0.000 HD
ATOM      8  H   UNL     1       0.299   2.678  19.269  0.00  0.00    +0.000 HD
ENDROOT
BRANCH   2   9
ATOM      9  C   UNL     1       4.977   4.656  17.810  0.00  0.00    +0.000 A 
ATOM     10  C   UNL     1       4.998   5.467  16.664  0.00  0.00    +0.000 A 
ATOM     11  C   UNL     1       5.922   6.514  16.532  0.00  0.00    +0.000 A 
ATOM     12  C   UNL     1       6.839   6.765  17.546  0.00  0.00    +0.000 A 
ATOM     13 CL   UNL     1       7.972   8.048  17.397  0.00  0.00    +0.000 Cl
ATOM     14  C   UNL     1       6.838   5.985  18.686  0.00  0.00    +0.000 A 
ATOM     15  C   UNL     1       5.912   4.946  18.809  0.00  0.00    +0.000 A 
ENDBRANCH   2   9
BRANCH   1  16
ATOM     16  C   UNL     1       1.849   4.938  18.390  0.00  0.00    +0.000 C 
BRANCH  16  17
ATOM     17  C   UNL     1       2.220   5.680  19.685  0.00  0.00    +0.000 C 
BRANCH  17  18
ATOM     18  C   UNL     1       2.562   7.157  19.526  0.00  0.00    +0.000 C 
BRANCH  18  19
ATOM     19  C   UNL     1       2.284   7.703  18.140  0.00  0.00    +0.000 C 
BRANCH  19  20
ATOM     20  C   UNL     1       2.046   9.199  18.150  0.00  0.00    +0.000 C 
BRANCH  20  21
ATOM     21  C   UNL     1       0.565   9.468  17.983  0.00  0.00    +0.000 C 
BRANCH  21  22
ATOM     22  C   UNL     1       0.107  10.397  19.087  0.00  0.00    +0.000 C 
BRANCH  22  23
ATOM     23  C   UNL     1       0.218   9.700  20.425  0.00  0.00    +0.000 C 
BRANCH  23  24
ATOM     24  C   UNL     1      -0.540  10.497  21.470  0.00  0.00    +0.000 C 
BRANCH  24  25
ATOM     25  C   UNL     1      -0.235  11.975  21.317  0.00  0.00    +0.000 C 
BRANCH  25  26
ATOM     26  C   UNL     1      -0.913  12.767  22.424  0.00  0.00    +0.000 C 
BRANCH  26  27
ATOM     27  C   UNL     1      -2.004  11.932  23.077  0.00  0.00    +0.000 C 
BRANCH  27  29
ATOM     28  C   UNL     1      -4.080  12.388  24.400  0.00  0.00    +0.000 C 
ATOM     29  C   UNL     1      -3.317  12.702  23.127  0.00  0.00    +0.000 C 
ENDBRANCH  27  29
ENDBRANCH  26  27
ENDBRANCH  25  26
ENDBRANCH  24  25
ENDBRANCH  23  24
ENDBRANCH  22  23
ENDBRANCH  21  22
ENDBRANCH  20  21
ENDBRANCH  19  20
ENDBRANCH  18  19
ENDBRANCH  17  18
ENDBRANCH  16  17
ENDBRANCH   1  16
TORSDOF 14
ENDMDL
MODEL 8
REMARK VINA RESULT:      -6.2      1.202      1.970
REMARK  Name = 
REMARK  15 active torsions:
REMARK  status: ('A' for Active; 'I' for Inactive)
REMARK    1  A    between atoms: C_1  and  C_2
REMARK    2  A    between atoms: C_2  and  C_3
REMARK    3  A    between atoms: C_3  and  C_4
REMARK    4  A    between atoms: C_4  and  C_5
REMARK    5  A    between atoms: C_5  and  C_6
REMARK    6  A    between atoms: C_6  and  C_7
REMARK    7  A    between atoms: C_7  and  C_8
REMARK    8  A    between atoms: C_8  and  C_9
REMARK    9  A    between atoms: C_9  and  C_10
REMARK   10  A    between atoms: C_10  and  C_11
REMARK   11  A    between atoms: C_11  and  C_12
REMARK   12  A    between atoms: C_12  and  C_13
REMARK   13  A    between atoms: C_13  and  C_14
REMARK   14  A    between atoms: C_14  and  N_15
REMARK   15  A    between atoms: C_16  and  C_17
REMARK                            x       y       z     vdW  Elec       q    Type
REMARK                         _______ _______ _______ _____ _____    ______ ____
ROOT
ATOM      1  N   UNL     1       6.449   5.147  16.104  0.00  0.00    +0.000 N 
ATOM      2  C   UNL     1       5.179   4.582  16.183  0.00  0.00    +0.000 A 
ATOM      3  C   UNL     1       4.973   4.120  14.888  0.00  0.00    +0.000 A 
ATOM      4  N   UNL     1       6.022   4.398  14.060  0.00  0.00    +0.000 NA
ATOM      5  C   UNL     1       6.881   5.043  14.797  0.00  0.00    +0.000 A 
ATOM      6  N   UNL     1       8.053   5.510  14.342  0.00  0.00    +0.000 N 
ATOM      7  H   UNL     1       8.195   5.389  13.342  0.00  0.00    +0.000 HD
ATOM      8  H   UNL     1       8.405   6.403  14.663  0.00  0.00    +0.000 HD
ENDROOT
BRANCH   2   9
ATOM      9  C   UNL     1       4.265   4.503  17.339  0.00  0.00    +0.000 A 
ATOM     10  C   UNL     1       4.336   5.491  18.335  0.00  0.00    +0.000 A 
ATOM     11  C   UNL     1       3.462   5.481  19.432  0.00  0.00    +0.000 A 
ATOM     12  C   UNL     1       2.503   4.482  19.549  0.00  0.00    +0.000 A 
ATOM     13 CL   UNL     1       1.424   4.463  20.886  0.00  0.00    +0.000 Cl
ATOM     14  C   UNL     1       2.409   3.499  18.582  0.00  0.00    +0.000 A 
ATOM     15  C   UNL     1       3.282   3.519  17.493  0.00  0.00    +0.000 A 
ENDBRANCH   2   9
BRANCH   1  16
ATOM     16  C   UNL     1       7.204   5.742  17.193  0.00  0.00    +0.000 C 
BRANCH  16  17
ATOM     17  C   UNL     1       7.230   7.278  17.144  0.00  0.00    +0.000 C 
BRANCH  17  18
ATOM     18  C   UNL     1       8.098   7.959  18.197  0.00  0.00    +0.000 C 
BRANCH  18  19
ATOM     19  C   UNL     1       8.187   9.463  18.037  0.00  0.00    +0.000 C 
BRANCH  19  20
ATOM     20  C   UNL     1       9.238  10.074  18.940  0.00  0.00    +0.000 C 
BRANCH  20  21
ATOM     21  C   UNL     1       9.985  11.148  18.178  0.00  0.00    +0.000 C 
BRANCH  21  22
ATOM     22  C   UNL     1      11.265  11.476  18.917  0.00  0.00    +0.000 C 
BRANCH  22  23
ATOM     23  C   UNL     1      10.946  11.906  20.332  0.00  0.00    +0.000 C 
BRANCH  23  24
ATOM     24  C   UNL     1      10.911  13.420  20.400  0.00  0.00    +0.000 C 
BRANCH  24  25
ATOM     25  C   UNL     1       9.510  13.894  20.735  0.00  0.00    +0.000 C 
BRANCH  25  26
ATOM     26  C   UNL     1       9.399  14.192  22.221  0.00  0.00    +0.000 C 
BRANCH  26  27
ATOM     27  C   UNL     1       8.034  13.771  22.743  0.00  0.00    +0.000 C 
BRANCH  27  29
ATOM     28  C   UNL     1       8.056  11.635  24.051  0.00  0.00    +0.000 C 
ATOM     29  C   UNL     1       7.875  12.257  22.679  0.00  0.00    +0.000 C 
ENDBRANCH  27  29
ENDBRANCH  26  27
ENDBRANCH  25  26
ENDBRANCH  24  25
ENDBRANCH  23  24
ENDBRANCH  22  23
ENDBRANCH  21  22
ENDBRANCH  20  21
ENDBRANCH  19  20
ENDBRANCH  18  19
ENDBRANCH  17  18
ENDBRANCH  16  17
ENDBRANCH   1  16
TORSDOF 14
ENDMDL
MODEL 9
REMARK VINA RESULT:      -6.2      3.121      4.281
REMARK  Name = 
REMARK  15 active torsions:
REMARK  status: ('A' for Active; 'I' for Inactive)
REMARK    1  A    between atoms: C_1  and  C_2
REMARK    2  A    between atoms: C_2  and  C_3
REMARK    3  A    between atoms: C_3  and  C_4
REMARK    4  A    between atoms: C_4  and  C_5
REMARK    5  A    between atoms: C_5  and  C_6
REMARK    6  A    between atoms: C_6  and  C_7
REMARK    7  A    between atoms: C_7  and  C_8
REMARK    8  A    between atoms: C_8  and  C_9
REMARK    9  A    between atoms: C_9  and  C_10
REMARK   10  A    between atoms: C_10  and  C_11
REMARK   11  A    between atoms: C_11  and  C_12
REMARK   12  A    between atoms: C_12  and  C_13
REMARK   13  A    between atoms: C_13  and  C_14
REMARK   14  A    between atoms: C_14  and  N_15
REMARK   15  A    between atoms: C_16  and  C_17
REMARK                            x       y       z     vdW  Elec       q    Type
REMARK                         _______ _______ _______ _____ _____    ______ ____
ROOT
ATOM      1  N   UNL     1       4.075   4.193  19.533  0.00  0.00    +0.000 N 
ATOM      2  C   UNL     1       2.807   4.761  19.442  0.00  0.00    +0.000 A 
ATOM      3  C   UNL     1       1.975   3.648  19.459  0.00  0.00    +0.000 A 
ATOM      4  N   UNL     1       2.670   2.476  19.529  0.00  0.00    +0.000 NA
ATOM      5  C   UNL     1       3.926   2.820  19.538  0.00  0.00    +0.000 A 
ATOM      6  N   UNL     1       4.941   1.944  19.585  0.00  0.00    +0.000 N 
ATOM      7  H   UNL     1       4.657   0.969  19.536  0.00  0.00    +0.000 HD
ATOM      8  H   UNL     1       5.786   2.114  19.053  0.00  0.00    +0.000 HD
ENDROOT
BRANCH   2   9
ATOM      9  C   UNL     1       2.429   6.185  19.336  0.00  0.00    +0.000 A 
ATOM     10  C   UNL     1       2.529   6.827  18.090  0.00  0.00    +0.000 A 
ATOM     11  C   UNL     1       2.145   8.166  17.931  0.00  0.00    +0.000 A 
ATOM     12  C   UNL     1       1.654   8.883  19.016  0.00  0.00    +0.000 A 
ATOM     13 CL   UNL     1       1.175  10.523  18.830  0.00  0.00    +0.000 Cl
ATOM     14  C   UNL     1       1.542   8.276  20.252  0.00  0.00    +0.000 A 
ATOM     15  C   UNL     1       1.926   6.941  20.399  0.00  0.00    +0.000 A 
ENDBRANCH   2   9
BRANCH   1  16
ATOM     16  C   UNL     1       5.340   4.901  19.613  0.00  0.00    +0.000 C 
BRANCH  16  17
ATOM     17  C   UNL     1       5.892   5.313  18.238  0.00  0.00    +0.000 C 
BRANCH  17  18
ATOM     18  C   UNL     1       7.344   5.777  18.221  0.00  0.00    +0.000 C 
BRANCH  18  19
ATOM     19  C   UNL     1       7.582   7.009  17.370  0.00  0.00    +0.000 C 
BRANCH  19  20
ATOM     20  C   UNL     1       8.207   8.140  18.161  0.00  0.00    +0.000 C 
BRANCH  20  21
ATOM     21  C   UNL     1       7.809   9.461  17.538  0.00  0.00    +0.000 C 
BRANCH  21  22
ATOM     22  C   UNL     1       8.591  10.573  18.201  0.00  0.00    +0.000 C 
BRANCH  22  23
ATOM     23  C   UNL     1       9.528   9.994  19.239  0.00  0.00    +0.000 C 
BRANCH  23  24
ATOM     24  C   UNL     1       9.361  10.751  20.543  0.00  0.00    +0.000 C 
BRANCH  24  25
ATOM     25  C   UNL     1       9.376  12.245  20.283  0.00  0.00    +0.000 C 
BRANCH  25  26
ATOM     26  C   UNL     1       9.821  12.990  21.531  0.00  0.00    +0.000 C 
BRANCH  26  27
ATOM     27  C   UNL     1       8.619  13.582  22.249  0.00  0.00    +0.000 C 
BRANCH  27  29
ATOM     28  C   UNL     1       7.649  11.705  23.594  0.00  0.00    +0.000 C 
ATOM     29  C   UNL     1       8.470  12.980  23.641  0.00  0.00    +0.000 C 
ENDBRANCH  27  29
ENDBRANCH  26  27
ENDBRANCH  25  26
ENDBRANCH  24  25
ENDBRANCH  23  24
ENDBRANCH  22  23
ENDBRANCH  21  22
ENDBRANCH  20  21
ENDBRANCH  19  20
ENDBRANCH  18  19
ENDBRANCH  17  18
ENDBRANCH  16  17
ENDBRANCH   1  16
TORSDOF 14
ENDMDL
