MODEL 1
REMARK VINA RESULT:      -7.8      0.000      0.000
REMARK  Name = 
REMARK  4 active torsions:
REMARK  status: ('A' for Active; 'I' for Inactive)
REMARK    1  A    between atoms: C_2  and  C_18
REMARK    2  A    between atoms: C_7  and  S_8
REMARK    3  A    between atoms: S_8  and  C_9
REMARK    4  A    between atoms: C_9  and  C_10
REMARK                            x       y       z     vdW  Elec       q    Type
REMARK                         _______ _______ _______ _____ _____    ______ ____
ROOT
ATOM      1  O   UNL     1       7.633   9.543  17.556  0.00  0.00    +0.000 OA
ATOM      2  C   UNL     1       8.467   9.278  18.413  0.00  0.00    +0.000 C 
ATOM      3  N   UNL     1       8.698   8.043  18.981  0.00  0.00    +0.000 N 
ATOM      4  C   UNL     1       8.038   6.886  18.622  0.00  0.00    +0.000 A 
ATOM      5  N   UNL     1       8.014   5.792  19.354  0.00  0.00    +0.000 NA
ATOM      6  N   UNL     1       7.231   4.796  18.779  0.00  0.00    +0.000 NA
ATOM      7  C   UNL     1       6.758   5.162  17.607  0.00  0.00    +0.000 A 
ATOM      8  S   UNL     1       7.233   6.729  17.122  0.00  0.00    +0.000 S 
ATOM      9  H   UNL     1       9.287   7.993  19.804  0.00  0.00    +0.000 HD
ENDROOT
BRANCH   2  10
ATOM     10  C   UNL     1       9.295  10.401  18.938  0.00  0.00    +0.000 A 
ATOM     11  C   UNL     1      10.013  11.179  18.034  0.00  0.00    +0.000 A 
ATOM     12  N   UNL     1      10.835  12.184  18.428  0.00  0.00    +0.000 NA
ATOM     13  C   UNL     1      10.916  12.370  19.762  0.00  0.00    +0.000 A 
ATOM     14  C   UNL     1      10.189  11.601  20.665  0.00  0.00    +0.000 A 
ATOM     15  N   UNL     1       9.350  10.603  20.284  0.00  0.00    +0.000 NA
ENDBRANCH   2  10
BRANCH   7  16
ATOM     16  S   UNL     1       5.762   4.143  16.595  0.00  0.00    +0.000 S 
BRANCH  16  17
ATOM     17  C   UNL     1       4.126   4.890  16.836  0.00  0.00    +0.000 C 
BRANCH  17  18
ATOM     18  C   UNL     1       3.440   4.313  18.056  0.00  0.00    +0.000 A 
ATOM     19  C   UNL     1       3.077   5.147  19.127  0.00  0.00    +0.000 A 
ATOM     20  C   UNL     1       2.477   4.616  20.272  0.00  0.00    +0.000 A 
ATOM     21  C   UNL     1       2.238   3.247  20.357  0.00  0.00    +0.000 A 
ATOM     22 CL   UNL     1       1.509   2.592  21.773  0.00  0.00    +0.000 Cl
ATOM     23  C   UNL     1       2.590   2.404  19.306  0.00  0.00    +0.000 A 
ATOM     24  C   UNL     1       3.191   2.935  18.160  0.00  0.00    +0.000 A 
ENDBRANCH  17  18
ENDBRANCH  16  17
ENDBRANCH   7  16
TORSDOF 4
ENDMDL
MODEL 2
REMARK VINA RESULT:      -7.8      0.734      1.371
REMARK  Name = 
REMARK  4 active torsions:
REMARK  status: ('A' for Active; 'I' for Inactive)
REMARK    1  A    between atoms: C_2  and  C_18
REMARK    2  A    between atoms: C_7  and  S_8
REMARK    3  A    between atoms: S_8  and  C_9
REMARK    4  A    between atoms: C_9  and  C_10
REMARK                            x       y       z     vdW  Elec       q    Type
REMARK                         _______ _______ _______ _____ _____    ______ ____
ROOT
ATOM      1  O   UNL     1       7.460   9.368  17.441  0.00  0.00    +0.000 OA
ATOM      2  C   UNL     1       8.326   9.144  18.278  0.00  0.00    +0.000 C 
ATOM      3  N   UNL     1       8.606   7.928  18.866  0.00  0.00    +0.000 N 
ATOM      4  C   UNL     1       7.965   6.747  18.553  0.00  0.00    +0.000 A 
ATOM      5  N   UNL     1       7.992   5.670  19.309  0.00  0.00    +0.000 NA
ATOM      6  N   UNL     1       7.218   4.641  18.780  0.00  0.00    +0.000 NA
ATOM      7  C   UNL     1       6.701   4.968  17.615  0.00  0.00    +0.000 A 
ATOM      8  S   UNL     1       7.121   6.535  17.082  0.00  0.00    +0.000 S 
ATOM      9  H   UNL     1       9.220   7.912  19.672  0.00  0.00    +0.000 HD
ENDROOT
BRANCH   2  10
ATOM     10  C   UNL     1       9.139  10.299  18.753  0.00  0.00    +0.000 A 
ATOM     11  C   UNL     1       9.427  10.397  20.111  0.00  0.00    +0.000 A 
ATOM     12  N   UNL     1      10.112  11.443  20.638  0.00  0.00    +0.000 NA
ATOM     13  C   UNL     1      10.486  12.389  19.752  0.00  0.00    +0.000 A 
ATOM     14  C   UNL     1      10.209  12.285  18.393  0.00  0.00    +0.000 A 
ATOM     15  N   UNL     1       9.540  11.236  17.849  0.00  0.00    +0.000 NA
ENDBRANCH   2  10
BRANCH   7  16
ATOM     16  S   UNL     1       5.703   3.902  16.657  0.00  0.00    +0.000 S 
BRANCH  16  17
ATOM     17  C   UNL     1       4.070   4.670  16.850  0.00  0.00    +0.000 C 
BRANCH  17  18
ATOM     18  C   UNL     1       3.385   4.178  18.107  0.00  0.00    +0.000 A 
ATOM     19  C   UNL     1       3.901   3.078  18.813  0.00  0.00    +0.000 A 
ATOM     20  C   UNL     1       3.253   2.596  19.954  0.00  0.00    +0.000 A 
ATOM     21  C   UNL     1       2.082   3.207  20.395  0.00  0.00    +0.000 A 
ATOM     22 CL   UNL     1       1.277   2.604  21.792  0.00  0.00    +0.000 Cl
ATOM     23  C   UNL     1       1.555   4.298  19.709  0.00  0.00    +0.000 A 
ATOM     24  C   UNL     1       2.203   4.781  18.567  0.00  0.00    +0.000 A 
ENDBRANCH  17  18
ENDBRANCH  16  17
ENDBRANCH   7  16
TORSDOF 4
ENDMDL
MODEL 3
REMARK VINA RESULT:      -7.3      5.399      7.359
REMARK  Name = 
REMARK  4 active torsions:
REMARK  status: ('A' for Active; 'I' for Inactive)
REMARK    1  A    between atoms: C_2  and  C_18
REMARK    2  A    between atoms: C_7  and  S_8
REMARK    3  A    between atoms: S_8  and  C_9
REMARK    4  A    between atoms: C_9  and  C_10
REMARK                            x       y       z     vdW  Elec       q    Type
REMARK                         _______ _______ _______ _____ _____    ______ ____
ROOT
ATOM      1  O   UNL     1       2.271   8.087  19.615  0.00  0.00    +0.000 OA
ATOM      2  C   UNL     1       1.510   7.842  20.543  0.00  0.00    +0.000 C 
ATOM      3  N   UNL     1       1.209   6.597  21.054  0.00  0.00    +0.000 N 
ATOM      4  C   UNL     1       1.773   5.418  20.612  0.00  0.00    +0.000 A 
ATOM      5  N   UNL     1       1.275   4.224  20.857  0.00  0.00    +0.000 NA
ATOM      6  N   UNL     1       2.015   3.215  20.247  0.00  0.00    +0.000 NA
ATOM      7  C   UNL     1       3.075   3.691  19.630  0.00  0.00    +0.000 A 
ATOM      8  S   UNL     1       3.249   5.386  19.751  0.00  0.00    +0.000 S 
ATOM      9  H   UNL     1       0.430   6.515  21.697  0.00  0.00    +0.000 HD
ENDROOT
BRANCH   2  10
ATOM     10  C   UNL     1       0.795   8.992  21.167  0.00  0.00    +0.000 A 
ATOM     11  C   UNL     1       0.847   9.137  22.550  0.00  0.00    +0.000 A 
ATOM     12  N   UNL     1       0.180  10.120  23.206  0.00  0.00    +0.000 NA
ATOM     13  C   UNL     1      -0.547  10.942  22.422  0.00  0.00    +0.000 A 
ATOM     14  C   UNL     1      -0.589  10.805  21.039  0.00  0.00    +0.000 A 
ATOM     15  N   UNL     1       0.086   9.836  20.368  0.00  0.00    +0.000 NA
ENDBRANCH   2  10
BRANCH   7  16
ATOM     16  S   UNL     1       4.240   2.700  18.787  0.00  0.00    +0.000 S 
BRANCH  16  17
ATOM     17  C   UNL     1       4.344   3.550  17.188  0.00  0.00    +0.000 C 
BRANCH  17  18
ATOM     18  C   UNL     1       5.288   4.730  17.261  0.00  0.00    +0.000 A 
ATOM     19  C   UNL     1       6.486   4.637  17.989  0.00  0.00    +0.000 A 
ATOM     20  C   UNL     1       7.346   5.734  18.090  0.00  0.00    +0.000 A 
ATOM     21  C   UNL     1       7.012   6.935  17.468  0.00  0.00    +0.000 A 
ATOM     22 CL   UNL     1       8.066   8.290  17.605  0.00  0.00    +0.000 Cl
ATOM     23  C   UNL     1       5.830   7.047  16.742  0.00  0.00    +0.000 A 
ATOM     24  C   UNL     1       4.970   5.949  16.640  0.00  0.00    +0.000 A 
ENDBRANCH  17  18
ENDBRANCH  16  17
ENDBRANCH   7  16
TORSDOF 4
ENDMDL
MODEL 4
REMARK VINA RESULT:      -7.2      1.308      1.683
REMARK  Name = 
REMARK  4 active torsions:
REMARK  status: ('A' for Active; 'I' for Inactive)
REMARK    1  A    between atoms: C_2  and  C_18
REMARK    2  A    between atoms: C_7  and  S_8
REMARK    3  A    between atoms: S_8  and  C_9
REMARK    4  A    between atoms: C_9  and  C_10
REMARK                            x       y       z     vdW  Elec       q    Type
REMARK                         _______ _______ _______ _____ _____    ______ ____
ROOT
ATOM      1  O   UNL     1       7.647   9.476  17.591  0.00  0.00    +0.000 OA
ATOM      2  C   UNL     1       8.489   9.244  18.450  0.00  0.00    +0.000 C 
ATOM      3  N   UNL     1       8.739   8.028  19.050  0.00  0.00    +0.000 N 
ATOM      4  C   UNL     1       8.092   6.853  18.726  0.00  0.00    +0.000 A 
ATOM      5  N   UNL     1       8.087   5.779  19.487  0.00  0.00    +0.000 NA
ATOM      6  N   UNL     1       7.313   4.757  18.942  0.00  0.00    +0.000 NA
ATOM      7  C   UNL     1       6.830   5.086  17.763  0.00  0.00    +0.000 A 
ATOM      8  S   UNL     1       7.282   6.645  17.234  0.00  0.00    +0.000 S 
ATOM      9  H   UNL     1       9.333   8.008  19.871  0.00  0.00    +0.000 HD
ENDROOT
BRANCH   2  10
ATOM     10  C   UNL     1       9.304  10.392  18.941  0.00  0.00    +0.000 A 
ATOM     11  C   UNL     1       9.993  11.166  18.012  0.00  0.00    +0.000 A 
ATOM     12  N   UNL     1      10.802  12.192  18.373  0.00  0.00    +0.000 NA
ATOM     13  C   UNL     1      10.901  12.404  19.702  0.00  0.00    +0.000 A 
ATOM     14  C   UNL     1      10.204  11.639  20.631  0.00  0.00    +0.000 A 
ATOM     15  N   UNL     1       9.377  10.619  20.282  0.00  0.00    +0.000 NA
ENDBRANCH   2  10
BRANCH   7  16
ATOM     16  S   UNL     1       5.843   4.028  16.784  0.00  0.00    +0.000 S 
BRANCH  16  17
ATOM     17  C   UNL     1       4.536   5.161  16.238  0.00  0.00    +0.000 C 
BRANCH  17  18
ATOM     18  C   UNL     1       3.722   5.658  17.414  0.00  0.00    +0.000 A 
ATOM     19  C   UNL     1       3.459   7.029  17.567  0.00  0.00    +0.000 A 
ATOM     20  C   UNL     1       2.739   7.499  18.669  0.00  0.00    +0.000 A 
ATOM     21  C   UNL     1       2.279   6.601  19.629  0.00  0.00    +0.000 A 
ATOM     22 CL   UNL     1       1.403   7.181  20.992  0.00  0.00    +0.000 Cl
ATOM     23  C   UNL     1       2.529   5.238  19.495  0.00  0.00    +0.000 A 
ATOM     24  C   UNL     1       3.249   4.767  18.392  0.00  0.00    +0.000 A 
ENDBRANCH  17  18
ENDBRANCH  16  17
ENDBRANCH   7  16
TORSDOF 4
ENDMDL
MODEL 5
REMARK VINA RESULT:      -7.2      5.390      7.329
REMARK  Name = 
REMARK  4 active torsions:
REMARK  status: ('A' for Active; 'I' for Inactive)
REMARK    1  A    between atoms: C_2  and  C_18
REMARK    2  A    between atoms: C_7  and  S_8
REMARK    3  A    between atoms: S_8  and  C_9
REMARK    4  A    between atoms: C_9  and  C_10
REMARK                            x       y       z     vdW  Elec       q    Type
REMARK                         _______ _______ _______ _____ _____    ______ ____
ROOT
ATOM      1  O   UNL     1       2.249   8.057  19.567  0.00  0.00    +0.000 OA
ATOM      2  C   UNL     1       1.515   7.824  20.520  0.00  0.00    +0.000 C 
ATOM      3  N   UNL     1       1.239   6.587  21.062  0.00  0.00    +0.000 N 
ATOM      4  C   UNL     1       1.801   5.404  20.628  0.00  0.00    +0.000 A 
ATOM      5  N   UNL     1       1.320   4.211  20.909  0.00  0.00    +0.000 NA
ATOM      6  N   UNL     1       2.052   3.196  20.299  0.00  0.00    +0.000 NA
ATOM      7  C   UNL     1       3.091   3.669  19.644  0.00  0.00    +0.000 A 
ATOM      8  S   UNL     1       3.253   5.367  19.727  0.00  0.00    +0.000 S 
ATOM      9  H   UNL     1       0.478   6.511  21.728  0.00  0.00    +0.000 HD
ENDROOT
BRANCH   2  10
ATOM     10  C   UNL     1       0.807   8.980  21.141  0.00  0.00    +0.000 A 
ATOM     11  C   UNL     1       0.848   9.120  22.525  0.00  0.00    +0.000 A 
ATOM     12  N   UNL     1       0.186  10.108  23.178  0.00  0.00    +0.000 NA
ATOM     13  C   UNL     1      -0.524  10.942  22.390  0.00  0.00    +0.000 A 
ATOM     14  C   UNL     1      -0.555  10.809  21.005  0.00  0.00    +0.000 A 
ATOM     15  N   UNL     1       0.116   9.835  20.337  0.00  0.00    +0.000 NA
ENDBRANCH   2  10
BRANCH   7  16
ATOM     16  S   UNL     1       4.241   2.671  18.789  0.00  0.00    +0.000 S 
BRANCH  16  17
ATOM     17  C   UNL     1       4.376   3.553  17.209  0.00  0.00    +0.000 C 
BRANCH  17  18
ATOM     18  C   UNL     1       5.299   4.747  17.332  0.00  0.00    +0.000 A 
ATOM     19  C   UNL     1       4.976   5.960  16.701  0.00  0.00    +0.000 A 
ATOM     20  C   UNL     1       5.841   7.056  16.780  0.00  0.00    +0.000 A 
ATOM     21  C   UNL     1       7.036   6.945  17.486  0.00  0.00    +0.000 A 
ATOM     22 CL   UNL     1       8.106   8.292  17.572  0.00  0.00    +0.000 Cl
ATOM     23  C   UNL     1       7.372   5.752  18.118  0.00  0.00    +0.000 A 
ATOM     24  C   UNL     1       6.508   4.655  18.040  0.00  0.00    +0.000 A 
ENDBRANCH  17  18
ENDBRANCH  16  17
ENDBRANCH   7  16
TORSDOF 4
ENDMDL
MODEL 6
REMARK VINA RESULT:      -7.0      5.505      7.552
REMARK  Name = 
REMARK  4 active torsions:
REMARK  status: ('A' for Active; 'I' for Inactive)
REMARK    1  A    between atoms: C_2  and  C_18
REMARK    2  A    between atoms: C_7  and  S_8
REMARK    3  A    between atoms: S_8  and  C_9
REMARK    4  A    between atoms: C_9  and  C_10
REMARK                            x       y       z     vdW  Elec       q    Type
REMARK                         _______ _______ _______ _____ _____    ______ ____
ROOT
ATOM      1  O   UNL     1       1.180   9.110  19.087  0.00  0.00    +0.000 OA
ATOM      2  C   UNL     1       1.090   8.827  20.275  0.00  0.00    +0.000 C 
ATOM      3  N   UNL     1       1.469   7.642  20.870  0.00  0.00    +0.000 N 
ATOM      4  C   UNL     1       2.064   6.592  20.202  0.00  0.00    +0.000 A 
ATOM      5  N   UNL     1       2.136   5.364  20.671  0.00  0.00    +0.000 NA
ATOM      6  N   UNL     1       2.741   4.495  19.769  0.00  0.00    +0.000 NA
ATOM      7  C   UNL     1       3.159   5.123  18.690  0.00  0.00    +0.000 A 
ATOM      8  S   UNL     1       2.854   6.803  18.700  0.00  0.00    +0.000 S 
ATOM      9  H   UNL     1       1.175   7.466  21.824  0.00  0.00    +0.000 HD
ENDROOT
BRANCH   2  10
ATOM     10  C   UNL     1       0.470   9.839  21.178  0.00  0.00    +0.000 A 
ATOM     11  C   UNL     1       0.189   9.477  22.492  0.00  0.00    +0.000 A 
ATOM     12  N   UNL     1      -0.425  10.314  23.364  0.00  0.00    +0.000 NA
ATOM     13  C   UNL     1      -0.754  11.523  22.864  0.00  0.00    +0.000 A 
ATOM     14  C   UNL     1      -0.463  11.890  21.555  0.00  0.00    +0.000 A 
ATOM     15  N   UNL     1       0.166  11.068  20.676  0.00  0.00    +0.000 NA
ENDBRANCH   2  10
BRANCH   7  16
ATOM     16  S   UNL     1       3.991   4.343  17.367  0.00  0.00    +0.000 S 
BRANCH  16  17
ATOM     17  C   UNL     1       5.658   4.147  18.058  0.00  0.00    +0.000 C 
BRANCH  17  18
ATOM     18  C   UNL     1       6.403   5.464  18.057  0.00  0.00    +0.000 A 
ATOM     19  C   UNL     1       6.050   6.480  17.153  0.00  0.00    +0.000 A 
ATOM     20  C   UNL     1       6.757   7.685  17.123  0.00  0.00    +0.000 A 
ATOM     21  C   UNL     1       7.826   7.882  17.993  0.00  0.00    +0.000 A 
ATOM     22 CL   UNL     1       8.705   9.362  17.946  0.00  0.00    +0.000 Cl
ATOM     23  C   UNL     1       8.191   6.888  18.897  0.00  0.00    +0.000 A 
ATOM     24  C   UNL     1       7.484   5.682  18.928  0.00  0.00    +0.000 A 
ENDBRANCH  17  18
ENDBRANCH  16  17
ENDBRANCH   7  16
TORSDOF 4
ENDMDL
MODEL 7
REMARK VINA RESULT:      -7.0      7.222      9.538
REMARK  Name = 
REMARK  4 active torsions:
REMARK  status: ('A' for Active; 'I' for Inactive)
REMARK    1  A    between atoms: C_2  and  C_18
REMARK    2  A    between atoms: C_7  and  S_8
REMARK    3  A    between atoms: S_8  and  C_9
REMARK    4  A    between atoms: C_9  and  C_10
REMARK                            x       y       z     vdW  Elec       q    Type
REMARK                         _______ _______ _______ _____ _____    ______ ____
ROOT
ATOM      1  O   UNL     1       2.564   7.346  18.782  0.00  0.00    +0.000 OA
ATOM      2  C   UNL     1       2.366   6.718  19.815  0.00  0.00    +0.000 C 
ATOM      3  N   UNL     1       1.797   7.202  20.974  0.00  0.00    +0.000 N 
ATOM      4  C   UNL     1       1.312   8.484  21.127  0.00  0.00    +0.000 A 
ATOM      5  N   UNL     1       1.068   9.047  22.291  0.00  0.00    +0.000 NA
ATOM      6  N   UNL     1       0.636  10.363  22.155  0.00  0.00    +0.000 NA
ATOM      7  C   UNL     1       0.510  10.707  20.891  0.00  0.00    +0.000 A 
ATOM      8  S   UNL     1       0.897   9.462  19.788  0.00  0.00    +0.000 S 
ATOM      9  H   UNL     1       1.856   6.635  21.813  0.00  0.00    +0.000 HD
ENDROOT
BRANCH   2  10
ATOM     10  C   UNL     1       2.820   5.299  19.855  0.00  0.00    +0.000 A 
ATOM     11  C   UNL     1       2.285   4.456  20.824  0.00  0.00    +0.000 A 
ATOM     12  N   UNL     1       2.681   3.167  20.970  0.00  0.00    +0.000 NA
ATOM     13  C   UNL     1       3.641   2.761  20.112  0.00  0.00    +0.000 A 
ATOM     14  C   UNL     1       4.167   3.599  19.135  0.00  0.00    +0.000 A 
ATOM     15  N   UNL     1       3.767   4.887  18.967  0.00  0.00    +0.000 NA
ENDBRANCH   2  10
BRANCH   7  16
ATOM     16  S   UNL     1      -0.042  12.276  20.357  0.00  0.00    +0.000 S 
BRANCH  16  17
ATOM     17  C   UNL     1      -0.510  11.927  18.639  0.00  0.00    +0.000 C 
BRANCH  17  18
ATOM     18  C   UNL     1      -2.005  11.724  18.514  0.00  0.00    +0.000 A 
ATOM     19  C   UNL     1      -2.536  11.014  17.425  0.00  0.00    +0.000 A 
ATOM     20  C   UNL     1      -3.918  10.854  17.284  0.00  0.00    +0.000 A 
ATOM     21  C   UNL     1      -4.778  11.407  18.229  0.00  0.00    +0.000 A 
ATOM     22 CL   UNL     1      -6.480  11.220  18.048  0.00  0.00    +0.000 Cl
ATOM     23  C   UNL     1      -4.270  12.113  19.316  0.00  0.00    +0.000 A 
ATOM     24  C   UNL     1      -2.888  12.273  19.458  0.00  0.00    +0.000 A 
ENDBRANCH  17  18
ENDBRANCH  16  17
ENDBRANCH   7  16
TORSDOF 4
ENDMDL
MODEL 8
REMARK VINA RESULT:      -7.0      5.534      7.540
REMARK  Name = 
REMARK  4 active torsions:
REMARK  status: ('A' for Active; 'I' for Inactive)
REMARK    1  A    between atoms: C_2  and  C_18
REMARK    2  A    between atoms: C_7  and  S_8
REMARK    3  A    between atoms: S_8  and  C_9
REMARK    4  A    between atoms: C_9  and  C_10
REMARK                            x       y       z     vdW  Elec       q    Type
REMARK                         _______ _______ _______ _____ _____    ______ ____
ROOT
ATOM      1  O   UNL     1       1.098   9.271  18.982  0.00  0.00    +0.000 OA
ATOM      2  C   UNL     1       1.084   9.013  20.179  0.00  0.00    +0.000 C 
ATOM      3  N   UNL     1       1.540   7.857  20.777  0.00  0.00    +0.000 N 
ATOM      4  C   UNL     1       2.139   6.815  20.100  0.00  0.00    +0.000 A 
ATOM      5  N   UNL     1       2.285   5.603  20.591  0.00  0.00    +0.000 NA
ATOM      6  N   UNL     1       2.874   4.736  19.675  0.00  0.00    +0.000 NA
ATOM      7  C   UNL     1       3.208   5.354  18.562  0.00  0.00    +0.000 A 
ATOM      8  S   UNL     1       2.837   7.021  18.553  0.00  0.00    +0.000 S 
ATOM      9  H   UNL     1       1.306   7.693  21.750  0.00  0.00    +0.000 HD
ENDROOT
BRANCH   2  10
ATOM     10  C   UNL     1       0.474  10.022  21.092  0.00  0.00    +0.000 A 
ATOM     11  C   UNL     1       0.163   9.640  22.394  0.00  0.00    +0.000 A 
ATOM     12  N   UNL     1      -0.444  10.475  23.274  0.00  0.00    +0.000 NA
ATOM     13  C   UNL     1      -0.735  11.702  22.794  0.00  0.00    +0.000 A 
ATOM     14  C   UNL     1      -0.413  12.088  21.497  0.00  0.00    +0.000 A 
ATOM     15  N   UNL     1       0.210  11.268  20.611  0.00  0.00    +0.000 NA
ENDBRANCH   2  10
BRANCH   7  16
ATOM     16  S   UNL     1       3.997   4.575  17.212  0.00  0.00    +0.000 S 
BRANCH  16  17
ATOM     17  C   UNL     1       5.653   4.275  17.890  0.00  0.00    +0.000 C 
BRANCH  17  18
ATOM     18  C   UNL     1       6.462   5.554  17.931  0.00  0.00    +0.000 A 
ATOM     19  C   UNL     1       7.519   5.696  18.845  0.00  0.00    +0.000 A 
ATOM     20  C   UNL     1       8.247   6.887  18.913  0.00  0.00    +0.000 A 
ATOM     21  C   UNL     1       7.921   7.947  18.070  0.00  0.00    +0.000 A 
ATOM     22 CL   UNL     1       8.811   9.418  18.163  0.00  0.00    +0.000 Cl
ATOM     23  C   UNL     1       6.877   7.825  17.157  0.00  0.00    +0.000 A 
ATOM     24  C   UNL     1       6.148   6.634  17.089  0.00  0.00    +0.000 A 
ENDBRANCH  17  18
ENDBRANCH  16  17
ENDBRANCH   7  16
TORSDOF 4
ENDMDL
MODEL 9
REMARK VINA RESULT:      -7.0      5.663      6.992
REMARK  Name = 
REMARK  4 active torsions:
REMARK  status: ('A' for Active; 'I' for Inactive)
REMARK    1  A    between atoms: C_2  and  C_18
REMARK    2  A    between atoms: C_7  and  S_8
REMARK    3  A    between atoms: S_8  and  C_9
REMARK    4  A    between atoms: C_9  and  C_10
REMARK                            x       y       z     vdW  Elec       q    Type
REMARK                         _______ _______ _______ _____ _____    ______ ____
ROOT
ATOM      1  O   UNL     1       2.052   9.175  17.469  0.00  0.00    +0.000 OA
ATOM      2  C   UNL     1       1.635   9.595  18.541  0.00  0.00    +0.000 C 
ATOM      3  N   UNL     1       1.489   8.873  19.707  0.00  0.00    +0.000 N 
ATOM      4  C   UNL     1       1.848   7.548  19.852  0.00  0.00    +0.000 A 
ATOM      5  N   UNL     1       1.432   6.773  20.831  0.00  0.00    +0.000 NA
ATOM      6  N   UNL     1       1.905   5.471  20.703  0.00  0.00    +0.000 NA
ATOM      7  C   UNL     1       2.713   5.344  19.672  0.00  0.00    +0.000 A 
ATOM      8  S   UNL     1       2.957   6.789  18.795  0.00  0.00    +0.000 S 
ATOM      9  H   UNL     1       0.965   9.288  20.469  0.00  0.00    +0.000 HD
ENDROOT
BRANCH   2  10
ATOM     10  C   UNL     1       1.192  11.018  18.598  0.00  0.00    +0.000 A 
ATOM     11  C   UNL     1      -0.156  11.288  18.813  0.00  0.00    +0.000 A 
ATOM     12  N   UNL     1      -0.654  12.550  18.823  0.00  0.00    +0.000 NA
ATOM     13  C   UNL     1       0.250  13.526  18.598  0.00  0.00    +0.000 A 
ATOM     14  C   UNL     1       1.599  13.257  18.395  0.00  0.00    +0.000 A 
ATOM     15  N   UNL     1       2.115  12.000  18.399  0.00  0.00    +0.000 NA
ENDBRANCH   2  10
BRANCH   7  16
ATOM     16  S   UNL     1       3.511   3.852  19.236  0.00  0.00    +0.000 S 
BRANCH  16  17
ATOM     17  C   UNL     1       5.238   4.394  19.111  0.00  0.00    +0.000 C 
BRANCH  17  18
ATOM     18  C   UNL     1       5.695   4.423  17.668  0.00  0.00    +0.000 A 
ATOM     19  C   UNL     1       7.037   4.693  17.354  0.00  0.00    +0.000 A 
ATOM     20  C   UNL     1       7.459   4.756  16.022  0.00  0.00    +0.000 A 
ATOM     21  C   UNL     1       6.540   4.555  14.995  0.00  0.00    +0.000 A 
ATOM     22 CL   UNL     1       7.058   4.646  13.356  0.00  0.00    +0.000 Cl
ATOM     23  C   UNL     1       5.206   4.285  15.287  0.00  0.00    +0.000 A 
ATOM     24  C   UNL     1       4.784   4.221  16.618  0.00  0.00    +0.000 A 
ENDBRANCH  17  18
ENDBRANCH  16  17
ENDBRANCH   7  16
TORSDOF 4
ENDMDL
