MODEL 1
REMARK VINA RESULT:      -8.5      0.000      0.000
REMARK  Name = 
REMARK  1 active torsions:
REMARK  status: ('A' for Active; 'I' for Inactive)
REMARK    1  A    between atoms: C_2  and  C_3
REMARK                            x       y       z     vdW  Elec       q    Type
REMARK                         _______ _______ _______ _____ _____    ______ ____
ROOT
ATOM      1  O   UNL     1       7.603   5.488  14.139  0.00  0.00    +0.000 OA
ATOM      2  C   UNL     1       6.780   4.672  14.537  0.00  0.00    +0.000 C 
ATOM      3  N   UNL     1       6.143   4.780  15.770  0.00  0.00    +0.000 N 
ATOM      4  C   UNL     1       6.368   5.988  16.589  0.00  0.00    +0.000 C 
ATOM      5  C   UNL     1       5.027   6.688  16.912  0.00  0.00    +0.000 C 
ATOM      6  C   UNL     1       4.097   5.651  17.443  0.00  0.00    +0.000 A 
ATOM      7  N   UNL     1       2.995   5.854  18.220  0.00  0.00    +0.000 N 
ATOM      8  C   UNL     1       2.427   4.637  18.538  0.00  0.00    +0.000 A 
ATOM      9  C   UNL     1       1.306   4.342  19.323  0.00  0.00    +0.000 A 
ATOM     10  C   UNL     1       0.958   2.999  19.485  0.00  0.00    +0.000 A 
ATOM     11  C   UNL     1       1.703   1.984  18.885  0.00  0.00    +0.000 A 
ATOM     12  C   UNL     1       2.820   2.292  18.099  0.00  0.00    +0.000 A 
ATOM     13  C   UNL     1       3.190   3.642  17.920  0.00  0.00    +0.000 A 
ATOM     14  C   UNL     1       4.237   4.298  17.217  0.00  0.00    +0.000 A 
ATOM     15  C   UNL     1       5.337   3.710  16.394  0.00  0.00    +0.000 C 
ATOM     16  H   UNL     1       2.648   6.749  18.536  0.00  0.00    +0.000 HD
ENDROOT
BRANCH   2  17
ATOM     17  C   UNL     1       6.361   3.559  13.631  0.00  0.00    +0.000 C 
ATOM     18  C   UNL     1       5.237   3.848  12.655  0.00  0.00    +0.000 C 
ATOM     19  C   UNL     1       6.618   3.572  12.142  0.00  0.00    +0.000 C 
ENDBRANCH   2  17
TORSDOF 1
ENDMDL
MODEL 2
REMARK VINA RESULT:      -7.7      1.098      1.174
REMARK  Name = 
REMARK  1 active torsions:
REMARK  status: ('A' for Active; 'I' for Inactive)
REMARK    1  A    between atoms: C_2  and  C_3
REMARK                            x       y       z     vdW  Elec       q    Type
REMARK                         _______ _______ _______ _____ _____    ______ ____
ROOT
ATOM      1  O   UNL     1       7.836   5.200  14.867  0.00  0.00    +0.000 OA
ATOM      2  C   UNL     1       6.722   4.731  15.070  0.00  0.00    +0.000 C 
ATOM      3  N   UNL     1       6.223   4.493  16.347  0.00  0.00    +0.000 N 
ATOM      4  C   UNL     1       7.009   4.933  17.516  0.00  0.00    +0.000 C 
ATOM      5  C   UNL     1       6.176   5.884  18.408  0.00  0.00    +0.000 C 
ATOM      6  C   UNL     1       4.863   5.226  18.660  0.00  0.00    +0.000 A 
ATOM      7  N   UNL     1       4.001   5.476  19.687  0.00  0.00    +0.000 N 
ATOM      8  C   UNL     1       2.915   4.629  19.591  0.00  0.00    +0.000 A 
ATOM      9  C   UNL     1       1.794   4.500  20.422  0.00  0.00    +0.000 A 
ATOM     10  C   UNL     1       0.840   3.537  20.085  0.00  0.00    +0.000 A 
ATOM     11  C   UNL     1       0.998   2.730  18.959  0.00  0.00    +0.000 A 
ATOM     12  C   UNL     1       2.121   2.870  18.134  0.00  0.00    +0.000 A 
ATOM     13  C   UNL     1       3.098   3.837  18.454  0.00  0.00    +0.000 A 
ATOM     14  C   UNL     1       4.328   4.235  17.864  0.00  0.00    +0.000 A 
ATOM     15  C   UNL     1       5.003   3.713  16.637  0.00  0.00    +0.000 C 
ATOM     16  H   UNL     1       4.131   6.159  20.420  0.00  0.00    +0.000 HD
ENDROOT
BRANCH   2  17
ATOM     17  C   UNL     1       5.812   4.487  13.908  0.00  0.00    +0.000 C 
ATOM     18  C   UNL     1       6.459   4.320  12.547  0.00  0.00    +0.000 C 
ATOM     19  C   UNL     1       5.746   3.164  13.182  0.00  0.00    +0.000 C 
ENDBRANCH   2  17
TORSDOF 1
ENDMDL
MODEL 3
REMARK VINA RESULT:      -7.4      1.749      3.555
REMARK  Name = 
REMARK  1 active torsions:
REMARK  status: ('A' for Active; 'I' for Inactive)
REMARK    1  A    between atoms: C_2  and  C_3
REMARK                            x       y       z     vdW  Elec       q    Type
REMARK                         _______ _______ _______ _____ _____    ______ ____
ROOT
ATOM      1  O   UNL     1       7.564   6.342  15.715  0.00  0.00    +0.000 OA
ATOM      2  C   UNL     1       6.734   6.405  16.614  0.00  0.00    +0.000 C 
ATOM      3  N   UNL     1       5.601   5.597  16.655  0.00  0.00    +0.000 N 
ATOM      4  C   UNL     1       5.445   4.531  15.647  0.00  0.00    +0.000 C 
ATOM      5  C   UNL     1       5.281   3.152  16.329  0.00  0.00    +0.000 C 
ATOM      6  C   UNL     1       4.221   3.289  17.366  0.00  0.00    +0.000 A 
ATOM      7  N   UNL     1       3.468   2.290  17.910  0.00  0.00    +0.000 N 
ATOM      8  C   UNL     1       2.566   2.830  18.805  0.00  0.00    +0.000 A 
ATOM      9  C   UNL     1       1.582   2.207  19.583  0.00  0.00    +0.000 A 
ATOM     10  C   UNL     1       0.794   3.013  20.407  0.00  0.00    +0.000 A 
ATOM     11  C   UNL     1       0.980   4.394  20.454  0.00  0.00    +0.000 A 
ATOM     12  C   UNL     1       1.969   5.006  19.674  0.00  0.00    +0.000 A 
ATOM     13  C   UNL     1       2.779   4.212  18.834  0.00  0.00    +0.000 A 
ATOM     14  C   UNL     1       3.839   4.488  17.930  0.00  0.00    +0.000 A 
ATOM     15  C   UNL     1       4.461   5.799  17.573  0.00  0.00    +0.000 C 
ATOM     16  H   UNL     1       3.537   1.307  17.689  0.00  0.00    +0.000 HD
ENDROOT
BRANCH   2  17
ATOM     17  C   UNL     1       6.983   7.318  17.772  0.00  0.00    +0.000 C 
ATOM     18  C   UNL     1       8.185   7.015  18.645  0.00  0.00    +0.000 C 
ATOM     19  C   UNL     1       8.154   8.271  17.828  0.00  0.00    +0.000 C 
ENDBRANCH   2  17
TORSDOF 1
ENDMDL
MODEL 4
REMARK VINA RESULT:      -7.4      2.094      5.857
REMARK  Name = 
REMARK  1 active torsions:
REMARK  status: ('A' for Active; 'I' for Inactive)
REMARK    1  A    between atoms: C_2  and  C_3
REMARK                            x       y       z     vdW  Elec       q    Type
REMARK                         _______ _______ _______ _____ _____    ______ ____
ROOT
ATOM      1  O   UNL     1       3.714   4.464  20.129  0.00  0.00    +0.000 OA
ATOM      2  C   UNL     1       3.834   3.957  19.020  0.00  0.00    +0.000 C 
ATOM      3  N   UNL     1       4.367   4.640  17.931  0.00  0.00    +0.000 N 
ATOM      4  C   UNL     1       4.928   5.989  18.136  0.00  0.00    +0.000 C 
ATOM      5  C   UNL     1       6.404   6.044  17.673  0.00  0.00    +0.000 C 
ATOM      6  C   UNL     1       6.465   5.468  16.301  0.00  0.00    +0.000 A 
ATOM      7  N   UNL     1       7.431   5.678  15.362  0.00  0.00    +0.000 N 
ATOM      8  C   UNL     1       7.103   4.999  14.205  0.00  0.00    +0.000 A 
ATOM      9  C   UNL     1       7.771   4.933  12.976  0.00  0.00    +0.000 A 
ATOM     10  C   UNL     1       7.196   4.166  11.961  0.00  0.00    +0.000 A 
ATOM     11  C   UNL     1       5.995   3.487  12.164  0.00  0.00    +0.000 A 
ATOM     12  C   UNL     1       5.337   3.557  13.398  0.00  0.00    +0.000 A 
ATOM     13  C   UNL     1       5.900   4.326  14.440  0.00  0.00    +0.000 A 
ATOM     14  C   UNL     1       5.513   4.618  15.775  0.00  0.00    +0.000 A 
ATOM     15  C   UNL     1       4.309   4.163  16.533  0.00  0.00    +0.000 C 
ATOM     16  H   UNL     1       8.254   6.252  15.475  0.00  0.00    +0.000 HD
ENDROOT
BRANCH   2  17
ATOM     17  C   UNL     1       3.485   2.515  18.837  0.00  0.00    +0.000 C 
ATOM     18  C   UNL     1       2.104   2.076  19.282  0.00  0.00    +0.000 C 
ATOM     19  C   UNL     1       2.466   2.039  17.828  0.00  0.00    +0.000 C 
ENDBRANCH   2  17
TORSDOF 1
ENDMDL
MODEL 5
REMARK VINA RESULT:      -7.1      3.259      6.368
REMARK  Name = 
REMARK  1 active torsions:
REMARK  status: ('A' for Active; 'I' for Inactive)
REMARK    1  A    between atoms: C_2  and  C_3
REMARK                            x       y       z     vdW  Elec       q    Type
REMARK                         _______ _______ _______ _____ _____    ______ ____
ROOT
ATOM      1  O   UNL     1       1.562   1.548  19.268  0.00  0.00    +0.000 OA
ATOM      2  C   UNL     1       2.493   2.241  19.661  0.00  0.00    +0.000 C 
ATOM      3  N   UNL     1       3.430   2.807  18.801  0.00  0.00    +0.000 N 
ATOM      4  C   UNL     1       3.235   2.676  17.344  0.00  0.00    +0.000 C 
ATOM      5  C   UNL     1       3.193   4.069  16.671  0.00  0.00    +0.000 C 
ATOM      6  C   UNL     1       4.381   4.832  17.148  0.00  0.00    +0.000 A 
ATOM      7  N   UNL     1       4.973   5.899  16.538  0.00  0.00    +0.000 N 
ATOM      8  C   UNL     1       6.071   6.297  17.274  0.00  0.00    +0.000 A 
ATOM      9  C   UNL     1       6.994   7.323  17.036  0.00  0.00    +0.000 A 
ATOM     10  C   UNL     1       8.029   7.497  17.957  0.00  0.00    +0.000 A 
ATOM     11  C   UNL     1       8.140   6.675  19.079  0.00  0.00    +0.000 A 
ATOM     12  C   UNL     1       7.210   5.655  19.308  0.00  0.00    +0.000 A 
ATOM     13  C   UNL     1       6.154   5.460  18.391  0.00  0.00    +0.000 A 
ATOM     14  C   UNL     1       5.070   4.547  18.308  0.00  0.00    +0.000 A 
ATOM     15  C   UNL     1       4.692   3.438  19.237  0.00  0.00    +0.000 C 
ATOM     16  H   UNL     1       4.675   6.331  15.675  0.00  0.00    +0.000 HD
ENDROOT
BRANCH   2  17
ATOM     17  C   UNL     1       2.585   2.580  21.114  0.00  0.00    +0.000 C 
ATOM     18  C   UNL     1       2.033   3.925  21.546  0.00  0.00    +0.000 C 
ATOM     19  C   UNL     1       1.375   2.662  22.015  0.00  0.00    +0.000 C 
ENDBRANCH   2  17
TORSDOF 1
ENDMDL
MODEL 6
REMARK VINA RESULT:      -6.9      3.568      5.367
REMARK  Name = 
REMARK  1 active torsions:
REMARK  status: ('A' for Active; 'I' for Inactive)
REMARK    1  A    between atoms: C_2  and  C_3
REMARK                            x       y       z     vdW  Elec       q    Type
REMARK                         _______ _______ _______ _____ _____    ______ ____
ROOT
ATOM      1  O   UNL     1       5.326   3.133  18.862  0.00  0.00    +0.000 OA
ATOM      2  C   UNL     1       5.089   4.285  18.518  0.00  0.00    +0.000 C 
ATOM      3  N   UNL     1       3.874   4.915  18.773  0.00  0.00    +0.000 N 
ATOM      4  C   UNL     1       2.868   4.221  19.599  0.00  0.00    +0.000 C 
ATOM      5  C   UNL     1       2.478   5.082  20.825  0.00  0.00    +0.000 C 
ATOM      6  C   UNL     1       2.148   6.446  20.327  0.00  0.00    +0.000 A 
ATOM      7  N   UNL     1       1.382   7.387  20.950  0.00  0.00    +0.000 N 
ATOM      8  C   UNL     1       1.280   8.504  20.144  0.00  0.00    +0.000 A 
ATOM      9  C   UNL     1       0.586   9.703  20.347  0.00  0.00    +0.000 A 
ATOM     10  C   UNL     1       0.651  10.672  19.343  0.00  0.00    +0.000 A 
ATOM     11  C   UNL     1       1.382  10.453  18.177  0.00  0.00    +0.000 A 
ATOM     12  C   UNL     1       2.075   9.251  17.986  0.00  0.00    +0.000 A 
ATOM     13  C   UNL     1       2.025   8.257  18.987  0.00  0.00    +0.000 A 
ATOM     14  C   UNL     1       2.582   6.957  19.121  0.00  0.00    +0.000 A 
ATOM     15  C   UNL     1       3.454   6.198  18.174  0.00  0.00    +0.000 C 
ATOM     16  H   UNL     1       0.938   7.289  21.852  0.00  0.00    +0.000 HD
ENDROOT
BRANCH   2  17
ATOM     17  C   UNL     1       6.173   5.092  17.879  0.00  0.00    +0.000 C 
ATOM     18  C   UNL     1       7.260   5.632  18.789  0.00  0.00    +0.000 C 
ATOM     19  C   UNL     1       7.596   4.600  17.753  0.00  0.00    +0.000 C 
ENDBRANCH   2  17
TORSDOF 1
ENDMDL
MODEL 7
REMARK VINA RESULT:      -6.7      4.687      6.968
REMARK  Name = 
REMARK  1 active torsions:
REMARK  status: ('A' for Active; 'I' for Inactive)
REMARK    1  A    between atoms: C_2  and  C_3
REMARK                            x       y       z     vdW  Elec       q    Type
REMARK                         _______ _______ _______ _____ _____    ______ ____
ROOT
ATOM      1  O   UNL     1       2.998   4.314  18.388  0.00  0.00    +0.000 OA
ATOM      2  C   UNL     1       2.326   4.832  19.272  0.00  0.00    +0.000 C 
ATOM      3  N   UNL     1       2.347   6.198  19.536  0.00  0.00    +0.000 N 
ATOM      4  C   UNL     1       3.113   7.088  18.642  0.00  0.00    +0.000 C 
ATOM      5  C   UNL     1       2.200   8.188  18.051  0.00  0.00    +0.000 C 
ATOM      6  C   UNL     1       1.459   8.811  19.184  0.00  0.00    +0.000 A 
ATOM      7  N   UNL     1       0.881  10.046  19.210  0.00  0.00    +0.000 N 
ATOM      8  C   UNL     1       0.329  10.269  20.456  0.00  0.00    +0.000 A 
ATOM      9  C   UNL     1      -0.343  11.390  20.958  0.00  0.00    +0.000 A 
ATOM     10  C   UNL     1      -0.793  11.344  22.280  0.00  0.00    +0.000 A 
ATOM     11  C   UNL     1      -0.579  10.217  23.074  0.00  0.00    +0.000 A 
ATOM     12  C   UNL     1       0.092   9.101  22.560  0.00  0.00    +0.000 A 
ATOM     13  C   UNL     1       0.554   9.124  21.226  0.00  0.00    +0.000 A 
ATOM     14  C   UNL     1       1.257   8.202  20.405  0.00  0.00    +0.000 A 
ATOM     15  C   UNL     1       1.751   6.830  20.731  0.00  0.00    +0.000 C 
ATOM     16  H   UNL     1       0.866  10.711  18.450  0.00  0.00    +0.000 HD
ENDROOT
BRANCH   2  17
ATOM     17  C   UNL     1       1.365   3.986  20.046  0.00  0.00    +0.000 C 
ATOM     18  C   UNL     1       0.709   2.835  19.309  0.00  0.00    +0.000 C 
ATOM     19  C   UNL     1       1.660   2.556  20.435  0.00  0.00    +0.000 C 
ENDBRANCH   2  17
TORSDOF 1
ENDMDL
MODEL 8
REMARK VINA RESULT:      -6.7      5.497      7.847
REMARK  Name = 
REMARK  1 active torsions:
REMARK  status: ('A' for Active; 'I' for Inactive)
REMARK    1  A    between atoms: C_2  and  C_3
REMARK                            x       y       z     vdW  Elec       q    Type
REMARK                         _______ _______ _______ _____ _____    ______ ____
ROOT
ATOM      1  O   UNL     1      -1.580  11.602  20.080  0.00  0.00    +0.000 OA
ATOM      2  C   UNL     1      -0.892  10.955  19.300  0.00  0.00    +0.000 C 
ATOM      3  N   UNL     1       0.207  10.203  19.706  0.00  0.00    +0.000 N 
ATOM      4  C   UNL     1       0.492  10.073  21.148  0.00  0.00    +0.000 C 
ATOM      5  C   UNL     1       0.528   8.583  21.566  0.00  0.00    +0.000 C 
ATOM      6  C   UNL     1       1.426   7.872  20.612  0.00  0.00    +0.000 A 
ATOM      7  N   UNL     1       2.071   6.688  20.816  0.00  0.00    +0.000 N 
ATOM      8  C   UNL     1       2.839   6.387  19.710  0.00  0.00    +0.000 A 
ATOM      9  C   UNL     1       3.686   5.298  19.467  0.00  0.00    +0.000 A 
ATOM     10  C   UNL     1       4.358   5.254  18.243  0.00  0.00    +0.000 A 
ATOM     11  C   UNL     1       4.192   6.262  17.294  0.00  0.00    +0.000 A 
ATOM     12  C   UNL     1       3.341   7.344  17.546  0.00  0.00    +0.000 A 
ATOM     13  C   UNL     1       2.650   7.410  18.776  0.00  0.00    +0.000 A 
ATOM     14  C   UNL     1       1.741   8.337  19.352  0.00  0.00    +0.000 A 
ATOM     15  C   UNL     1       1.202   9.611  18.788  0.00  0.00    +0.000 C 
ATOM     16  H   UNL     1       2.018   6.119  21.649  0.00  0.00    +0.000 HD
ENDROOT
BRANCH   2  17
ATOM     17  C   UNL     1      -1.293  10.884  17.861  0.00  0.00    +0.000 C 
ATOM     18  C   UNL     1      -2.333   9.847  17.484  0.00  0.00    +0.000 C 
ATOM     19  C   UNL     1      -2.657  11.307  17.369  0.00  0.00    +0.000 C 
ENDBRANCH   2  17
TORSDOF 1
ENDMDL
MODEL 9
REMARK VINA RESULT:      -6.7      3.460      5.029
REMARK  Name = 
REMARK  1 active torsions:
REMARK  status: ('A' for Active; 'I' for Inactive)
REMARK    1  A    between atoms: C_2  and  C_3
REMARK                            x       y       z     vdW  Elec       q    Type
REMARK                         _______ _______ _______ _____ _____    ______ ____
ROOT
ATOM      1  O   UNL     1       5.014   3.598  17.193  0.00  0.00    +0.000 OA
ATOM      2  C   UNL     1       4.687   4.776  17.117  0.00  0.00    +0.000 C 
ATOM      3  N   UNL     1       3.580   5.298  17.779  0.00  0.00    +0.000 N 
ATOM      4  C   UNL     1       2.831   4.434  18.712  0.00  0.00    +0.000 C 
ATOM      5  C   UNL     1       2.775   5.071  20.121  0.00  0.00    +0.000 C 
ATOM      6  C   UNL     1       2.316   6.479  19.958  0.00  0.00    +0.000 A 
ATOM      7  N   UNL     1       1.737   7.272  20.905  0.00  0.00    +0.000 N 
ATOM      8  C   UNL     1       1.419   8.494  20.348  0.00  0.00    +0.000 A 
ATOM      9  C   UNL     1       0.796   9.612  20.919  0.00  0.00    +0.000 A 
ATOM     10  C   UNL     1       0.587  10.728  20.107  0.00  0.00    +0.000 A 
ATOM     11  C   UNL     1       0.986  10.731  18.770  0.00  0.00    +0.000 A 
ATOM     12  C   UNL     1       1.610   9.610  18.211  0.00  0.00    +0.000 A 
ATOM     13  C   UNL     1       1.833   8.469  19.013  0.00  0.00    +0.000 A 
ATOM     14  C   UNL     1       2.413   7.194  18.782  0.00  0.00    +0.000 A 
ATOM     15  C   UNL     1       3.009   6.637  17.529  0.00  0.00    +0.000 C 
ATOM     16  H   UNL     1       1.548   7.012  21.862  0.00  0.00    +0.000 HD
ENDROOT
BRANCH   2  17
ATOM     17  C   UNL     1       5.559   5.727  16.360  0.00  0.00    +0.000 C 
ATOM     18  C   UNL     1       6.806   6.229  17.062  0.00  0.00    +0.000 C 
ATOM     19  C   UNL     1       6.932   5.353  15.852  0.00  0.00    +0.000 C 
ENDBRANCH   2  17
TORSDOF 1
ENDMDL
