MODEL 1
REMARK VINA RESULT:      -5.4      0.000      0.000
REMARK  Name = 
REMARK  13 active torsions:
REMARK  status: ('A' for Active; 'I' for Inactive)
REMARK    1  A    between atoms: C_1  and  C_2
REMARK    2  A    between atoms: C_2  and  C_3
REMARK    3  A    between atoms: C_3  and  C_4
REMARK    4  A    between atoms: C_3  and  C_6
REMARK    5  A    between atoms: C_4  and  C_5
REMARK    6  A    between atoms: C_8  and  C_9
REMARK    7  A    between atoms: C_12  and  C_13
REMARK    8  A    between atoms: C_16  and  O_17
REMARK    9  A    between atoms: O_17  and  C_18
REMARK   10  A    between atoms: C_20  and  C_21
REMARK   11  A    between atoms: N_22  and  C_23
REMARK   12  A    between atoms: C_23  and  C_24
REMARK   13  A    between atoms: C_24  and  O_25
REMARK                            x       y       z     vdW  Elec       q    Type
REMARK                         _______ _______ _______ _____ _____    ______ ____
ROOT
ATOM      1  C   UNL     1      -5.108  11.255  18.529  0.00  0.00    +0.000 A 
ATOM      2  C   UNL     1      -4.780  10.764  17.233  0.00  0.00    +0.000 A 
ATOM      3  C   UNL     1      -3.481  11.135  16.949  0.00  0.00    +0.000 A 
ATOM      4  C   UNL     1      -2.699  10.892  15.714  0.00  0.00    +0.000 C 
ATOM      5  N   UNL     1      -2.987  11.790  18.048  0.00  0.00    +0.000 N 
ATOM      6  N   UNL     1      -1.728  12.217  18.218  0.00  0.00    +0.000 NA
ATOM      7  C   UNL     1      -1.430  12.847  19.318  0.00  0.00    +0.000 A 
ATOM      8  N   UNL     1      -2.404  13.159  20.302  0.00  0.00    +0.000 N 
ATOM      9  C   UNL     1      -3.710  12.642  20.180  0.00  0.00    +0.000 A 
ATOM     10  O   UNL     1      -4.568  12.779  21.050  0.00  0.00    +0.000 OA
ATOM     11  C   UNL     1      -3.971  11.922  18.977  0.00  0.00    +0.000 A 
ENDROOT
BRANCH   7  12
ATOM     12  C   UNL     1       0.044  13.205  19.461  0.00  0.00    +0.000 A 
ATOM     13  C   UNL     1       0.506  14.466  19.057  0.00  0.00    +0.000 A 
ATOM     14  C   UNL     1       1.842  14.847  19.196  0.00  0.00    +0.000 A 
ATOM     15  C   UNL     1       2.749  14.027  19.847  0.00  0.00    +0.000 A 
ATOM     16  C   UNL     1       2.317  12.797  20.325  0.00  0.00    +0.000 A 
ATOM     17  C   UNL     1       0.968  12.369  20.142  0.00  0.00    +0.000 A 
ATOM     18  C   UNL     1       0.612  11.038  20.763  0.00  0.00    +0.000 C 
BRANCH  15  19
ATOM     19  O   UNL     1       4.007  14.546  19.957  0.00  0.00    +0.000 OA
ATOM     20  C   UNL     1       4.400  15.016  21.238  0.00  0.00    +0.000 C 
ENDBRANCH  15  19
ENDBRANCH   7  12
BRANCH   1  21
ATOM     21  C   UNL     1      -6.425  11.083  19.259  0.00  0.00    +0.000 C 
BRANCH  21  23
ATOM     22  C   UNL     1      -7.066  13.512  18.698  0.00  0.00    +0.000 C 
ATOM     23  C   UNL     1      -7.498  12.056  18.719  0.00  0.00    +0.000 C 
ENDBRANCH  21  23
BRANCH  21  24
ATOM     24  C   UNL     1      -6.867   9.603  19.309  0.00  0.00    +0.000 C 
ATOM     25  C   UNL     1      -7.678   9.200  20.534  0.00  0.00    +0.000 C 
ENDBRANCH  21  24
ENDBRANCH   1  21
BRANCH   8  26
ATOM     26  C   UNL     1      -2.199  13.879  21.579  0.00  0.00    +0.000 C 
BRANCH  26  27
ATOM     27  C   UNL     1      -1.586  13.102  22.743  0.00  0.00    +0.000 C 
BRANCH  27  28
ATOM     28  O   UNL     1      -2.547  12.164  23.237  0.00  0.00    +0.000 OA
ATOM     29  H   UNL     1      -3.362  12.653  23.451  0.00  0.00    +0.000 HD
ENDBRANCH  27  28
ENDBRANCH  26  27
ENDBRANCH   8  26
TORSDOF 8
ENDMDL
MODEL 2
REMARK VINA RESULT:      -5.2      3.023      4.608
REMARK  Name = 
REMARK  13 active torsions:
REMARK  status: ('A' for Active; 'I' for Inactive)
REMARK    1  A    between atoms: C_1  and  C_2
REMARK    2  A    between atoms: C_2  and  C_3
REMARK    3  A    between atoms: C_3  and  C_4
REMARK    4  A    between atoms: C_3  and  C_6
REMARK    5  A    between atoms: C_4  and  C_5
REMARK    6  A    between atoms: C_8  and  C_9
REMARK    7  A    between atoms: C_12  and  C_13
REMARK    8  A    between atoms: C_16  and  O_17
REMARK    9  A    between atoms: O_17  and  C_18
REMARK   10  A    between atoms: C_20  and  C_21
REMARK   11  A    between atoms: N_22  and  C_23
REMARK   12  A    between atoms: C_23  and  C_24
REMARK   13  A    between atoms: C_24  and  O_25
REMARK                            x       y       z     vdW  Elec       q    Type
REMARK                         _______ _______ _______ _____ _____    ______ ____
ROOT
ATOM      1  C   UNL     1      -3.554  13.306  20.412  0.00  0.00    +0.000 A 
ATOM      2  C   UNL     1      -4.485  12.643  19.562  0.00  0.00    +0.000 A 
ATOM      3  C   UNL     1      -3.817  11.637  18.894  0.00  0.00    +0.000 A 
ATOM      4  C   UNL     1      -4.341  10.695  17.877  0.00  0.00    +0.000 C 
ATOM      5  N   UNL     1      -2.522  11.628  19.347  0.00  0.00    +0.000 N 
ATOM      6  N   UNL     1      -1.576  10.734  19.027  0.00  0.00    +0.000 NA
ATOM      7  C   UNL     1      -0.384  10.886  19.530  0.00  0.00    +0.000 A 
ATOM      8  N   UNL     1      -0.037  12.001  20.338  0.00  0.00    +0.000 N 
ATOM      9  C   UNL     1      -1.041  12.899  20.754  0.00  0.00    +0.000 A 
ATOM     10  O   UNL     1      -0.830  13.818  21.544  0.00  0.00    +0.000 OA
ATOM     11  C   UNL     1      -2.338  12.661  20.210  0.00  0.00    +0.000 A 
ENDROOT
BRANCH   7  12
ATOM     12  C   UNL     1       0.593   9.768  19.187  0.00  0.00    +0.000 A 
ATOM     13  C   UNL     1       1.278   9.781  17.963  0.00  0.00    +0.000 A 
ATOM     14  C   UNL     1       2.204   8.792  17.620  0.00  0.00    +0.000 A 
ATOM     15  C   UNL     1       2.566   7.814  18.532  0.00  0.00    +0.000 A 
ATOM     16  C   UNL     1       1.962   7.806  19.782  0.00  0.00    +0.000 A 
ATOM     17  C   UNL     1       0.974   8.775  20.129  0.00  0.00    +0.000 A 
ATOM     18  C   UNL     1       0.441   8.693  21.540  0.00  0.00    +0.000 C 
BRANCH  15  19
ATOM     19  O   UNL     1       3.518   6.944  18.082  0.00  0.00    +0.000 OA
ATOM     20  C   UNL     1       3.729   5.768  18.849  0.00  0.00    +0.000 C 
ENDBRANCH  15  19
ENDBRANCH   7  12
BRANCH   1  21
ATOM     21  C   UNL     1      -3.841  14.471  21.338  0.00  0.00    +0.000 C 
BRANCH  21  23
ATOM     22  C   UNL     1      -5.791  16.150  21.336  0.00  0.00    +0.000 C 
ATOM     23  C   UNL     1      -4.579  15.609  20.598  0.00  0.00    +0.000 C 
ENDBRANCH  21  23
BRANCH  21  24
ATOM     24  C   UNL     1      -4.518  14.011  22.649  0.00  0.00    +0.000 C 
ATOM     25  C   UNL     1      -3.852  12.840  23.358  0.00  0.00    +0.000 C 
ENDBRANCH  21  24
ENDBRANCH   1  21
BRANCH   8  26
ATOM     26  C   UNL     1       1.276  12.296  20.952  0.00  0.00    +0.000 C 
BRANCH  26  27
ATOM     27  C   UNL     1       2.229  13.215  20.189  0.00  0.00    +0.000 C 
BRANCH  27  28
ATOM     28  O   UNL     1       1.486  13.955  19.216  0.00  0.00    +0.000 OA
ATOM     29  H   UNL     1       2.031  14.711  18.932  0.00  0.00    +0.000 HD
ENDBRANCH  27  28
ENDBRANCH  26  27
ENDBRANCH   8  26
TORSDOF 8
ENDMDL
MODEL 3
REMARK VINA RESULT:      -5.2      3.570      6.679
REMARK  Name = 
REMARK  13 active torsions:
REMARK  status: ('A' for Active; 'I' for Inactive)
REMARK    1  A    between atoms: C_1  and  C_2
REMARK    2  A    between atoms: C_2  and  C_3
REMARK    3  A    between atoms: C_3  and  C_4
REMARK    4  A    between atoms: C_3  and  C_6
REMARK    5  A    between atoms: C_4  and  C_5
REMARK    6  A    between atoms: C_8  and  C_9
REMARK    7  A    between atoms: C_12  and  C_13
REMARK    8  A    between atoms: C_16  and  O_17
REMARK    9  A    between atoms: O_17  and  C_18
REMARK   10  A    between atoms: C_20  and  C_21
REMARK   11  A    between atoms: N_22  and  C_23
REMARK   12  A    between atoms: C_23  and  C_24
REMARK   13  A    between atoms: C_24  and  O_25
REMARK                            x       y       z     vdW  Elec       q    Type
REMARK                         _______ _______ _______ _____ _____    ______ ____
ROOT
ATOM      1  C   UNL     1       0.655  15.534  18.996  0.00  0.00    +0.000 A 
ATOM      2  C   UNL     1       2.047  15.829  19.067  0.00  0.00    +0.000 A 
ATOM      3  C   UNL     1       2.732  14.639  19.203  0.00  0.00    +0.000 A 
ATOM      4  C   UNL     1       4.191  14.423  19.353  0.00  0.00    +0.000 C 
ATOM      5  N   UNL     1       1.811  13.623  19.164  0.00  0.00    +0.000 N 
ATOM      6  N   UNL     1       2.078  12.309  19.157  0.00  0.00    +0.000 NA
ATOM      7  C   UNL     1       1.079  11.474  19.142  0.00  0.00    +0.000 A 
ATOM      8  N   UNL     1      -0.273  11.905  19.210  0.00  0.00    +0.000 N 
ATOM      9  C   UNL     1      -0.571  13.280  19.129  0.00  0.00    +0.000 A 
ATOM     10  O   UNL     1      -1.721  13.712  19.067  0.00  0.00    +0.000 OA
ATOM     11  C   UNL     1       0.559  14.150  19.102  0.00  0.00    +0.000 A 
ENDROOT
BRANCH   7  12
ATOM     12  C   UNL     1       1.483  10.009  19.037  0.00  0.00    +0.000 A 
ATOM     13  C   UNL     1       2.046   9.516  17.851  0.00  0.00    +0.000 A 
ATOM     14  C   UNL     1       2.457   8.188  17.720  0.00  0.00    +0.000 A 
ATOM     15  C   UNL     1       2.426   7.326  18.804  0.00  0.00    +0.000 A 
ATOM     16  C   UNL     1       1.940   7.793  20.017  0.00  0.00    +0.000 A 
ATOM     17  C   UNL     1       1.464   9.131  20.154  0.00  0.00    +0.000 A 
ATOM     18  C   UNL     1       1.019   9.532  21.541  0.00  0.00    +0.000 C 
BRANCH  15  19
ATOM     19  O   UNL     1       2.905   6.073  18.547  0.00  0.00    +0.000 OA
ATOM     20  C   UNL     1       3.675   5.457  19.569  0.00  0.00    +0.000 C 
ENDBRANCH  15  19
ENDBRANCH   7  12
BRANCH   1  21
ATOM     21  C   UNL     1      -0.477  16.529  18.839  0.00  0.00    +0.000 C 
BRANCH  21  23
ATOM     22  C   UNL     1      -0.384  17.707  21.126  0.00  0.00    +0.000 C 
ATOM     23  C   UNL     1      -1.173  16.807  20.190  0.00  0.00    +0.000 C 
ENDBRANCH  21  23
BRANCH  21  24
ATOM     24  C   UNL     1      -0.029  17.796  18.075  0.00  0.00    +0.000 C 
ATOM     25  C   UNL     1      -1.150  18.629  17.468  0.00  0.00    +0.000 C 
ENDBRANCH  21  24
ENDBRANCH   1  21
BRANCH   8  26
ATOM     26  C   UNL     1      -1.489  11.062  19.217  0.00  0.00    +0.000 C 
BRANCH  26  27
ATOM     27  C   UNL     1      -2.184  10.804  17.881  0.00  0.00    +0.000 C 
BRANCH  27  28
ATOM     28  O   UNL     1      -1.383   9.911  17.102  0.00  0.00    +0.000 OA
ATOM     29  H   UNL     1      -1.965   9.471  16.456  0.00  0.00    +0.000 HD
ENDBRANCH  27  28
ENDBRANCH  26  27
ENDBRANCH   8  26
TORSDOF 8
ENDMDL
MODEL 4
REMARK VINA RESULT:      -5.2      3.411      6.612
REMARK  Name = 
REMARK  13 active torsions:
REMARK  status: ('A' for Active; 'I' for Inactive)
REMARK    1  A    between atoms: C_1  and  C_2
REMARK    2  A    between atoms: C_2  and  C_3
REMARK    3  A    between atoms: C_3  and  C_4
REMARK    4  A    between atoms: C_3  and  C_6
REMARK    5  A    between atoms: C_4  and  C_5
REMARK    6  A    between atoms: C_8  and  C_9
REMARK    7  A    between atoms: C_12  and  C_13
REMARK    8  A    between atoms: C_16  and  O_17
REMARK    9  A    between atoms: O_17  and  C_18
REMARK   10  A    between atoms: C_20  and  C_21
REMARK   11  A    between atoms: N_22  and  C_23
REMARK   12  A    between atoms: C_23  and  C_24
REMARK   13  A    between atoms: C_24  and  O_25
REMARK                            x       y       z     vdW  Elec       q    Type
REMARK                         _______ _______ _______ _____ _____    ______ ____
ROOT
ATOM      1  C   UNL     1       0.295  15.435  20.588  0.00  0.00    +0.000 A 
ATOM      2  C   UNL     1       1.637  15.672  21.003  0.00  0.00    +0.000 A 
ATOM      3  C   UNL     1       2.316  14.471  20.969  0.00  0.00    +0.000 A 
ATOM      4  C   UNL     1       3.722  14.192  21.345  0.00  0.00    +0.000 C 
ATOM      5  N   UNL     1       1.450  13.518  20.495  0.00  0.00    +0.000 N 
ATOM      6  N   UNL     1       1.750  12.243  20.212  0.00  0.00    +0.000 NA
ATOM      7  C   UNL     1       0.798  11.460  19.792  0.00  0.00    +0.000 A 
ATOM      8  N   UNL     1      -0.552  11.890  19.697  0.00  0.00    +0.000 N 
ATOM      9  C   UNL     1      -0.868  13.248  19.906  0.00  0.00    +0.000 A 
ATOM     10  O   UNL     1      -1.996  13.707  19.730  0.00  0.00    +0.000 OA
ATOM     11  C   UNL     1       0.220  14.071  20.322  0.00  0.00    +0.000 A 
ENDROOT
BRANCH   7  12
ATOM     12  C   UNL     1       1.256  10.060  19.404  0.00  0.00    +0.000 A 
ATOM     13  C   UNL     1       1.808   9.824  18.136  0.00  0.00    +0.000 A 
ATOM     14  C   UNL     1       2.268   8.563  17.749  0.00  0.00    +0.000 A 
ATOM     15  C   UNL     1       2.299   7.513  18.652  0.00  0.00    +0.000 A 
ATOM     16  C   UNL     1       1.826   7.722  19.940  0.00  0.00    +0.000 A 
ATOM     17  C   UNL     1       1.302   8.988  20.336  0.00  0.00    +0.000 A 
ATOM     18  C   UNL     1       0.877   9.101  21.781  0.00  0.00    +0.000 C 
BRANCH  15  19
ATOM     19  O   UNL     1       2.820   6.353  18.154  0.00  0.00    +0.000 OA
ATOM     20  C   UNL     1       2.875   5.241  19.036  0.00  0.00    +0.000 C 
ENDBRANCH  15  19
ENDBRANCH   7  12
BRANCH   1  21
ATOM     21  C   UNL     1      -0.812  16.463  20.465  0.00  0.00    +0.000 C 
BRANCH  21  23
ATOM     22  C   UNL     1      -1.452  17.571  22.698  0.00  0.00    +0.000 C 
ATOM     23  C   UNL     1      -0.598  17.639  21.444  0.00  0.00    +0.000 C 
ENDBRANCH  21  23
BRANCH  21  24
ATOM     24  C   UNL     1      -1.048  16.883  18.997  0.00  0.00    +0.000 C 
ATOM     25  C   UNL     1       0.182  17.382  18.250  0.00  0.00    +0.000 C 
ENDBRANCH  21  24
ENDBRANCH   1  21
BRANCH   8  26
ATOM     26  C   UNL     1      -1.721  11.100  19.253  0.00  0.00    +0.000 C 
BRANCH  26  27
ATOM     27  C   UNL     1      -1.944  10.941  17.750  0.00  0.00    +0.000 C 
BRANCH  27  28
ATOM     28  O   UNL     1      -2.853  11.952  17.302  0.00  0.00    +0.000 OA
ATOM     29  H   UNL     1      -3.385  12.237  18.067  0.00  0.00    +0.000 HD
ENDBRANCH  27  28
ENDBRANCH  26  27
ENDBRANCH   8  26
TORSDOF 8
ENDMDL
MODEL 5
REMARK VINA RESULT:      -5.1      5.391      8.760
REMARK  Name = 
REMARK  13 active torsions:
REMARK  status: ('A' for Active; 'I' for Inactive)
REMARK    1  A    between atoms: C_1  and  C_2
REMARK    2  A    between atoms: C_2  and  C_3
REMARK    3  A    between atoms: C_3  and  C_4
REMARK    4  A    between atoms: C_3  and  C_6
REMARK    5  A    between atoms: C_4  and  C_5
REMARK    6  A    between atoms: C_8  and  C_9
REMARK    7  A    between atoms: C_12  and  C_13
REMARK    8  A    between atoms: C_16  and  O_17
REMARK    9  A    between atoms: O_17  and  C_18
REMARK   10  A    between atoms: C_20  and  C_21
REMARK   11  A    between atoms: N_22  and  C_23
REMARK   12  A    between atoms: C_23  and  C_24
REMARK   13  A    between atoms: C_24  and  O_25
REMARK                            x       y       z     vdW  Elec       q    Type
REMARK                         _______ _______ _______ _____ _____    ______ ____
ROOT
ATOM      1  C   UNL     1       3.642   5.820  18.023  0.00  0.00    +0.000 A 
ATOM      2  C   UNL     1       3.367   4.900  19.076  0.00  0.00    +0.000 A 
ATOM      3  C   UNL     1       2.574   5.538  20.008  0.00  0.00    +0.000 A 
ATOM      4  C   UNL     1       2.055   5.016  21.294  0.00  0.00    +0.000 C 
ATOM      5  N   UNL     1       2.311   6.799  19.535  0.00  0.00    +0.000 N 
ATOM      6  N   UNL     1       1.489   7.700  20.092  0.00  0.00    +0.000 NA
ATOM      7  C   UNL     1       1.371   8.866  19.524  0.00  0.00    +0.000 A 
ATOM      8  N   UNL     1       2.135   9.237  18.386  0.00  0.00    +0.000 N 
ATOM      9  C   UNL     1       2.935   8.273  17.738  0.00  0.00    +0.000 A 
ATOM     10  O   UNL     1       3.532   8.497  16.686  0.00  0.00    +0.000 OA
ATOM     11  C   UNL     1       2.995   7.000  18.378  0.00  0.00    +0.000 A 
ENDROOT
BRANCH   7  12
ATOM     12  C   UNL     1       0.343   9.783  20.173  0.00  0.00    +0.000 A 
ATOM     13  C   UNL     1       0.569  10.297  21.458  0.00  0.00    +0.000 A 
ATOM     14  C   UNL     1      -0.333  11.165  22.080  0.00  0.00    +0.000 A 
ATOM     15  C   UNL     1      -1.441  11.642  21.399  0.00  0.00    +0.000 A 
ATOM     16  C   UNL     1      -1.665  11.212  20.099  0.00  0.00    +0.000 A 
ATOM     17  C   UNL     1      -0.784  10.284  19.468  0.00  0.00    +0.000 A 
ATOM     18  C   UNL     1      -1.106   9.945  18.031  0.00  0.00    +0.000 C 
BRANCH  15  19
ATOM     19  O   UNL     1      -2.207  12.522  22.109  0.00  0.00    +0.000 OA
ATOM     20  C   UNL     1      -1.583  13.185  23.199  0.00  0.00    +0.000 C 
ENDBRANCH  15  19
ENDBRANCH   7  12
BRANCH   1  21
ATOM     21  C   UNL     1       4.469   5.557  16.781  0.00  0.00    +0.000 C 
BRANCH  21  23
ATOM     22  C   UNL     1       6.669   6.056  18.020  0.00  0.00    +0.000 C 
ATOM     23  C   UNL     1       5.796   6.348  16.812  0.00  0.00    +0.000 C 
ENDBRANCH  21  23
BRANCH  21  24
ATOM     24  C   UNL     1       4.629   4.044  16.505  0.00  0.00    +0.000 C 
ATOM     25  C   UNL     1       5.700   3.671  15.488  0.00  0.00    +0.000 C 
ENDBRANCH  21  24
ENDBRANCH   1  21
BRANCH   8  26
ATOM     26  C   UNL     1       2.106  10.526  17.661  0.00  0.00    +0.000 C 
BRANCH  26  27
ATOM     27  C   UNL     1       2.404  11.797  18.455  0.00  0.00    +0.000 C 
BRANCH  27  28
ATOM     28  O   UNL     1       2.484  12.905  17.553  0.00  0.00    +0.000 OA
ATOM     29  H   UNL     1       3.415  13.190  17.509  0.00  0.00    +0.000 HD
ENDBRANCH  27  28
ENDBRANCH  26  27
ENDBRANCH   8  26
TORSDOF 8
ENDMDL
MODEL 6
REMARK VINA RESULT:      -5.1      3.081      4.807
REMARK  Name = 
REMARK  13 active torsions:
REMARK  status: ('A' for Active; 'I' for Inactive)
REMARK    1  A    between atoms: C_1  and  C_2
REMARK    2  A    between atoms: C_2  and  C_3
REMARK    3  A    between atoms: C_3  and  C_4
REMARK    4  A    between atoms: C_3  and  C_6
REMARK    5  A    between atoms: C_4  and  C_5
REMARK    6  A    between atoms: C_8  and  C_9
REMARK    7  A    between atoms: C_12  and  C_13
REMARK    8  A    between atoms: C_16  and  O_17
REMARK    9  A    between atoms: O_17  and  C_18
REMARK   10  A    between atoms: C_20  and  C_21
REMARK   11  A    between atoms: N_22  and  C_23
REMARK   12  A    between atoms: C_23  and  C_24
REMARK   13  A    between atoms: C_24  and  O_25
REMARK                            x       y       z     vdW  Elec       q    Type
REMARK                         _______ _______ _______ _____ _____    ______ ____
ROOT
ATOM      1  C   UNL     1      -3.282  13.327  20.441  0.00  0.00    +0.000 A 
ATOM      2  C   UNL     1      -4.232  12.705  19.581  0.00  0.00    +0.000 A 
ATOM      3  C   UNL     1      -3.601  11.671  18.920  0.00  0.00    +0.000 A 
ATOM      4  C   UNL     1      -4.154  10.753  17.896  0.00  0.00    +0.000 C 
ATOM      5  N   UNL     1      -2.312  11.606  19.386  0.00  0.00    +0.000 N 
ATOM      6  N   UNL     1      -1.402  10.672  19.075  0.00  0.00    +0.000 NA
ATOM      7  C   UNL     1      -0.209  10.773  19.589  0.00  0.00    +0.000 A 
ATOM      8  N   UNL     1       0.176  11.871  20.402  0.00  0.00    +0.000 N 
ATOM      9  C   UNL     1      -0.791  12.812  20.809  0.00  0.00    +0.000 A 
ATOM     10  O   UNL     1      -0.549  13.721  21.602  0.00  0.00    +0.000 OA
ATOM     11  C   UNL     1      -2.092  12.631  20.251  0.00  0.00    +0.000 A 
ENDROOT
BRANCH   7  12
ATOM     12  C   UNL     1       0.722   9.615  19.256  0.00  0.00    +0.000 A 
ATOM     13  C   UNL     1       1.419   9.598  18.040  0.00  0.00    +0.000 A 
ATOM     14  C   UNL     1       2.305   8.570  17.705  0.00  0.00    +0.000 A 
ATOM     15  C   UNL     1       2.615   7.577  18.620  0.00  0.00    +0.000 A 
ATOM     16  C   UNL     1       1.999   7.595  19.863  0.00  0.00    +0.000 A 
ATOM     17  C   UNL     1       1.050   8.605  20.201  0.00  0.00    +0.000 A 
ATOM     18  C   UNL     1       0.499   8.546  21.606  0.00  0.00    +0.000 C 
BRANCH  15  19
ATOM     19  O   UNL     1       3.533   6.667  18.179  0.00  0.00    +0.000 OA
ATOM     20  C   UNL     1       4.375   7.069  17.108  0.00  0.00    +0.000 C 
ENDBRANCH  15  19
ENDBRANCH   7  12
BRANCH   1  21
ATOM     21  C   UNL     1      -3.527  14.503  21.365  0.00  0.00    +0.000 C 
BRANCH  21  23
ATOM     22  C   UNL     1      -2.944  16.994  21.644  0.00  0.00    +0.000 C 
ATOM     23  C   UNL     1      -3.165  15.840  20.681  0.00  0.00    +0.000 C 
ENDBRANCH  21  23
BRANCH  21  24
ATOM     24  C   UNL     1      -4.941  14.461  21.987  0.00  0.00    +0.000 C 
ATOM     25  C   UNL     1      -4.989  14.337  23.505  0.00  0.00    +0.000 C 
ENDBRANCH  21  24
ENDBRANCH   1  21
BRANCH   8  26
ATOM     26  C   UNL     1       1.495  12.110  21.030  0.00  0.00    +0.000 C 
BRANCH  26  27
ATOM     27  C   UNL     1       2.310  13.307  20.542  0.00  0.00    +0.000 C 
BRANCH  27  28
ATOM     28  O   UNL     1       2.459  14.240  21.617  0.00  0.00    +0.000 OA
ATOM     29  H   UNL     1       3.351  14.127  21.992  0.00  0.00    +0.000 HD
ENDBRANCH  27  28
ENDBRANCH  26  27
ENDBRANCH   8  26
TORSDOF 8
ENDMDL
MODEL 7
REMARK VINA RESULT:      -5.0      3.137      5.023
REMARK  Name = 
REMARK  13 active torsions:
REMARK  status: ('A' for Active; 'I' for Inactive)
REMARK    1  A    between atoms: C_1  and  C_2
REMARK    2  A    between atoms: C_2  and  C_3
REMARK    3  A    between atoms: C_3  and  C_4
REMARK    4  A    between atoms: C_3  and  C_6
REMARK    5  A    between atoms: C_4  and  C_5
REMARK    6  A    between atoms: C_8  and  C_9
REMARK    7  A    between atoms: C_12  and  C_13
REMARK    8  A    between atoms: C_16  and  O_17
REMARK    9  A    between atoms: O_17  and  C_18
REMARK   10  A    between atoms: C_20  and  C_21
REMARK   11  A    between atoms: N_22  and  C_23
REMARK   12  A    between atoms: C_23  and  C_24
REMARK   13  A    between atoms: C_24  and  O_25
REMARK                            x       y       z     vdW  Elec       q    Type
REMARK                         _______ _______ _______ _____ _____    ______ ____
ROOT
ATOM      1  C   UNL     1      -3.901  13.822  20.730  0.00  0.00    +0.000 A 
ATOM      2  C   UNL     1      -3.135  14.270  21.845  0.00  0.00    +0.000 A 
ATOM      3  C   UNL     1      -2.027  13.455  21.961  0.00  0.00    +0.000 A 
ATOM      4  C   UNL     1      -0.953  13.494  22.981  0.00  0.00    +0.000 C 
ATOM      5  N   UNL     1      -2.061  12.559  20.923  0.00  0.00    +0.000 N 
ATOM      6  N   UNL     1      -1.111  11.665  20.615  0.00  0.00    +0.000 NA
ATOM      7  C   UNL     1      -1.314  10.867  19.606  0.00  0.00    +0.000 A 
ATOM      8  N   UNL     1      -2.530  10.863  18.874  0.00  0.00    +0.000 N 
ATOM      9  C   UNL     1      -3.501  11.853  19.128  0.00  0.00    +0.000 A 
ATOM     10  O   UNL     1      -4.524  11.975  18.456  0.00  0.00    +0.000 OA
ATOM     11  C   UNL     1      -3.209  12.729  20.215  0.00  0.00    +0.000 A 
ENDROOT
BRANCH   7  12
ATOM     12  C   UNL     1      -0.139   9.956  19.275  0.00  0.00    +0.000 A 
ATOM     13  C   UNL     1       0.580  10.136  18.084  0.00  0.00    +0.000 A 
ATOM     14  C   UNL     1       1.682   9.342  17.755  0.00  0.00    +0.000 A 
ATOM     15  C   UNL     1       2.179   8.412  18.653  0.00  0.00    +0.000 A 
ATOM     16  C   UNL     1       1.538   8.250  19.873  0.00  0.00    +0.000 A 
ATOM     17  C   UNL     1       0.379   9.013  20.203  0.00  0.00    +0.000 A 
ATOM     18  C   UNL     1      -0.186   8.785  21.586  0.00  0.00    +0.000 C 
BRANCH  15  19
ATOM     19  O   UNL     1       3.289   7.744  18.221  0.00  0.00    +0.000 OA
ATOM     20  C   UNL     1       3.239   6.325  18.252  0.00  0.00    +0.000 C 
ENDBRANCH  15  19
ENDBRANCH   7  12
BRANCH   1  21
ATOM     21  C   UNL     1      -5.197  14.419  20.220  0.00  0.00    +0.000 C 
BRANCH  21  23
ATOM     22  C   UNL     1      -7.428  13.161  19.969  0.00  0.00    +0.000 C 
ATOM     23  C   UNL     1      -6.421  13.785  20.919  0.00  0.00    +0.000 C 
ENDBRANCH  21  23
BRANCH  21  24
ATOM     24  C   UNL     1      -5.170  15.964  20.248  0.00  0.00    +0.000 C 
ATOM     25  C   UNL     1      -6.530  16.646  20.188  0.00  0.00    +0.000 C 
ENDBRANCH  21  24
ENDBRANCH   1  21
BRANCH   8  26
ATOM     26  C   UNL     1      -2.889  10.002  17.725  0.00  0.00    +0.000 C 
BRANCH  26  27
ATOM     27  C   UNL     1      -2.624  10.541  16.320  0.00  0.00    +0.000 C 
BRANCH  27  28
ATOM     28  O   UNL     1      -2.034  11.841  16.422  0.00  0.00    +0.000 OA
ATOM     29  H   UNL     1      -1.184  11.823  15.945  0.00  0.00    +0.000 HD
ENDBRANCH  27  28
ENDBRANCH  26  27
ENDBRANCH   8  26
TORSDOF 8
ENDMDL
MODEL 8
REMARK VINA RESULT:      -5.0      2.842      6.623
REMARK  Name = 
REMARK  13 active torsions:
REMARK  status: ('A' for Active; 'I' for Inactive)
REMARK    1  A    between atoms: C_1  and  C_2
REMARK    2  A    between atoms: C_2  and  C_3
REMARK    3  A    between atoms: C_3  and  C_4
REMARK    4  A    between atoms: C_3  and  C_6
REMARK    5  A    between atoms: C_4  and  C_5
REMARK    6  A    between atoms: C_8  and  C_9
REMARK    7  A    between atoms: C_12  and  C_13
REMARK    8  A    between atoms: C_16  and  O_17
REMARK    9  A    between atoms: O_17  and  C_18
REMARK   10  A    between atoms: C_20  and  C_21
REMARK   11  A    between atoms: N_22  and  C_23
REMARK   12  A    between atoms: C_23  and  C_24
REMARK   13  A    between atoms: C_24  and  O_25
REMARK                            x       y       z     vdW  Elec       q    Type
REMARK                         _______ _______ _______ _____ _____    ______ ____
ROOT
ATOM      1  C   UNL     1      -0.175  10.715  18.893  0.00  0.00    +0.000 A 
ATOM      2  C   UNL     1      -1.064  10.435  17.816  0.00  0.00    +0.000 A 
ATOM      3  C   UNL     1      -2.295  10.981  18.121  0.00  0.00    +0.000 A 
ATOM      4  C   UNL     1      -3.551  10.926  17.337  0.00  0.00    +0.000 C 
ATOM      5  N   UNL     1      -2.173  11.630  19.323  0.00  0.00    +0.000 N 
ATOM      6  N   UNL     1      -3.112  12.380  19.919  0.00  0.00    +0.000 NA
ATOM      7  C   UNL     1      -2.840  12.909  21.077  0.00  0.00    +0.000 A 
ATOM      8  N   UNL     1      -1.620  12.658  21.759  0.00  0.00    +0.000 N 
ATOM      9  C   UNL     1      -0.591  11.947  21.109  0.00  0.00    +0.000 A 
ATOM     10  O   UNL     1       0.528  11.793  21.598  0.00  0.00    +0.000 OA
ATOM     11  C   UNL     1      -0.926  11.427  19.824  0.00  0.00    +0.000 A 
ENDROOT
BRANCH   7  12
ATOM     12  C   UNL     1      -3.929  13.821  21.626  0.00  0.00    +0.000 A 
ATOM     13  C   UNL     1      -4.908  13.310  22.491  0.00  0.00    +0.000 A 
ATOM     14  C   UNL     1      -5.908  14.115  23.040  0.00  0.00    +0.000 A 
ATOM     15  C   UNL     1      -5.905  15.486  22.838  0.00  0.00    +0.000 A 
ATOM     16  C   UNL     1      -4.912  16.043  22.044  0.00  0.00    +0.000 A 
ATOM     17  C   UNL     1      -3.915  15.228  21.429  0.00  0.00    +0.000 A 
ATOM     18  C   UNL     1      -2.858  15.965  20.641  0.00  0.00    +0.000 C 
BRANCH  15  19
ATOM     19  O   UNL     1      -6.910  16.156  23.475  0.00  0.00    +0.000 OA
ATOM     20  C   UNL     1      -6.720  17.547  23.691  0.00  0.00    +0.000 C 
ENDBRANCH  15  19
ENDBRANCH   7  12
BRANCH   1  21
ATOM     21  C   UNL     1       1.284  10.315  18.993  0.00  0.00    +0.000 C 
BRANCH  21  23
ATOM     22  C   UNL     1       2.442   8.413  17.704  0.00  0.00    +0.000 C 
ATOM     23  C   UNL     1       1.463   8.793  18.802  0.00  0.00    +0.000 C 
ENDBRANCH  21  23
BRANCH  21  24
ATOM     24  C   UNL     1       2.183  11.188  18.089  0.00  0.00    +0.000 C 
ATOM     25  C   UNL     1       2.249  12.665  18.455  0.00  0.00    +0.000 C 
ENDBRANCH  21  24
ENDBRANCH   1  21
BRANCH   8  26
ATOM     26  C   UNL     1      -1.198  13.182  23.077  0.00  0.00    +0.000 C 
BRANCH  26  27
ATOM     27  C   UNL     1      -0.696  14.624  23.143  0.00  0.00    +0.000 C 
BRANCH  27  28
ATOM     28  O   UNL     1      -1.244  15.257  24.303  0.00  0.00    +0.000 OA
ATOM     29  H   UNL     1      -1.646  16.100  24.024  0.00  0.00    +0.000 HD
ENDBRANCH  27  28
ENDBRANCH  26  27
ENDBRANCH   8  26
TORSDOF 8
ENDMDL
MODEL 9
REMARK VINA RESULT:      -5.0      5.288      7.765
REMARK  Name = 
REMARK  13 active torsions:
REMARK  status: ('A' for Active; 'I' for Inactive)
REMARK    1  A    between atoms: C_1  and  C_2
REMARK    2  A    between atoms: C_2  and  C_3
REMARK    3  A    between atoms: C_3  and  C_4
REMARK    4  A    between atoms: C_3  and  C_6
REMARK    5  A    between atoms: C_4  and  C_5
REMARK    6  A    between atoms: C_8  and  C_9
REMARK    7  A    between atoms: C_12  and  C_13
REMARK    8  A    between atoms: C_16  and  O_17
REMARK    9  A    between atoms: O_17  and  C_18
REMARK   10  A    between atoms: C_20  and  C_21
REMARK   11  A    between atoms: N_22  and  C_23
REMARK   12  A    between atoms: C_23  and  C_24
REMARK   13  A    between atoms: C_24  and  O_25
REMARK                            x       y       z     vdW  Elec       q    Type
REMARK                         _______ _______ _______ _____ _____    ______ ____
ROOT
ATOM      1  C   UNL     1       3.185   5.527  19.280  0.00  0.00    +0.000 A 
ATOM      2  C   UNL     1       3.933   5.690  18.078  0.00  0.00    +0.000 A 
ATOM      3  C   UNL     1       3.632   6.929  17.549  0.00  0.00    +0.000 A 
ATOM      4  C   UNL     1       4.125   7.543  16.294  0.00  0.00    +0.000 C 
ATOM      5  N   UNL     1       2.769   7.550  18.415  0.00  0.00    +0.000 N 
ATOM      6  N   UNL     1       2.320   8.810  18.321  0.00  0.00    +0.000 NA
ATOM      7  C   UNL     1       1.480   9.239  19.219  0.00  0.00    +0.000 A 
ATOM      8  N   UNL     1       0.970   8.398  20.243  0.00  0.00    +0.000 N 
ATOM      9  C   UNL     1       1.497   7.101  20.408  0.00  0.00    +0.000 A 
ATOM     10  O   UNL     1       1.181   6.364  21.342  0.00  0.00    +0.000 OA
ATOM     11  C   UNL     1       2.446   6.697  19.423  0.00  0.00    +0.000 A 
ENDROOT
BRANCH   7  12
ATOM     12  C   UNL     1       1.106  10.709  19.083  0.00  0.00    +0.000 A 
ATOM     13  C   UNL     1       2.058  11.706  19.342  0.00  0.00    +0.000 A 
ATOM     14  C   UNL     1       1.766  13.065  19.202  0.00  0.00    +0.000 A 
ATOM     15  C   UNL     1       0.547  13.479  18.690  0.00  0.00    +0.000 A 
ATOM     16  C   UNL     1      -0.400  12.521  18.356  0.00  0.00    +0.000 A 
ATOM     17  C   UNL     1      -0.139  11.131  18.544  0.00  0.00    +0.000 A 
ATOM     18  C   UNL     1      -1.228  10.190  18.083  0.00  0.00    +0.000 C 
BRANCH  15  19
ATOM     19  O   UNL     1       0.417  14.832  18.560  0.00  0.00    +0.000 OA
ATOM     20  C   UNL     1      -0.373  15.500  19.533  0.00  0.00    +0.000 C 
ENDBRANCH  15  19
ENDBRANCH   7  12
BRANCH   1  21
ATOM     21  C   UNL     1       3.200   4.325  20.202  0.00  0.00    +0.000 C 
BRANCH  21  23
ATOM     22  C   UNL     1       1.583   2.824  21.528  0.00  0.00    +0.000 C 
ATOM     23  C   UNL     1       1.808   3.658  20.278  0.00  0.00    +0.000 C 
ENDBRANCH  21  23
BRANCH  21  24
ATOM     24  C   UNL     1       4.359   3.358  19.869  0.00  0.00    +0.000 C 
ATOM     25  C   UNL     1       4.005   2.202  18.942  0.00  0.00    +0.000 C 
ENDBRANCH  21  24
ENDBRANCH   1  21
BRANCH   8  26
ATOM     26  C   UNL     1       0.006   8.755  21.307  0.00  0.00    +0.000 C 
BRANCH  26  27
ATOM     27  C   UNL     1       0.509   9.618  22.464  0.00  0.00    +0.000 C 
BRANCH  27  28
ATOM     28  O   UNL     1       1.843   9.223  22.797  0.00  0.00    +0.000 OA
ATOM     29  H   UNL     1       2.330  10.017  23.081  0.00  0.00    +0.000 HD
ENDBRANCH  27  28
ENDBRANCH  26  27
ENDBRANCH   8  26
TORSDOF 8
ENDMDL
