MODEL 1
REMARK VINA RESULT:      -6.9      0.000      0.000
REMARK  Name = 
REMARK  3 active torsions:
REMARK  status: ('A' for Active; 'I' for Inactive)
REMARK    1  A    between atoms: N_3  and  C_4
REMARK    2  A    between atoms: C_4  and  C_5
REMARK    3  A    between atoms: N_11  and  C_12
REMARK                            x       y       z     vdW  Elec       q    Type
REMARK                         _______ _______ _______ _____ _____    ______ ____
ROOT
ATOM      1  O   UNL     1       1.595   6.576  18.183  0.00  0.00    +0.000 OA
ATOM      2  C   UNL     1       1.973   6.404  19.336  0.00  0.00    +0.000 C 
ATOM      3  N   UNL     1       2.088   7.407  20.252  0.00  0.00    +0.000 N 
ATOM      4  N   UNL     1       2.255   5.175  19.877  0.00  0.00    +0.000 N 
ATOM      5  H   UNL     1       2.395   7.197  21.188  0.00  0.00    +0.000 HD
ATOM      6  H   UNL     1       2.982   5.180  20.578  0.00  0.00    +0.000 HD
ENDROOT
BRANCH   4   7
ATOM      7  C   UNL     1       2.185   3.966  19.052  0.00  0.00    +0.000 C 
ATOM      8  C   UNL     1       2.376   2.714  19.923  0.00  0.00    +0.000 C 
ATOM      9  C   UNL     1       3.829   2.520  20.369  0.00  0.00    +0.000 C 
ATOM     10  C   UNL     1       4.789   2.544  19.181  0.00  0.00    +0.000 C 
ATOM     11  N   UNL     1       4.559   3.751  18.405  0.00  0.00    +0.000 N 
ATOM     12  C   UNL     1       5.526   4.716  18.287  0.00  0.00    +0.000 A 
ATOM     13  N   UNL     1       6.720   4.518  18.873  0.00  0.00    +0.000 NA
ATOM     14  C   UNL     1       7.655   5.479  18.743  0.00  0.00    +0.000 A 
ATOM     15  C   UNL     1       7.449   6.644  18.053  0.00  0.00    +0.000 A 
ATOM     16  C   UNL     1       6.209   6.769  17.490  0.00  0.00    +0.000 A 
ATOM     17  N   UNL     1       5.250   5.830  17.594  0.00  0.00    +0.000 NA
ATOM     18  C   UNL     1       3.208   3.977  17.890  0.00  0.00    +0.000 C 
ENDBRANCH   4   7
BRANCH   3  19
ATOM     19  C   UNL     1       1.838   8.795  19.915  0.00  0.00    +0.000 C 
BRANCH  19  20
ATOM     20  C   UNL     1       0.942   9.485  20.920  0.00  0.00    +0.000 A 
ATOM     21  C   UNL     1       0.733   8.911  22.174  0.00  0.00    +0.000 A 
ATOM     22  C   UNL     1      -0.100   9.555  23.082  0.00  0.00    +0.000 A 
ATOM     23  C   UNL     1      -0.708  10.749  22.718  0.00  0.00    +0.000 A 
ATOM     24  C   UNL     1      -0.455  11.252  21.453  0.00  0.00    +0.000 A 
ATOM     25  N   UNL     1       0.351  10.649  20.546  0.00  0.00    +0.000 NA
ENDBRANCH  19  20
ENDBRANCH   3  19
TORSDOF 3
ENDMDL
MODEL 2
REMARK VINA RESULT:      -6.9      1.354      1.777
REMARK  Name = 
REMARK  3 active torsions:
REMARK  status: ('A' for Active; 'I' for Inactive)
REMARK    1  A    between atoms: N_3  and  C_4
REMARK    2  A    between atoms: C_4  and  C_5
REMARK    3  A    between atoms: N_11  and  C_12
REMARK                            x       y       z     vdW  Elec       q    Type
REMARK                         _______ _______ _______ _____ _____    ______ ____
ROOT
ATOM      1  O   UNL     1       0.211   6.958  20.915  0.00  0.00    +0.000 OA
ATOM      2  C   UNL     1       1.402   7.238  20.838  0.00  0.00    +0.000 C 
ATOM      3  N   UNL     1       1.969   8.312  21.458  0.00  0.00    +0.000 N 
ATOM      4  N   UNL     1       2.330   6.471  20.181  0.00  0.00    +0.000 N 
ATOM      5  H   UNL     1       2.957   8.480  21.362  0.00  0.00    +0.000 HD
ATOM      6  H   UNL     1       3.090   6.990  19.766  0.00  0.00    +0.000 HD
ENDROOT
BRANCH   4   7
ATOM      7  C   UNL     1       1.919   5.268  19.452  0.00  0.00    +0.000 C 
ATOM      8  C   UNL     1       1.893   4.055  20.397  0.00  0.00    +0.000 C 
ATOM      9  C   UNL     1       3.296   3.553  20.753  0.00  0.00    +0.000 C 
ATOM     10  C   UNL     1       4.133   3.290  19.503  0.00  0.00    +0.000 C 
ATOM     11  N   UNL     1       4.118   4.473  18.660  0.00  0.00    +0.000 N 
ATOM     12  C   UNL     1       5.266   5.180  18.406  0.00  0.00    +0.000 A 
ATOM     13  N   UNL     1       6.429   4.743  18.920  0.00  0.00    +0.000 NA
ATOM     14  C   UNL     1       7.543   5.453  18.656  0.00  0.00    +0.000 A 
ATOM     15  C   UNL     1       7.550   6.594  17.900  0.00  0.00    +0.000 A 
ATOM     16  C   UNL     1       6.327   6.972  17.417  0.00  0.00    +0.000 A 
ATOM     17  N   UNL     1       5.192   6.288  17.655  0.00  0.00    +0.000 NA
ATOM     18  C   UNL     1       2.815   4.979  18.225  0.00  0.00    +0.000 C 
ENDBRANCH   4   7
BRANCH   3  19
ATOM     19  C   UNL     1       1.187   9.269  22.217  0.00  0.00    +0.000 C 
BRANCH  19  20
ATOM     20  C   UNL     1       0.685  10.414  21.365  0.00  0.00    +0.000 A 
ATOM     21  C   UNL     1      -0.473  10.259  20.604  0.00  0.00    +0.000 A 
ATOM     22  C   UNL     1      -0.916  11.320  19.821  0.00  0.00    +0.000 A 
ATOM     23  C   UNL     1      -0.191  12.504  19.810  0.00  0.00    +0.000 A 
ATOM     24  C   UNL     1       0.952  12.578  20.588  0.00  0.00    +0.000 A 
ATOM     25  N   UNL     1       1.409  11.564  21.362  0.00  0.00    +0.000 NA
ENDBRANCH  19  20
ENDBRANCH   3  19
TORSDOF 3
ENDMDL
MODEL 3
REMARK VINA RESULT:      -6.8      0.608      1.008
REMARK  Name = 
REMARK  3 active torsions:
REMARK  status: ('A' for Active; 'I' for Inactive)
REMARK    1  A    between atoms: N_3  and  C_4
REMARK    2  A    between atoms: C_4  and  C_5
REMARK    3  A    between atoms: N_11  and  C_12
REMARK                            x       y       z     vdW  Elec       q    Type
REMARK                         _______ _______ _______ _____ _____    ______ ____
ROOT
ATOM      1  O   UNL     1       1.633   6.387  18.282  0.00  0.00    +0.000 OA
ATOM      2  C   UNL     1       1.992   6.235  19.444  0.00  0.00    +0.000 C 
ATOM      3  N   UNL     1       2.098   7.254  20.344  0.00  0.00    +0.000 N 
ATOM      4  N   UNL     1       2.262   5.016  20.011  0.00  0.00    +0.000 N 
ATOM      5  H   UNL     1       2.389   7.060  21.288  0.00  0.00    +0.000 HD
ATOM      6  H   UNL     1       2.978   5.031  20.723  0.00  0.00    +0.000 HD
ENDROOT
BRANCH   4   7
ATOM      7  C   UNL     1       2.200   3.792  19.207  0.00  0.00    +0.000 C 
ATOM      8  C   UNL     1       2.458   2.561  20.090  0.00  0.00    +0.000 C 
ATOM      9  C   UNL     1       3.931   2.416  20.488  0.00  0.00    +0.000 C 
ATOM     10  C   UNL     1       4.848   2.449  19.267  0.00  0.00    +0.000 C 
ATOM     11  N   UNL     1       4.555   3.637  18.482  0.00  0.00    +0.000 N 
ATOM     12  C   UNL     1       5.489   4.628  18.316  0.00  0.00    +0.000 A 
ATOM     13  N   UNL     1       6.708   4.475  18.863  0.00  0.00    +0.000 NA
ATOM     14  C   UNL     1       7.607   5.461  18.685  0.00  0.00    +0.000 A 
ATOM     15  C   UNL     1       7.344   6.608  17.985  0.00  0.00    +0.000 A 
ATOM     16  C   UNL     1       6.081   6.687  17.464  0.00  0.00    +0.000 A 
ATOM     17  N   UNL     1       5.155   5.722  17.616  0.00  0.00    +0.000 NA
ATOM     18  C   UNL     1       3.181   3.815  18.011  0.00  0.00    +0.000 C 
ENDBRANCH   4   7
BRANCH   3  19
ATOM     19  C   UNL     1       1.858   8.637  19.978  0.00  0.00    +0.000 C 
BRANCH  19  20
ATOM     20  C   UNL     1       0.925   9.339  20.940  0.00  0.00    +0.000 A 
ATOM     21  C   UNL     1       0.161  10.421  20.503  0.00  0.00    +0.000 A 
ATOM     22  C   UNL     1      -0.685  11.060  21.404  0.00  0.00    +0.000 A 
ATOM     23  C   UNL     1      -0.744  10.610  22.716  0.00  0.00    +0.000 A 
ATOM     24  C   UNL     1       0.050   9.533  23.074  0.00  0.00    +0.000 A 
ATOM     25  N   UNL     1       0.883   8.890  22.221  0.00  0.00    +0.000 NA
ENDBRANCH  19  20
ENDBRANCH   3  19
TORSDOF 3
ENDMDL
MODEL 4
REMARK VINA RESULT:      -6.8      6.670      9.858
REMARK  Name = 
REMARK  3 active torsions:
REMARK  status: ('A' for Active; 'I' for Inactive)
REMARK    1  A    between atoms: N_3  and  C_4
REMARK    2  A    between atoms: C_4  and  C_5
REMARK    3  A    between atoms: N_11  and  C_12
REMARK                            x       y       z     vdW  Elec       q    Type
REMARK                         _______ _______ _______ _____ _____    ______ ____
ROOT
ATOM      1  O   UNL     1      -3.458  13.849  21.723  0.00  0.00    +0.000 OA
ATOM      2  C   UNL     1      -3.926  12.812  22.178  0.00  0.00    +0.000 C 
ATOM      3  N   UNL     1      -3.262  11.999  23.049  0.00  0.00    +0.000 N 
ATOM      4  N   UNL     1      -5.202  12.373  21.933  0.00  0.00    +0.000 N 
ATOM      5  H   UNL     1      -3.708  11.166  23.394  0.00  0.00    +0.000 HD
ATOM      6  H   UNL     1      -5.307  11.369  21.915  0.00  0.00    +0.000 HD
ENDROOT
BRANCH   4   7
ATOM      7  C   UNL     1      -6.081  13.113  21.022  0.00  0.00    +0.000 C 
ATOM      8  C   UNL     1      -7.436  12.399  20.893  0.00  0.00    +0.000 C 
ATOM      9  C   UNL     1      -7.357  11.129  20.040  0.00  0.00    +0.000 C 
ATOM     10  C   UNL     1      -6.720  11.405  18.679  0.00  0.00    +0.000 C 
ATOM     11  N   UNL     1      -5.445  12.074  18.875  0.00  0.00    +0.000 N 
ATOM     12  C   UNL     1      -4.266  11.480  18.503  0.00  0.00    +0.000 A 
ATOM     13  N   UNL     1      -4.301  10.271  17.914  0.00  0.00    +0.000 NA
ATOM     14  C   UNL     1      -3.130   9.709  17.558  0.00  0.00    +0.000 A 
ATOM     15  C   UNL     1      -1.913  10.299  17.768  0.00  0.00    +0.000 A 
ATOM     16  C   UNL     1      -1.964  11.525  18.374  0.00  0.00    +0.000 A 
ATOM     17  N   UNL     1      -3.113  12.122  18.742  0.00  0.00    +0.000 NA
ATOM     18  C   UNL     1      -5.447  13.329  19.627  0.00  0.00    +0.000 C 
ENDBRANCH   4   7
BRANCH   3  19
ATOM     19  C   UNL     1      -1.896  12.260  23.462  0.00  0.00    +0.000 C 
BRANCH  19  20
ATOM     20  C   UNL     1      -0.896  11.378  22.749  0.00  0.00    +0.000 A 
ATOM     21  C   UNL     1      -0.744  10.046  23.134  0.00  0.00    +0.000 A 
ATOM     22  C   UNL     1       0.187   9.252  22.472  0.00  0.00    +0.000 A 
ATOM     23  C   UNL     1       0.946   9.804  21.450  0.00  0.00    +0.000 A 
ATOM     24  C   UNL     1       0.741  11.136  21.130  0.00  0.00    +0.000 A 
ATOM     25  N   UNL     1      -0.156  11.935  21.754  0.00  0.00    +0.000 NA
ENDBRANCH  19  20
ENDBRANCH   3  19
TORSDOF 3
ENDMDL
MODEL 5
REMARK VINA RESULT:      -6.8      6.404      9.809
REMARK  Name = 
REMARK  3 active torsions:
REMARK  status: ('A' for Active; 'I' for Inactive)
REMARK    1  A    between atoms: N_3  and  C_4
REMARK    2  A    between atoms: C_4  and  C_5
REMARK    3  A    between atoms: N_11  and  C_12
REMARK                            x       y       z     vdW  Elec       q    Type
REMARK                         _______ _______ _______ _____ _____    ______ ____
ROOT
ATOM      1  O   UNL     1      -3.267  13.832  21.499  0.00  0.00    +0.000 OA
ATOM      2  C   UNL     1      -3.698  12.800  22.000  0.00  0.00    +0.000 C 
ATOM      3  N   UNL     1      -2.975  12.007  22.842  0.00  0.00    +0.000 N 
ATOM      4  N   UNL     1      -4.983  12.346  21.840  0.00  0.00    +0.000 N 
ATOM      5  H   UNL     1      -3.392  11.176  23.228  0.00  0.00    +0.000 HD
ATOM      6  H   UNL     1      -5.080  11.341  21.846  0.00  0.00    +0.000 HD
ENDROOT
BRANCH   4   7
ATOM      7  C   UNL     1      -5.922  13.063  20.973  0.00  0.00    +0.000 C 
ATOM      8  C   UNL     1      -7.280  12.344  20.947  0.00  0.00    +0.000 C 
ATOM      9  C   UNL     1      -7.251  11.055  20.120  0.00  0.00    +0.000 C 
ATOM     10  C   UNL     1      -6.706  11.302  18.714  0.00  0.00    +0.000 C 
ATOM     11  N   UNL     1      -5.423  11.978  18.812  0.00  0.00    +0.000 N 
ATOM     12  C   UNL     1      -4.268  11.379  18.377  0.00  0.00    +0.000 A 
ATOM     13  N   UNL     1      -4.336  10.157  17.819  0.00  0.00    +0.000 NA
ATOM     14  C   UNL     1      -3.189   9.590  17.400  0.00  0.00    +0.000 A 
ATOM     15  C   UNL     1      -1.963  10.188  17.517  0.00  0.00    +0.000 A 
ATOM     16  C   UNL     1      -1.980  11.426  18.098  0.00  0.00    +0.000 A 
ATOM     17  N   UNL     1      -3.104  12.029  18.527  0.00  0.00    +0.000 NA
ATOM     18  C   UNL     1      -5.381  13.250  19.535  0.00  0.00    +0.000 C 
ENDBRANCH   4   7
BRANCH   3  19
ATOM     19  C   UNL     1      -1.589  12.285  23.166  0.00  0.00    +0.000 C 
BRANCH  19  20
ATOM     20  C   UNL     1      -0.641  11.252  22.598  0.00  0.00    +0.000 A 
ATOM     21  C   UNL     1      -0.234  11.340  21.267  0.00  0.00    +0.000 A 
ATOM     22  C   UNL     1       0.632  10.376  20.759  0.00  0.00    +0.000 A 
ATOM     23  C   UNL     1       1.064   9.348  21.586  0.00  0.00    +0.000 A 
ATOM     24  C   UNL     1       0.610   9.327  22.894  0.00  0.00    +0.000 A 
ATOM     25  N   UNL     1      -0.232  10.250  23.419  0.00  0.00    +0.000 NA
ENDBRANCH  19  20
ENDBRANCH   3  19
TORSDOF 3
ENDMDL
MODEL 6
REMARK VINA RESULT:      -6.7      1.317      1.760
REMARK  Name = 
REMARK  3 active torsions:
REMARK  status: ('A' for Active; 'I' for Inactive)
REMARK    1  A    between atoms: N_3  and  C_4
REMARK    2  A    between atoms: C_4  and  C_5
REMARK    3  A    between atoms: N_11  and  C_12
REMARK                            x       y       z     vdW  Elec       q    Type
REMARK                         _______ _______ _______ _____ _____    ______ ____
ROOT
ATOM      1  O   UNL     1       1.946   6.553  17.489  0.00  0.00    +0.000 OA
ATOM      2  C   UNL     1       2.040   6.603  18.710  0.00  0.00    +0.000 C 
ATOM      3  N   UNL     1       2.077   7.766  19.420  0.00  0.00    +0.000 N 
ATOM      4  N   UNL     1       2.046   5.500  19.525  0.00  0.00    +0.000 N 
ATOM      5  H   UNL     1       2.144   7.737  20.424  0.00  0.00    +0.000 HD
ATOM      6  H   UNL     1       2.598   5.598  20.365  0.00  0.00    +0.000 HD
ENDROOT
BRANCH   4   7
ATOM      7  C   UNL     1       2.009   4.151  18.952  0.00  0.00    +0.000 C 
ATOM      8  C   UNL     1       2.070   3.096  20.068  0.00  0.00    +0.000 C 
ATOM      9  C   UNL     1       3.466   2.968  20.686  0.00  0.00    +0.000 C 
ATOM     10  C   UNL     1       4.534   2.737  19.618  0.00  0.00    +0.000 C 
ATOM     11  N   UNL     1       4.423   3.769  18.601  0.00  0.00    +0.000 N 
ATOM     12  C   UNL     1       5.433   4.673  18.392  0.00  0.00    +0.000 A 
ATOM     13  N   UNL     1       6.558   4.575  19.122  0.00  0.00    +0.000 NA
ATOM     14  C   UNL     1       7.536   5.474  18.898  0.00  0.00    +0.000 A 
ATOM     15  C   UNL     1       7.440   6.481  17.975  0.00  0.00    +0.000 A 
ATOM     16  C   UNL     1       6.264   6.513  17.277  0.00  0.00    +0.000 A 
ATOM     17  N   UNL     1       5.265   5.631  17.468  0.00  0.00    +0.000 NA
ATOM     18  C   UNL     1       3.136   3.912  17.919  0.00  0.00    +0.000 C 
ENDBRANCH   4   7
BRANCH   3  19
ATOM     19  C   UNL     1       2.078   9.066  18.776  0.00  0.00    +0.000 C 
BRANCH  19  20
ATOM     20  C   UNL     1       0.760   9.792  18.931  0.00  0.00    +0.000 A 
ATOM     21  C   UNL     1      -0.200   9.713  17.922  0.00  0.00    +0.000 A 
ATOM     22  C   UNL     1      -1.403  10.394  18.078  0.00  0.00    +0.000 A 
ATOM     23  C   UNL     1      -1.617  11.140  19.230  0.00  0.00    +0.000 A 
ATOM     24  C   UNL     1      -0.613  11.173  20.183  0.00  0.00    +0.000 A 
ATOM     25  N   UNL     1       0.569  10.522  20.061  0.00  0.00    +0.000 NA
ENDBRANCH  19  20
ENDBRANCH   3  19
TORSDOF 3
ENDMDL
MODEL 7
REMARK VINA RESULT:      -6.7      5.021     10.669
REMARK  Name = 
REMARK  3 active torsions:
REMARK  status: ('A' for Active; 'I' for Inactive)
REMARK    1  A    between atoms: N_3  and  C_4
REMARK    2  A    between atoms: C_4  and  C_5
REMARK    3  A    between atoms: N_11  and  C_12
REMARK                            x       y       z     vdW  Elec       q    Type
REMARK                         _______ _______ _______ _____ _____    ______ ____
ROOT
ATOM      1  O   UNL     1      -0.387  12.527  23.024  0.00  0.00    +0.000 OA
ATOM      2  C   UNL     1      -1.232  11.683  22.750  0.00  0.00    +0.000 C 
ATOM      3  N   UNL     1      -0.936  10.392  22.423  0.00  0.00    +0.000 N 
ATOM      4  N   UNL     1      -2.585  11.903  22.808  0.00  0.00    +0.000 N 
ATOM      5  H   UNL     1      -1.679   9.745  22.218  0.00  0.00    +0.000 HD
ATOM      6  H   UNL     1      -3.127  11.382  22.134  0.00  0.00    +0.000 HD
ENDROOT
BRANCH   4   7
ATOM      7  C   UNL     1      -3.108  13.229  23.146  0.00  0.00    +0.000 C 
ATOM      8  C   UNL     1      -3.791  13.198  24.523  0.00  0.00    +0.000 C 
ATOM      9  C   UNL     1      -5.151  12.493  24.492  0.00  0.00    +0.000 C 
ATOM     10  C   UNL     1      -6.062  13.076  23.413  0.00  0.00    +0.000 C 
ATOM     11  N   UNL     1      -5.358  13.071  22.142  0.00  0.00    +0.000 N 
ATOM     12  C   UNL     1      -5.796  12.310  21.088  0.00  0.00    +0.000 A 
ATOM     13  N   UNL     1      -6.919  11.584  21.230  0.00  0.00    +0.000 NA
ATOM     14  C   UNL     1      -7.330  10.844  20.182  0.00  0.00    +0.000 A 
ATOM     15  C   UNL     1      -6.663  10.790  18.988  0.00  0.00    +0.000 A 
ATOM     16  C   UNL     1      -5.530  11.555  18.926  0.00  0.00    +0.000 A 
ATOM     17  N   UNL     1      -5.088  12.310  19.949  0.00  0.00    +0.000 NA
ATOM     18  C   UNL     1      -4.078  13.778  22.073  0.00  0.00    +0.000 C 
ENDBRANCH   4   7
BRANCH   3  19
ATOM     19  C   UNL     1       0.430   9.920  22.301  0.00  0.00    +0.000 C 
BRANCH  19  20
ATOM     20  C   UNL     1       0.808   9.600  20.871  0.00  0.00    +0.000 A 
ATOM     21  C   UNL     1       1.500   8.424  20.581  0.00  0.00    +0.000 A 
ATOM     22  C   UNL     1       1.847   8.150  19.262  0.00  0.00    +0.000 A 
ATOM     23  C   UNL     1       1.502   9.056  18.268  0.00  0.00    +0.000 A 
ATOM     24  C   UNL     1       0.820  10.203  18.636  0.00  0.00    +0.000 A 
ATOM     25  N   UNL     1       0.469  10.499  19.911  0.00  0.00    +0.000 NA
ENDBRANCH  19  20
ENDBRANCH   3  19
TORSDOF 3
ENDMDL
MODEL 8
REMARK VINA RESULT:      -6.7      4.287     10.402
REMARK  Name = 
REMARK  3 active torsions:
REMARK  status: ('A' for Active; 'I' for Inactive)
REMARK    1  A    between atoms: N_3  and  C_4
REMARK    2  A    between atoms: C_4  and  C_5
REMARK    3  A    between atoms: N_11  and  C_12
REMARK                            x       y       z     vdW  Elec       q    Type
REMARK                         _______ _______ _______ _____ _____    ______ ____
ROOT
ATOM      1  O   UNL     1       0.219  12.175  22.220  0.00  0.00    +0.000 OA
ATOM      2  C   UNL     1      -0.679  11.433  21.840  0.00  0.00    +0.000 C 
ATOM      3  N   UNL     1      -0.501  10.109  21.562  0.00  0.00    +0.000 N 
ATOM      4  N   UNL     1      -1.991  11.814  21.716  0.00  0.00    +0.000 N 
ATOM      5  H   UNL     1      -1.283   9.551  21.264  0.00  0.00    +0.000 HD
ATOM      6  H   UNL     1      -2.498  11.347  20.977  0.00  0.00    +0.000 HD
ENDROOT
BRANCH   4   7
ATOM      7  C   UNL     1      -2.389  13.200  21.973  0.00  0.00    +0.000 C 
ATOM      8  C   UNL     1      -2.799  13.372  23.445  0.00  0.00    +0.000 C 
ATOM      9  C   UNL     1      -4.166  12.753  23.754  0.00  0.00    +0.000 C 
ATOM     10  C   UNL     1      -5.242  13.260  22.796  0.00  0.00    +0.000 C 
ATOM     11  N   UNL     1      -4.793  13.064  21.428  0.00  0.00    +0.000 N 
ATOM     12  C   UNL     1      -5.452  12.213  20.578  0.00  0.00    +0.000 A 
ATOM     13  N   UNL     1      -6.555  11.578  21.015  0.00  0.00    +0.000 NA
ATOM     14  C   UNL     1      -7.185  10.748  20.162  0.00  0.00    +0.000 A 
ATOM     15  C   UNL     1      -6.759  10.514  18.882  0.00  0.00    +0.000 A 
ATOM     16  C   UNL     1      -5.630  11.195  18.516  0.00  0.00    +0.000 A 
ATOM     17  N   UNL     1      -4.974  12.036  19.337  0.00  0.00    +0.000 NA
ATOM     18  C   UNL     1      -3.524  13.678  21.036  0.00  0.00    +0.000 C 
ENDBRANCH   4   7
BRANCH   3  19
ATOM     19  C   UNL     1       0.802   9.474  21.626  0.00  0.00    +0.000 C 
BRANCH  19  20
ATOM     20  C   UNL     1       1.293   9.018  20.270  0.00  0.00    +0.000 A 
ATOM     21  C   UNL     1       1.105   9.831  19.153  0.00  0.00    +0.000 A 
ATOM     22  C   UNL     1       1.556   9.391  17.913  0.00  0.00    +0.000 A 
ATOM     23  C   UNL     1       2.175   8.152  17.815  0.00  0.00    +0.000 A 
ATOM     24  C   UNL     1       2.319   7.401  18.969  0.00  0.00    +0.000 A 
ATOM     25  N   UNL     1       1.891   7.800  20.192  0.00  0.00    +0.000 NA
ENDBRANCH  19  20
ENDBRANCH   3  19
TORSDOF 3
ENDMDL
MODEL 9
REMARK VINA RESULT:      -6.6      1.145      1.420
REMARK  Name = 
REMARK  3 active torsions:
REMARK  status: ('A' for Active; 'I' for Inactive)
REMARK    1  A    between atoms: N_3  and  C_4
REMARK    2  A    between atoms: C_4  and  C_5
REMARK    3  A    between atoms: N_11  and  C_12
REMARK                            x       y       z     vdW  Elec       q    Type
REMARK                         _______ _______ _______ _____ _____    ______ ____
ROOT
ATOM      1  O   UNL     1       0.697   6.037  20.819  0.00  0.00    +0.000 OA
ATOM      2  C   UNL     1       1.562   6.789  20.386  0.00  0.00    +0.000 C 
ATOM      3  N   UNL     1       1.855   8.002  20.935  0.00  0.00    +0.000 N 
ATOM      4  N   UNL     1       2.398   6.479  19.343  0.00  0.00    +0.000 N 
ATOM      5  H   UNL     1       2.586   8.568  20.536  0.00  0.00    +0.000 HD
ATOM      6  H   UNL     1       2.681   7.268  18.780  0.00  0.00    +0.000 HD
ENDROOT
BRANCH   4   7
ATOM      7  C   UNL     1       2.246   5.213  18.620  0.00  0.00    +0.000 C 
ATOM      8  C   UNL     1       2.087   4.049  19.612  0.00  0.00    +0.000 C 
ATOM      9  C   UNL     1       3.402   3.680  20.306  0.00  0.00    +0.000 C 
ATOM     10  C   UNL     1       4.518   3.424  19.295  0.00  0.00    +0.000 C 
ATOM     11  N   UNL     1       4.616   4.561  18.395  0.00  0.00    +0.000 N 
ATOM     12  C   UNL     1       5.741   5.345  18.359  0.00  0.00    +0.000 A 
ATOM     13  N   UNL     1       6.783   5.028  19.148  0.00  0.00    +0.000 NA
ATOM     14  C   UNL     1       7.877   5.812  19.095  0.00  0.00    +0.000 A 
ATOM     15  C   UNL     1       7.980   6.913  18.286  0.00  0.00    +0.000 A 
ATOM     16  C   UNL     1       6.876   7.167  17.518  0.00  0.00    +0.000 A 
ATOM     17  N   UNL     1       5.767   6.406  17.540  0.00  0.00    +0.000 NA
ATOM     18  C   UNL     1       3.416   4.938  17.647  0.00  0.00    +0.000 C 
ENDBRANCH   4   7
BRANCH   3  19
ATOM     19  C   UNL     1       1.108   8.546  22.053  0.00  0.00    +0.000 C 
BRANCH  19  20
ATOM     20  C   UNL     1       0.256   9.733  21.659  0.00  0.00    +0.000 A 
ATOM     21  C   UNL     1      -0.415  10.463  22.640  0.00  0.00    +0.000 A 
ATOM     22  C   UNL     1      -1.200  11.547  22.259  0.00  0.00    +0.000 A 
ATOM     23  C   UNL     1      -1.301  11.872  20.913  0.00  0.00    +0.000 A 
ATOM     24  C   UNL     1      -0.609  11.095  19.999  0.00  0.00    +0.000 A 
ATOM     25  N   UNL     1       0.163  10.034  20.338  0.00  0.00    +0.000 NA
ENDBRANCH  19  20
ENDBRANCH   3  19
TORSDOF 3
ENDMDL
