MODEL 1
REMARK VINA RESULT:      -7.4      0.000      0.000
REMARK  Name = 
REMARK  6 active torsions:
REMARK  status: ('A' for Active; 'I' for Inactive)
REMARK    1  A    between atoms: C_1  and  C_2
REMARK    2  A    between atoms: N_4  and  C_5
REMARK    3  A    between atoms: C_13  and  C_14
REMARK    4  A    between atoms: C_15  and  C_16
REMARK    5  A    between atoms: C_16  and  C_17
REMARK    6  A    between atoms: C_22  and  N_23
REMARK                            x       y       z     vdW  Elec       q    Type
REMARK                         _______ _______ _______ _____ _____    ______ ____
ROOT
ATOM      1  C   UNL     1       0.521   9.233  22.791  0.00  0.00    +0.000 C 
ATOM      2  C   UNL     1       0.930   8.982  21.381  0.00  0.00    +0.000 A 
ATOM      3  N   UNL     1       1.585   7.852  21.111  0.00  0.00    +0.000 NA
ATOM      4  N   UNL     1       1.864   7.886  19.790  0.00  0.00    +0.000 N 
ATOM      5  C   UNL     1       1.400   9.066  19.218  0.00  0.00    +0.000 A 
ATOM      6  C   UNL     1       1.487   9.429  17.777  0.00  0.00    +0.000 C 
ATOM      7  C   UNL     1       0.760   9.785  20.226  0.00  0.00    +0.000 A 
ENDROOT
BRANCH   4   8
ATOM      8  C   UNL     1       2.572   6.823  19.158  0.00  0.00    +0.000 A 
ATOM      9  C   UNL     1       3.534   7.141  18.182  0.00  0.00    +0.000 A 
ATOM     10  C   UNL     1       4.130   6.151  17.398  0.00  0.00    +0.000 A 
ATOM     11  C   UNL     1       3.815   4.826  17.637  0.00  0.00    +0.000 A 
ATOM     12 CL   UNL     1       4.523   3.603  16.655  0.00  0.00    +0.000 Cl
ATOM     13  C   UNL     1       2.929   4.478  18.656  0.00  0.00    +0.000 A 
ATOM     14  C   UNL     1       2.300   5.470  19.426  0.00  0.00    +0.000 A 
ATOM     15 CL   UNL     1       1.136   4.892  20.568  0.00  0.00    +0.000 Cl
ENDBRANCH   4   8
BRANCH   7  16
ATOM     16  C   UNL     1       0.153  11.145  20.048  0.00  0.00    +0.000 C 
BRANCH  16  17
ATOM     17  C   UNL     1       0.813  12.319  20.775  0.00  0.00    +0.000 C 
ATOM     18  O   UNL     1       0.394  12.801  21.813  0.00  0.00    +0.000 OA
ATOM     19  N   UNL     1       1.936  12.834  20.105  0.00  0.00    +0.000 N 
ATOM     20  C   UNL     1       2.715  13.910  20.702  0.00  0.00    +0.000 C 
ATOM     21  C   UNL     1       2.617  15.038  19.689  0.00  0.00    +0.000 C 
ATOM     22  C   UNL     1       2.599  14.325  18.335  0.00  0.00    +0.000 C 
ATOM     23  C   UNL     1       1.940  12.964  18.648  0.00  0.00    +0.000 C 
BRANCH  22  24
ATOM     24  N   UNL     1       3.943  14.180  17.767  0.00  0.00    +0.000 NA
ATOM     25  H   UNL     1       4.530  13.628  18.385  0.00  0.00    +0.000 HD
ATOM     26  H   UNL     1       4.379  15.100  17.698  0.00  0.00    +0.000 HD
ENDBRANCH  22  24
ENDBRANCH  16  17
ENDBRANCH   7  16
TORSDOF 4
ENDMDL
MODEL 2
REMARK VINA RESULT:      -7.4      3.599      7.912
REMARK  Name = 
REMARK  6 active torsions:
REMARK  status: ('A' for Active; 'I' for Inactive)
REMARK    1  A    between atoms: C_1  and  C_2
REMARK    2  A    between atoms: N_4  and  C_5
REMARK    3  A    between atoms: C_13  and  C_14
REMARK    4  A    between atoms: C_15  and  C_16
REMARK    5  A    between atoms: C_16  and  C_17
REMARK    6  A    between atoms: C_22  and  N_23
REMARK                            x       y       z     vdW  Elec       q    Type
REMARK                         _______ _______ _______ _____ _____    ______ ____
ROOT
ATOM      1  C   UNL     1       3.192   7.709  17.505  0.00  0.00    +0.000 C 
ATOM      2  C   UNL     1       2.294   8.238  18.569  0.00  0.00    +0.000 A 
ATOM      3  N   UNL     1       1.747   9.439  18.386  0.00  0.00    +0.000 NA
ATOM      4  N   UNL     1       1.017   9.693  19.495  0.00  0.00    +0.000 N 
ATOM      5  C   UNL     1       1.123   8.647  20.405  0.00  0.00    +0.000 A 
ATOM      6  C   UNL     1       0.421   8.557  21.715  0.00  0.00    +0.000 C 
ATOM      7  C   UNL     1       1.925   7.671  19.815  0.00  0.00    +0.000 A 
ENDROOT
BRANCH   4   8
ATOM      8  C   UNL     1       0.293  10.912  19.638  0.00  0.00    +0.000 A 
ATOM      9  C   UNL     1       0.823  11.917  20.469  0.00  0.00    +0.000 A 
ATOM     10  C   UNL     1       0.083  13.054  20.797  0.00  0.00    +0.000 A 
ATOM     11  C   UNL     1      -1.170  13.225  20.237  0.00  0.00    +0.000 A 
ATOM     12 CL   UNL     1      -2.099  14.610  20.661  0.00  0.00    +0.000 Cl
ATOM     13  C   UNL     1      -1.683  12.286  19.343  0.00  0.00    +0.000 A 
ATOM     14  C   UNL     1      -0.958  11.123  19.034  0.00  0.00    +0.000 A 
ATOM     15 CL   UNL     1      -1.775   9.994  18.008  0.00  0.00    +0.000 Cl
ENDBRANCH   4   8
BRANCH   7  16
ATOM     16  C   UNL     1       2.333   6.390  20.478  0.00  0.00    +0.000 C 
BRANCH  16  17
ATOM     17  C   UNL     1       1.718   5.090  19.954  0.00  0.00    +0.000 C 
ATOM     18  O   UNL     1       0.718   4.572  20.420  0.00  0.00    +0.000 OA
ATOM     19  N   UNL     1       2.445   4.510  18.900  0.00  0.00    +0.000 N 
ATOM     20  C   UNL     1       1.953   3.306  18.247  0.00  0.00    +0.000 C 
ATOM     21  C   UNL     1       3.057   2.287  18.478  0.00  0.00    +0.000 C 
ATOM     22  C   UNL     1       4.345   3.111  18.421  0.00  0.00    +0.000 C 
ATOM     23  C   UNL     1       3.908   4.506  18.918  0.00  0.00    +0.000 C 
BRANCH  22  24
ATOM     24  N   UNL     1       4.918   3.151  17.072  0.00  0.00    +0.000 NA
ATOM     25  H   UNL     1       4.932   2.219  16.667  0.00  0.00    +0.000 HD
ATOM     26  H   UNL     1       5.890   3.456  17.129  0.00  0.00    +0.000 HD
ENDBRANCH  22  24
ENDBRANCH  16  17
ENDBRANCH   7  16
TORSDOF 4
ENDMDL
MODEL 3
REMARK VINA RESULT:      -7.3      3.837      7.428
REMARK  Name = 
REMARK  6 active torsions:
REMARK  status: ('A' for Active; 'I' for Inactive)
REMARK    1  A    between atoms: C_1  and  C_2
REMARK    2  A    between atoms: N_4  and  C_5
REMARK    3  A    between atoms: C_13  and  C_14
REMARK    4  A    between atoms: C_15  and  C_16
REMARK    5  A    between atoms: C_16  and  C_17
REMARK    6  A    between atoms: C_22  and  N_23
REMARK                            x       y       z     vdW  Elec       q    Type
REMARK                         _______ _______ _______ _____ _____    ______ ____
ROOT
ATOM      1  C   UNL     1       1.926   4.143  21.402  0.00  0.00    +0.000 C 
ATOM      2  C   UNL     1       2.220   5.273  20.476  0.00  0.00    +0.000 A 
ATOM      3  N   UNL     1       1.564   6.418  20.658  0.00  0.00    +0.000 NA
ATOM      4  N   UNL     1       1.984   7.252  19.682  0.00  0.00    +0.000 N 
ATOM      5  C   UNL     1       2.904   6.617  18.854  0.00  0.00    +0.000 A 
ATOM      6  C   UNL     1       3.614   7.239  17.703  0.00  0.00    +0.000 C 
ATOM      7  C   UNL     1       3.100   5.336  19.367  0.00  0.00    +0.000 A 
ENDROOT
BRANCH   4   8
ATOM      8  C   UNL     1       1.473   8.577  19.573  0.00  0.00    +0.000 A 
ATOM      9  C   UNL     1       1.315   9.136  18.292  0.00  0.00    +0.000 A 
ATOM     10  C   UNL     1       0.995  10.484  18.120  0.00  0.00    +0.000 A 
ATOM     11  C   UNL     1       0.763  11.266  19.237  0.00  0.00    +0.000 A 
ATOM     12 CL   UNL     1       0.399  12.936  19.033  0.00  0.00    +0.000 Cl
ATOM     13  C   UNL     1       0.829  10.716  20.516  0.00  0.00    +0.000 A 
ATOM     14  C   UNL     1       1.183   9.370  20.698  0.00  0.00    +0.000 A 
ATOM     15 CL   UNL     1       1.344   8.864  22.344  0.00  0.00    +0.000 Cl
ENDBRANCH   4   8
BRANCH   7  16
ATOM     16  C   UNL     1       3.985   4.297  18.746  0.00  0.00    +0.000 C 
BRANCH  16  17
ATOM     17  C   UNL     1       5.447   4.671  18.485  0.00  0.00    +0.000 C 
ATOM     18  O   UNL     1       6.124   5.343  19.244  0.00  0.00    +0.000 OA
ATOM     19  N   UNL     1       5.934   4.203  17.253  0.00  0.00    +0.000 N 
ATOM     20  C   UNL     1       7.327   4.418  16.888  0.00  0.00    +0.000 C 
ATOM     21  C   UNL     1       7.248   5.239  15.612  0.00  0.00    +0.000 C 
ATOM     22  C   UNL     1       6.003   4.707  14.900  0.00  0.00    +0.000 C 
ATOM     23  C   UNL     1       5.093   4.239  16.056  0.00  0.00    +0.000 C 
BRANCH  22  24
ATOM     24  N   UNL     1       6.321   3.625  13.963  0.00  0.00    +0.000 NA
ATOM     25  H   UNL     1       6.182   2.722  14.407  0.00  0.00    +0.000 HD
ATOM     26  H   UNL     1       7.309   3.677  13.713  0.00  0.00    +0.000 HD
ENDBRANCH  22  24
ENDBRANCH  16  17
ENDBRANCH   7  16
TORSDOF 4
ENDMDL
MODEL 4
REMARK VINA RESULT:      -7.2      3.693      7.982
REMARK  Name = 
REMARK  6 active torsions:
REMARK  status: ('A' for Active; 'I' for Inactive)
REMARK    1  A    between atoms: C_1  and  C_2
REMARK    2  A    between atoms: N_4  and  C_5
REMARK    3  A    between atoms: C_13  and  C_14
REMARK    4  A    between atoms: C_15  and  C_16
REMARK    5  A    between atoms: C_16  and  C_17
REMARK    6  A    between atoms: C_22  and  N_23
REMARK                            x       y       z     vdW  Elec       q    Type
REMARK                         _______ _______ _______ _____ _____    ______ ____
ROOT
ATOM      1  C   UNL     1       1.618   5.847  21.187  0.00  0.00    +0.000 C 
ATOM      2  C   UNL     1       1.651   7.067  20.334  0.00  0.00    +0.000 A 
ATOM      3  N   UNL     1       0.983   8.142  20.752  0.00  0.00    +0.000 NA
ATOM      4  N   UNL     1       1.146   9.082  19.795  0.00  0.00    +0.000 N 
ATOM      5  C   UNL     1       1.909   8.587  18.743  0.00  0.00    +0.000 A 
ATOM      6  C   UNL     1       2.330   9.352  17.537  0.00  0.00    +0.000 C 
ATOM      7  C   UNL     1       2.278   7.286  19.081  0.00  0.00    +0.000 A 
ENDROOT
BRANCH   4   8
ATOM      8  C   UNL     1       0.551  10.371  19.918  0.00  0.00    +0.000 A 
ATOM      9  C   UNL     1       1.013  11.233  20.929  0.00  0.00    +0.000 A 
ATOM     10  C   UNL     1       0.357  12.430  21.222  0.00  0.00    +0.000 A 
ATOM     11  C   UNL     1      -0.731  12.803  20.454  0.00  0.00    +0.000 A 
ATOM     12 CL   UNL     1      -1.563  14.262  20.828  0.00  0.00    +0.000 Cl
ATOM     13  C   UNL     1      -1.158  12.008  19.391  0.00  0.00    +0.000 A 
ATOM     14  C   UNL     1      -0.523  10.787  19.112  0.00  0.00    +0.000 A 
ATOM     15 CL   UNL     1      -1.240   9.855  17.844  0.00  0.00    +0.000 Cl
ENDBRANCH   4   8
BRANCH   7  16
ATOM     16  C   UNL     1       3.072   6.370  18.199  0.00  0.00    +0.000 C 
BRANCH  16  17
ATOM     17  C   UNL     1       2.461   5.009  17.854  0.00  0.00    +0.000 C 
ATOM     18  O   UNL     1       1.354   4.862  17.367  0.00  0.00    +0.000 OA
ATOM     19  N   UNL     1       3.284   3.922  18.196  0.00  0.00    +0.000 N 
ATOM     20  C   UNL     1       2.875   2.563  17.871  0.00  0.00    +0.000 C 
ATOM     21  C   UNL     1       2.795   1.871  19.221  0.00  0.00    +0.000 C 
ATOM     22  C   UNL     1       3.926   2.505  20.034  0.00  0.00    +0.000 C 
ATOM     23  C   UNL     1       4.045   3.928  19.446  0.00  0.00    +0.000 C 
BRANCH  22  24
ATOM     24  N   UNL     1       5.177   1.748  19.928  0.00  0.00    +0.000 NA
ATOM     25  H   UNL     1       5.623   1.675  20.837  0.00  0.00    +0.000 HD
ATOM     26  H   UNL     1       5.826   2.256  19.326  0.00  0.00    +0.000 HD
ENDBRANCH  22  24
ENDBRANCH  16  17
ENDBRANCH   7  16
TORSDOF 4
ENDMDL
MODEL 5
REMARK VINA RESULT:      -7.2      2.381      3.296
REMARK  Name = 
REMARK  6 active torsions:
REMARK  status: ('A' for Active; 'I' for Inactive)
REMARK    1  A    between atoms: C_1  and  C_2
REMARK    2  A    between atoms: N_4  and  C_5
REMARK    3  A    between atoms: C_13  and  C_14
REMARK    4  A    between atoms: C_15  and  C_16
REMARK    5  A    between atoms: C_16  and  C_17
REMARK    6  A    between atoms: C_22  and  N_23
REMARK                            x       y       z     vdW  Elec       q    Type
REMARK                         _______ _______ _______ _____ _____    ______ ____
ROOT
ATOM      1  C   UNL     1       0.291   9.248  22.605  0.00  0.00    +0.000 C 
ATOM      2  C   UNL     1       0.827   9.015  21.235  0.00  0.00    +0.000 A 
ATOM      3  N   UNL     1       1.451   7.863  20.994  0.00  0.00    +0.000 NA
ATOM      4  N   UNL     1       1.862   7.918  19.708  0.00  0.00    +0.000 N 
ATOM      5  C   UNL     1       1.513   9.135  19.132  0.00  0.00    +0.000 A 
ATOM      6  C   UNL     1       1.761   9.532  17.718  0.00  0.00    +0.000 C 
ATOM      7  C   UNL     1       0.810   9.858  20.095  0.00  0.00    +0.000 A 
ENDROOT
BRANCH   4   8
ATOM      8  C   UNL     1       2.579   6.839  19.116  0.00  0.00    +0.000 A 
ATOM      9  C   UNL     1       3.538   7.129  18.128  0.00  0.00    +0.000 A 
ATOM     10  C   UNL     1       4.142   6.117  17.380  0.00  0.00    +0.000 A 
ATOM     11  C   UNL     1       3.839   4.798  17.668  0.00  0.00    +0.000 A 
ATOM     12 CL   UNL     1       4.557   3.546  16.731  0.00  0.00    +0.000 Cl
ATOM     13  C   UNL     1       2.957   4.481  18.701  0.00  0.00    +0.000 A 
ATOM     14  C   UNL     1       2.320   5.495  19.434  0.00  0.00    +0.000 A 
ATOM     15 CL   UNL     1       1.162   4.949  20.597  0.00  0.00    +0.000 Cl
ENDBRANCH   4   8
BRANCH   7  16
ATOM     16  C   UNL     1       0.288  11.250  19.901  0.00  0.00    +0.000 C 
BRANCH  16  17
ATOM     17  C   UNL     1      -1.217  11.475  20.068  0.00  0.00    +0.000 C 
ATOM     18  O   UNL     1      -1.799  11.423  21.137  0.00  0.00    +0.000 OA
ATOM     19  N   UNL     1      -1.888  11.706  18.855  0.00  0.00    +0.000 N 
ATOM     20  C   UNL     1      -3.312  12.005  18.851  0.00  0.00    +0.000 C 
ATOM     21  C   UNL     1      -3.920  10.883  18.028  0.00  0.00    +0.000 C 
ATOM     22  C   UNL     1      -2.864  10.587  16.960  0.00  0.00    +0.000 C 
ATOM     23  C   UNL     1      -1.533  10.950  17.652  0.00  0.00    +0.000 C 
BRANCH  22  24
ATOM     24  N   UNL     1      -3.087  11.358  15.733  0.00  0.00    +0.000 NA
ATOM     25  H   UNL     1      -3.251  10.734  14.949  0.00  0.00    +0.000 HD
ATOM     26  H   UNL     1      -2.242  11.886  15.510  0.00  0.00    +0.000 HD
ENDBRANCH  22  24
ENDBRANCH  16  17
ENDBRANCH   7  16
TORSDOF 4
ENDMDL
MODEL 6
REMARK VINA RESULT:      -7.2      4.012      7.661
REMARK  Name = 
REMARK  6 active torsions:
REMARK  status: ('A' for Active; 'I' for Inactive)
REMARK    1  A    between atoms: C_1  and  C_2
REMARK    2  A    between atoms: N_4  and  C_5
REMARK    3  A    between atoms: C_13  and  C_14
REMARK    4  A    between atoms: C_15  and  C_16
REMARK    5  A    between atoms: C_16  and  C_17
REMARK    6  A    between atoms: C_22  and  N_23
REMARK                            x       y       z     vdW  Elec       q    Type
REMARK                         _______ _______ _______ _____ _____    ______ ____
ROOT
ATOM      1  C   UNL     1       1.100   3.223  20.724  0.00  0.00    +0.000 C 
ATOM      2  C   UNL     1       1.769   4.503  20.359  0.00  0.00    +0.000 A 
ATOM      3  N   UNL     1       1.164   5.643  20.693  0.00  0.00    +0.000 NA
ATOM      4  N   UNL     1       1.949   6.637  20.224  0.00  0.00    +0.000 N 
ATOM      5  C   UNL     1       3.058   6.119  19.563  0.00  0.00    +0.000 A 
ATOM      6  C   UNL     1       4.162   6.914  18.959  0.00  0.00    +0.000 C 
ATOM      7  C   UNL     1       2.982   4.731  19.662  0.00  0.00    +0.000 A 
ENDROOT
BRANCH   4   8
ATOM      8  C   UNL     1       1.593   8.005  20.403  0.00  0.00    +0.000 A 
ATOM      9  C   UNL     1       1.380   8.481  21.710  0.00  0.00    +0.000 A 
ATOM     10  C   UNL     1       0.855   9.753  21.945  0.00  0.00    +0.000 A 
ATOM     11  C   UNL     1       0.605  10.584  20.869  0.00  0.00    +0.000 A 
ATOM     12 CL   UNL     1      -0.071  12.142  21.149  0.00  0.00    +0.000 Cl
ATOM     13  C   UNL     1       0.887  10.169  19.568  0.00  0.00    +0.000 A 
ATOM     14  C   UNL     1       1.385   8.879  19.322  0.00  0.00    +0.000 A 
ATOM     15 CL   UNL     1       1.570   8.465  17.653  0.00  0.00    +0.000 Cl
ENDBRANCH   4   8
BRANCH   7  16
ATOM     16  C   UNL     1       3.960   3.779  19.042  0.00  0.00    +0.000 C 
BRANCH  16  17
ATOM     17  C   UNL     1       3.873   3.554  17.529  0.00  0.00    +0.000 C 
ATOM     18  O   UNL     1       3.134   2.742  17.002  0.00  0.00    +0.000 OA
ATOM     19  N   UNL     1       4.770   4.348  16.793  0.00  0.00    +0.000 N 
ATOM     20  C   UNL     1       4.763   4.300  15.338  0.00  0.00    +0.000 C 
ATOM     21  C   UNL     1       6.164   3.834  14.980  0.00  0.00    +0.000 C 
ATOM     22  C   UNL     1       7.055   4.473  16.048  0.00  0.00    +0.000 C 
ATOM     23  C   UNL     1       6.130   4.582  17.279  0.00  0.00    +0.000 C 
BRANCH  22  24
ATOM     24  N   UNL     1       7.581   5.774  15.624  0.00  0.00    +0.000 NA
ATOM     25  H   UNL     1       8.481   5.950  16.059  0.00  0.00    +0.000 HD
ATOM     26  H   UNL     1       6.954   6.512  15.948  0.00  0.00    +0.000 HD
ENDBRANCH  22  24
ENDBRANCH  16  17
ENDBRANCH   7  16
TORSDOF 4
ENDMDL
MODEL 7
REMARK VINA RESULT:      -7.2      3.984      7.168
REMARK  Name = 
REMARK  6 active torsions:
REMARK  status: ('A' for Active; 'I' for Inactive)
REMARK    1  A    between atoms: C_1  and  C_2
REMARK    2  A    between atoms: N_4  and  C_5
REMARK    3  A    between atoms: C_13  and  C_14
REMARK    4  A    between atoms: C_15  and  C_16
REMARK    5  A    between atoms: C_16  and  C_17
REMARK    6  A    between atoms: C_22  and  N_23
REMARK                            x       y       z     vdW  Elec       q    Type
REMARK                         _______ _______ _______ _____ _____    ______ ____
ROOT
ATOM      1  C   UNL     1       1.555   3.842  20.517  0.00  0.00    +0.000 C 
ATOM      2  C   UNL     1       1.792   5.243  20.070  0.00  0.00    +0.000 A 
ATOM      3  N   UNL     1       1.227   6.227  20.770  0.00  0.00    +0.000 NA
ATOM      4  N   UNL     1       1.565   7.376  20.144  0.00  0.00    +0.000 N 
ATOM      5  C   UNL     1       2.337   7.114  19.017  0.00  0.00    +0.000 A 
ATOM      6  C   UNL     1       2.928   8.136  18.110  0.00  0.00    +0.000 C 
ATOM      7  C   UNL     1       2.526   5.734  18.961  0.00  0.00    +0.000 A 
ENDROOT
BRANCH   4   8
ATOM      8  C   UNL     1       1.118   8.639  20.629  0.00  0.00    +0.000 A 
ATOM      9  C   UNL     1       1.251   8.920  22.001  0.00  0.00    +0.000 A 
ATOM     10  C   UNL     1       0.672  10.055  22.571  0.00  0.00    +0.000 A 
ATOM     11  C   UNL     1       0.012  10.954  21.753  0.00  0.00    +0.000 A 
ATOM     12 CL   UNL     1      -0.730  12.340  22.453  0.00  0.00    +0.000 Cl
ATOM     13  C   UNL     1      -0.061  10.743  20.376  0.00  0.00    +0.000 A 
ATOM     14  C   UNL     1       0.491   9.586  19.801  0.00  0.00    +0.000 A 
ATOM     15 CL   UNL     1       0.215   9.403  18.103  0.00  0.00    +0.000 Cl
ENDBRANCH   4   8
BRANCH   7  16
ATOM     16  C   UNL     1       3.267   5.020  17.871  0.00  0.00    +0.000 C 
BRANCH  16  17
ATOM     17  C   UNL     1       4.617   4.390  18.224  0.00  0.00    +0.000 C 
ATOM     18  O   UNL     1       4.749   3.433  18.967  0.00  0.00    +0.000 OA
ATOM     19  N   UNL     1       5.713   5.050  17.643  0.00  0.00    +0.000 N 
ATOM     20  C   UNL     1       7.061   4.532  17.827  0.00  0.00    +0.000 C 
ATOM     21  C   UNL     1       7.797   5.665  18.523  0.00  0.00    +0.000 C 
ATOM     22  C   UNL     1       7.187   6.933  17.922  0.00  0.00    +0.000 C 
ATOM     23  C   UNL     1       5.746   6.511  17.563  0.00  0.00    +0.000 C 
BRANCH  22  24
ATOM     24  N   UNL     1       7.939   7.410  16.757  0.00  0.00    +0.000 NA
ATOM     25  H   UNL     1       8.106   6.646  16.108  0.00  0.00    +0.000 HD
ATOM     26  H   UNL     1       8.856   7.738  17.060  0.00  0.00    +0.000 HD
ENDBRANCH  22  24
ENDBRANCH  16  17
ENDBRANCH   7  16
TORSDOF 4
ENDMDL
MODEL 8
REMARK VINA RESULT:      -7.2      3.715      7.956
REMARK  Name = 
REMARK  6 active torsions:
REMARK  status: ('A' for Active; 'I' for Inactive)
REMARK    1  A    between atoms: C_1  and  C_2
REMARK    2  A    between atoms: N_4  and  C_5
REMARK    3  A    between atoms: C_13  and  C_14
REMARK    4  A    between atoms: C_15  and  C_16
REMARK    5  A    between atoms: C_16  and  C_17
REMARK    6  A    between atoms: C_22  and  N_23
REMARK                            x       y       z     vdW  Elec       q    Type
REMARK                         _______ _______ _______ _____ _____    ______ ____
ROOT
ATOM      1  C   UNL     1       3.394   7.133  17.118  0.00  0.00    +0.000 C 
ATOM      2  C   UNL     1       2.582   7.970  18.045  0.00  0.00    +0.000 A 
ATOM      3  N   UNL     1       2.243   9.195  17.646  0.00  0.00    +0.000 NA
ATOM      4  N   UNL     1       1.550   9.745  18.668  0.00  0.00    +0.000 N 
ATOM      5  C   UNL     1       1.470   8.862  19.740  0.00  0.00    +0.000 A 
ATOM      6  C   UNL     1       0.746   9.106  21.018  0.00  0.00    +0.000 C 
ATOM      7  C   UNL     1       2.108   7.685  19.350  0.00  0.00    +0.000 A 
ENDROOT
BRANCH   4   8
ATOM      8  C   UNL     1       1.035  11.070  18.582  0.00  0.00    +0.000 A 
ATOM      9  C   UNL     1       1.927  12.150  18.714  0.00  0.00    +0.000 A 
ATOM     10  C   UNL     1       1.469  13.464  18.822  0.00  0.00    +0.000 A 
ATOM     11  C   UNL     1       0.111  13.711  18.728  0.00  0.00    +0.000 A 
ATOM     12 CL   UNL     1      -0.463  15.325  18.890  0.00  0.00    +0.000 Cl
ATOM     13  C   UNL     1      -0.788  12.667  18.511  0.00  0.00    +0.000 A 
ATOM     14  C   UNL     1      -0.336  11.340  18.435  0.00  0.00    +0.000 A 
ATOM     15 CL   UNL     1      -1.579  10.145  18.287  0.00  0.00    +0.000 Cl
ENDBRANCH   4   8
BRANCH   7  16
ATOM     16  C   UNL     1       2.291   6.485  20.229  0.00  0.00    +0.000 C 
BRANCH  16  17
ATOM     17  C   UNL     1       3.362   5.467  19.830  0.00  0.00    +0.000 C 
ATOM     18  O   UNL     1       4.542   5.738  19.692  0.00  0.00    +0.000 OA
ATOM     19  N   UNL     1       2.851   4.180  19.586  0.00  0.00    +0.000 N 
ATOM     20  C   UNL     1       3.752   3.084  19.262  0.00  0.00    +0.000 C 
ATOM     21  C   UNL     1       3.298   2.632  17.885  0.00  0.00    +0.000 C 
ATOM     22  C   UNL     1       1.780   2.827  17.907  0.00  0.00    +0.000 C 
ATOM     23  C   UNL     1       1.578   4.005  18.885  0.00  0.00    +0.000 C 
BRANCH  22  24
ATOM     24  N   UNL     1       1.072   1.617  18.334  0.00  0.00    +0.000 NA
ATOM     25  H   UNL     1       0.777   1.702  19.302  0.00  0.00    +0.000 HD
ATOM     26  H   UNL     1       1.712   0.822  18.296  0.00  0.00    +0.000 HD
ENDBRANCH  22  24
ENDBRANCH  16  17
ENDBRANCH   7  16
TORSDOF 4
ENDMDL
MODEL 9
REMARK VINA RESULT:      -7.1      3.815      7.499
REMARK  Name = 
REMARK  6 active torsions:
REMARK  status: ('A' for Active; 'I' for Inactive)
REMARK    1  A    between atoms: C_1  and  C_2
REMARK    2  A    between atoms: N_4  and  C_5
REMARK    3  A    between atoms: C_13  and  C_14
REMARK    4  A    between atoms: C_15  and  C_16
REMARK    5  A    between atoms: C_16  and  C_17
REMARK    6  A    between atoms: C_22  and  N_23
REMARK                            x       y       z     vdW  Elec       q    Type
REMARK                         _______ _______ _______ _____ _____    ______ ____
ROOT
ATOM      1  C   UNL     1       1.483   3.399  21.034  0.00  0.00    +0.000 C 
ATOM      2  C   UNL     1       1.946   4.693  20.458  0.00  0.00    +0.000 A 
ATOM      3  N   UNL     1       1.363   5.812  20.885  0.00  0.00    +0.000 NA
ATOM      4  N   UNL     1       1.933   6.822  20.192  0.00  0.00    +0.000 N 
ATOM      5  C   UNL     1       2.875   6.332  19.293  0.00  0.00    +0.000 A 
ATOM      6  C   UNL     1       3.733   7.154  18.396  0.00  0.00    +0.000 C 
ATOM      7  C   UNL     1       2.926   4.950  19.467  0.00  0.00    +0.000 A 
ENDROOT
BRANCH   4   8
ATOM      8  C   UNL     1       1.536   8.174  20.397  0.00  0.00    +0.000 A 
ATOM      9  C   UNL     1       1.412   8.648  21.716  0.00  0.00    +0.000 A 
ATOM     10  C   UNL     1       0.855   9.898  21.992  0.00  0.00    +0.000 A 
ATOM     11  C   UNL     1       0.481  10.712  20.939  0.00  0.00    +0.000 A 
ATOM     12 CL   UNL     1      -0.235  12.242  21.272  0.00  0.00    +0.000 Cl
ATOM     13  C   UNL     1       0.671  10.302  19.620  0.00  0.00    +0.000 A 
ATOM     14  C   UNL     1       1.200   9.033  19.335  0.00  0.00    +0.000 A 
ATOM     15 CL   UNL     1       1.263   8.618  17.657  0.00  0.00    +0.000 Cl
ENDBRANCH   4   8
BRANCH   7  16
ATOM     16  C   UNL     1       3.784   4.022  18.660  0.00  0.00    +0.000 C 
BRANCH  16  17
ATOM     17  C   UNL     1       5.274   4.354  18.540  0.00  0.00    +0.000 C 
ATOM     18  O   UNL     1       5.951   4.790  19.455  0.00  0.00    +0.000 OA
ATOM     19  N   UNL     1       5.791   4.154  17.248  0.00  0.00    +0.000 N 
ATOM     20  C   UNL     1       7.208   4.361  16.987  0.00  0.00    +0.000 C 
ATOM     21  C   UNL     1       7.230   5.458  15.936  0.00  0.00    +0.000 C 
ATOM     22  C   UNL     1       5.991   5.183  15.081  0.00  0.00    +0.000 C 
ATOM     23  C   UNL     1       5.007   4.519  16.067  0.00  0.00    +0.000 C 
BRANCH  22  24
ATOM     24  N   UNL     1       6.292   4.329  13.928  0.00  0.00    +0.000 NA
ATOM     25  H   UNL     1       6.486   4.898  13.109  0.00  0.00    +0.000 HD
ATOM     26  H   UNL     1       5.471   3.767  13.703  0.00  0.00    +0.000 HD
ENDBRANCH  22  24
ENDBRANCH  16  17
ENDBRANCH   7  16
TORSDOF 4
ENDMDL
