MODEL 1
REMARK VINA RESULT:      -7.3      0.000      0.000
REMARK  Name = 
REMARK  7 active torsions:
REMARK  status: ('A' for Active; 'I' for Inactive)
REMARK    1  A    between atoms: C_1  and  C_2
REMARK    2  A    between atoms: C_2  and  C_3
REMARK    3  A    between atoms: C_2  and  N_4
REMARK    4  A    between atoms: C_8  and  C_9
REMARK    5  A    between atoms: C_9  and  N_10
REMARK    6  A    between atoms: C_15  and  C_17
REMARK    7  A    between atoms: N_20  and  C_21
REMARK                            x       y       z     vdW  Elec       q    Type
REMARK                         _______ _______ _______ _____ _____    ______ ____
ROOT
ATOM      1  N   UNL     1       2.303   7.607  18.940  0.00  0.00    +0.000 NA
ATOM      2  C   UNL     1       1.657   7.450  20.239  0.00  0.00    +0.000 C 
ATOM      3  C   UNL     1       1.641   8.600  21.240  0.00  0.00    +0.000 C 
ATOM      4  C   UNL     1       1.035   9.950  20.864  0.00  0.00    +0.000 C 
ATOM      5  N   UNL     1       0.329  10.033  19.578  0.00  0.00    +0.000 N 
ATOM      6  C   UNL     1      -0.955  10.621  19.594  0.00  0.00    +0.000 C 
ATOM      7  O   UNL     1      -1.412  11.062  20.662  0.00  0.00    +0.000 OA
ATOM      8  C   UNL     1       1.265  10.050  18.448  0.00  0.00    +0.000 C 
ATOM      9  C   UNL     1       1.907   8.698  18.035  0.00  0.00    +0.000 C 
ENDROOT
BRANCH   6  10
ATOM     10  C   UNL     1      -1.837  10.717  18.412  0.00  0.00    +0.000 A 
ATOM     11  C   UNL     1      -2.818  11.664  18.037  0.00  0.00    +0.000 A 
ATOM     12  N   UNL     1      -3.364  11.432  16.845  0.00  0.00    +0.000 NA
ATOM     13  N   UNL     1      -2.658  10.397  16.364  0.00  0.00    +0.000 N 
ATOM     14  C   UNL     1      -2.792  10.032  14.966  0.00  0.00    +0.000 C 
ATOM     15  C   UNL     1      -1.758   9.916  17.275  0.00  0.00    +0.000 A 
ENDBRANCH   6  10
BRANCH   1  16
ATOM     16  C   UNL     1       2.313   6.297  18.201  0.00  0.00    +0.000 C 
BRANCH  16  21
ATOM     17  N   UNL     1       2.933   4.053  19.339  0.00  0.00    +0.000 N 
ATOM     18  C   UNL     1       4.086   3.390  19.704  0.00  0.00    +0.000 A 
ATOM     19  C   UNL     1       5.097   4.119  19.139  0.00  0.00    +0.000 A 
ATOM     20  N   UNL     1       4.609   5.260  18.560  0.00  0.00    +0.000 NA
ATOM     21  C   UNL     1       3.289   5.221  18.687  0.00  0.00    +0.000 A 
BRANCH  17  23
ATOM     22  C   UNL     1       1.442   2.214  18.626  0.00  0.00    +0.000 C 
ATOM     23  C   UNL     1       1.620   3.438  19.520  0.00  0.00    +0.000 C 
ATOM     24  C   UNL     1       1.320   3.263  21.009  0.00  0.00    +0.000 C 
ENDBRANCH  17  23
ENDBRANCH  16  21
ENDBRANCH   1  16
TORSDOF 4
ENDMDL
MODEL 2
REMARK VINA RESULT:      -7.2      0.621      1.039
REMARK  Name = 
REMARK  7 active torsions:
REMARK  status: ('A' for Active; 'I' for Inactive)
REMARK    1  A    between atoms: C_1  and  C_2
REMARK    2  A    between atoms: C_2  and  C_3
REMARK    3  A    between atoms: C_2  and  N_4
REMARK    4  A    between atoms: C_8  and  C_9
REMARK    5  A    between atoms: C_9  and  N_10
REMARK    6  A    between atoms: C_15  and  C_17
REMARK    7  A    between atoms: N_20  and  C_21
REMARK                            x       y       z     vdW  Elec       q    Type
REMARK                         _______ _______ _______ _____ _____    ______ ____
ROOT
ATOM      1  N   UNL     1       2.313   7.718  19.104  0.00  0.00    +0.000 NA
ATOM      2  C   UNL     1       1.623   7.516  20.374  0.00  0.00    +0.000 C 
ATOM      3  C   UNL     1       1.569   8.632  21.412  0.00  0.00    +0.000 C 
ATOM      4  C   UNL     1       0.973   9.992  21.061  0.00  0.00    +0.000 C 
ATOM      5  N   UNL     1       0.310  10.118  19.755  0.00  0.00    +0.000 N 
ATOM      6  C   UNL     1      -0.975  10.702  19.748  0.00  0.00    +0.000 C 
ATOM      7  O   UNL     1      -1.470  11.106  20.814  0.00  0.00    +0.000 OA
ATOM      8  C   UNL     1       1.284  10.175  18.660  0.00  0.00    +0.000 C 
ATOM      9  C   UNL     1       1.945   8.839  18.223  0.00  0.00    +0.000 C 
ENDROOT
BRANCH   6  10
ATOM     10  C   UNL     1      -1.817  10.836  18.540  0.00  0.00    +0.000 A 
ATOM     11  C   UNL     1      -1.808  10.157  17.299  0.00  0.00    +0.000 A 
ATOM     12  N   UNL     1      -2.784  10.529  16.473  0.00  0.00    +0.000 NA
ATOM     13  N   UNL     1      -3.526  11.369  17.211  0.00  0.00    +0.000 N 
ATOM     14  C   UNL     1      -4.834  11.772  16.730  0.00  0.00    +0.000 C 
ATOM     15  C   UNL     1      -2.972  11.608  18.439  0.00  0.00    +0.000 A 
ENDBRANCH   6  10
BRANCH   1  16
ATOM     16  C   UNL     1       2.352   6.434  18.322  0.00  0.00    +0.000 C 
BRANCH  16  21
ATOM     17  N   UNL     1       3.193   4.158  19.229  0.00  0.00    +0.000 N 
ATOM     18  C   UNL     1       4.408   3.575  19.524  0.00  0.00    +0.000 A 
ATOM     19  C   UNL     1       5.339   4.450  19.035  0.00  0.00    +0.000 A 
ATOM     20  N   UNL     1       4.740   5.591  18.574  0.00  0.00    +0.000 NA
ATOM     21  C   UNL     1       3.431   5.414  18.697  0.00  0.00    +0.000 A 
BRANCH  17  23
ATOM     22  C   UNL     1       2.155   1.920  19.064  0.00  0.00    +0.000 C 
ATOM     23  C   UNL     1       1.947   3.405  19.348  0.00  0.00    +0.000 C 
ATOM     24  C   UNL     1       1.232   3.772  20.648  0.00  0.00    +0.000 C 
ENDBRANCH  17  23
ENDBRANCH  16  21
ENDBRANCH   1  16
TORSDOF 4
ENDMDL
MODEL 3
REMARK VINA RESULT:      -7.1      1.293      2.507
REMARK  Name = 
REMARK  7 active torsions:
REMARK  status: ('A' for Active; 'I' for Inactive)
REMARK    1  A    between atoms: C_1  and  C_2
REMARK    2  A    between atoms: C_2  and  C_3
REMARK    3  A    between atoms: C_2  and  N_4
REMARK    4  A    between atoms: C_8  and  C_9
REMARK    5  A    between atoms: C_9  and  N_10
REMARK    6  A    between atoms: C_15  and  C_17
REMARK    7  A    between atoms: N_20  and  C_21
REMARK                            x       y       z     vdW  Elec       q    Type
REMARK                         _______ _______ _______ _____ _____    ______ ____
ROOT
ATOM      1  N   UNL     1       2.356   7.701  18.893  0.00  0.00    +0.000 NA
ATOM      2  C   UNL     1       1.711   7.537  20.191  0.00  0.00    +0.000 C 
ATOM      3  C   UNL     1       1.658   8.695  21.182  0.00  0.00    +0.000 C 
ATOM      4  C   UNL     1       1.014  10.023  20.792  0.00  0.00    +0.000 C 
ATOM      5  N   UNL     1       0.310  10.074  19.503  0.00  0.00    +0.000 N 
ATOM      6  C   UNL     1      -0.991  10.623  19.511  0.00  0.00    +0.000 C 
ATOM      7  O   UNL     1      -1.464  11.060  20.574  0.00  0.00    +0.000 OA
ATOM      8  C   UNL     1       1.248  10.109  18.376  0.00  0.00    +0.000 C 
ATOM      9  C   UNL     1       1.931   8.772  17.977  0.00  0.00    +0.000 C 
ENDROOT
BRANCH   6  10
ATOM     10  C   UNL     1      -1.873  10.682  18.326  0.00  0.00    +0.000 A 
ATOM     11  C   UNL     1      -2.890  11.589  17.947  0.00  0.00    +0.000 A 
ATOM     12  N   UNL     1      -3.422  11.334  16.753  0.00  0.00    +0.000 NA
ATOM     13  N   UNL     1      -2.673  10.329  16.275  0.00  0.00    +0.000 N 
ATOM     14  C   UNL     1      -2.786   9.959  14.877  0.00  0.00    +0.000 C 
ATOM     15  C   UNL     1      -1.756   9.885  17.190  0.00  0.00    +0.000 A 
ENDBRANCH   6  10
BRANCH   1  16
ATOM     16  C   UNL     1       2.407   6.386  18.166  0.00  0.00    +0.000 C 
BRANCH  16  21
ATOM     17  N   UNL     1       4.839   5.517  17.961  0.00  0.00    +0.000 N 
ATOM     18  C   UNL     1       5.571   4.443  18.424  0.00  0.00    +0.000 A 
ATOM     19  C   UNL     1       4.749   3.831  19.331  0.00  0.00    +0.000 A 
ATOM     20  N   UNL     1       3.511   4.415  19.338  0.00  0.00    +0.000 NA
ATOM     21  C   UNL     1       3.566   5.441  18.498  0.00  0.00    +0.000 A 
BRANCH  17  23
ATOM     22  C   UNL     1       6.924   6.790  17.582  0.00  0.00    +0.000 C 
ATOM     23  C   UNL     1       5.469   6.575  17.175  0.00  0.00    +0.000 C 
ATOM     24  C   UNL     1       5.184   6.369  15.688  0.00  0.00    +0.000 C 
ENDBRANCH  17  23
ENDBRANCH  16  21
ENDBRANCH   1  16
TORSDOF 4
ENDMDL
MODEL 4
REMARK VINA RESULT:      -7.0      5.645      8.087
REMARK  Name = 
REMARK  7 active torsions:
REMARK  status: ('A' for Active; 'I' for Inactive)
REMARK    1  A    between atoms: C_1  and  C_2
REMARK    2  A    between atoms: C_2  and  C_3
REMARK    3  A    between atoms: C_2  and  N_4
REMARK    4  A    between atoms: C_8  and  C_9
REMARK    5  A    between atoms: C_9  and  N_10
REMARK    6  A    between atoms: C_15  and  C_17
REMARK    7  A    between atoms: N_20  and  C_21
REMARK                            x       y       z     vdW  Elec       q    Type
REMARK                         _______ _______ _______ _____ _____    ______ ____
ROOT
ATOM      1  N   UNL     1       4.311   5.095  17.754  0.00  0.00    +0.000 NA
ATOM      2  C   UNL     1       4.913   6.372  17.383  0.00  0.00    +0.000 C 
ATOM      3  C   UNL     1       6.429   6.521  17.310  0.00  0.00    +0.000 C 
ATOM      4  C   UNL     1       7.256   5.623  16.394  0.00  0.00    +0.000 C 
ATOM      5  N   UNL     1       6.520   4.741  15.477  0.00  0.00    +0.000 N 
ATOM      6  C   UNL     1       6.925   4.752  14.124  0.00  0.00    +0.000 C 
ATOM      7  O   UNL     1       7.883   5.463  13.777  0.00  0.00    +0.000 OA
ATOM      8  C   UNL     1       5.923   3.603  16.184  0.00  0.00    +0.000 C 
ATOM      9  C   UNL     1       4.630   3.871  17.001  0.00  0.00    +0.000 C 
ENDROOT
BRANCH   6  10
ATOM     10  C   UNL     1       6.249   3.990  13.051  0.00  0.00    +0.000 A 
ATOM     11  C   UNL     1       6.589   2.790  12.385  0.00  0.00    +0.000 A 
ATOM     12  N   UNL     1       5.676   2.386  11.504  0.00  0.00    +0.000 NA
ATOM     13  N   UNL     1       4.663   3.249  11.671  0.00  0.00    +0.000 N 
ATOM     14  C   UNL     1       3.376   2.962  11.067  0.00  0.00    +0.000 C 
ATOM     15  C   UNL     1       4.971   4.243  12.561  0.00  0.00    +0.000 A 
ENDBRANCH   6  10
BRANCH   1  16
ATOM     16  C   UNL     1       2.821   5.244  17.897  0.00  0.00    +0.000 C 
BRANCH  16  21
ATOM     17  N   UNL     1       2.295   3.174  19.365  0.00  0.00    +0.000 N 
ATOM     18  C   UNL     1       1.425   2.105  19.329  0.00  0.00    +0.000 A 
ATOM     19  C   UNL     1       0.570   2.391  18.299  0.00  0.00    +0.000 A 
ATOM     20  N   UNL     1       0.967   3.520  17.636  0.00  0.00    +0.000 NA
ATOM     21  C   UNL     1       2.023   3.995  18.284  0.00  0.00    +0.000 A 
BRANCH  17  23
ATOM     22  C   UNL     1       2.430   3.454  21.817  0.00  0.00    +0.000 C 
ATOM     23  C   UNL     1       3.194   3.377  20.499  0.00  0.00    +0.000 C 
ATOM     24  C   UNL     1       4.364   2.395  20.427  0.00  0.00    +0.000 C 
ENDBRANCH  17  23
ENDBRANCH  16  21
ENDBRANCH   1  16
TORSDOF 4
ENDMDL
MODEL 5
REMARK VINA RESULT:      -7.0      4.974      8.141
REMARK  Name = 
REMARK  7 active torsions:
REMARK  status: ('A' for Active; 'I' for Inactive)
REMARK    1  A    between atoms: C_1  and  C_2
REMARK    2  A    between atoms: C_2  and  C_3
REMARK    3  A    between atoms: C_2  and  N_4
REMARK    4  A    between atoms: C_8  and  C_9
REMARK    5  A    between atoms: C_9  and  N_10
REMARK    6  A    between atoms: C_15  and  C_17
REMARK    7  A    between atoms: N_20  and  C_21
REMARK                            x       y       z     vdW  Elec       q    Type
REMARK                         _______ _______ _______ _____ _____    ______ ____
ROOT
ATOM      1  N   UNL     1       4.346   5.198  17.551  0.00  0.00    +0.000 NA
ATOM      2  C   UNL     1       4.990   6.441  17.141  0.00  0.00    +0.000 C 
ATOM      3  C   UNL     1       6.510   6.537  17.065  0.00  0.00    +0.000 C 
ATOM      4  C   UNL     1       7.306   5.584  16.177  0.00  0.00    +0.000 C 
ATOM      5  N   UNL     1       6.541   4.701  15.287  0.00  0.00    +0.000 N 
ATOM      6  C   UNL     1       6.945   4.656  13.934  0.00  0.00    +0.000 C 
ATOM      7  O   UNL     1       7.926   5.324  13.567  0.00  0.00    +0.000 OA
ATOM      8  C   UNL     1       5.907   3.605  16.028  0.00  0.00    +0.000 C 
ATOM      9  C   UNL     1       4.623   3.941  16.836  0.00  0.00    +0.000 C 
ENDROOT
BRANCH   6  10
ATOM     10  C   UNL     1       6.244   3.885  12.885  0.00  0.00    +0.000 A 
ATOM     11  C   UNL     1       6.536   2.648  12.266  0.00  0.00    +0.000 A 
ATOM     12  N   UNL     1       5.612   2.251  11.393  0.00  0.00    +0.000 NA
ATOM     13  N   UNL     1       4.636   3.163  11.521  0.00  0.00    +0.000 N 
ATOM     14  C   UNL     1       3.341   2.910  10.917  0.00  0.00    +0.000 C 
ATOM     15  C   UNL     1       4.981   4.175  12.375  0.00  0.00    +0.000 A 
ENDBRANCH   6  10
BRANCH   1  16
ATOM     16  C   UNL     1       2.862   5.400  17.688  0.00  0.00    +0.000 C 
BRANCH  16  21
ATOM     17  N   UNL     1       1.873   5.148  20.070  0.00  0.00    +0.000 N 
ATOM     18  C   UNL     1       1.407   5.984  21.063  0.00  0.00    +0.000 A 
ATOM     19  C   UNL     1       1.737   7.242  20.640  0.00  0.00    +0.000 A 
ATOM     20  N   UNL     1       2.266   7.208  19.377  0.00  0.00    +0.000 NA
ATOM     21  C   UNL     1       2.344   5.930  19.029  0.00  0.00    +0.000 A 
BRANCH  17  23
ATOM     22  C   UNL     1       2.161   3.355  21.746  0.00  0.00    +0.000 C 
ATOM     23  C   UNL     1       1.954   3.704  20.275  0.00  0.00    +0.000 C 
ATOM     24  C   UNL     1       0.808   3.003  19.546  0.00  0.00    +0.000 C 
ENDBRANCH  17  23
ENDBRANCH  16  21
ENDBRANCH   1  16
TORSDOF 4
ENDMDL
MODEL 6
REMARK VINA RESULT:      -7.0      0.975      1.207
REMARK  Name = 
REMARK  7 active torsions:
REMARK  status: ('A' for Active; 'I' for Inactive)
REMARK    1  A    between atoms: C_1  and  C_2
REMARK    2  A    between atoms: C_2  and  C_3
REMARK    3  A    between atoms: C_2  and  N_4
REMARK    4  A    between atoms: C_8  and  C_9
REMARK    5  A    between atoms: C_9  and  N_10
REMARK    6  A    between atoms: C_15  and  C_17
REMARK    7  A    between atoms: N_20  and  C_21
REMARK                            x       y       z     vdW  Elec       q    Type
REMARK                         _______ _______ _______ _____ _____    ______ ____
ROOT
ATOM      1  N   UNL     1       2.274   7.809  19.022  0.00  0.00    +0.000 NA
ATOM      2  C   UNL     1       1.623   7.692  20.323  0.00  0.00    +0.000 C 
ATOM      3  C   UNL     1       1.560   8.888  21.267  0.00  0.00    +0.000 C 
ATOM      4  C   UNL     1       0.911  10.197  20.823  0.00  0.00    +0.000 C 
ATOM      5  N   UNL     1       0.214  10.194  19.529  0.00  0.00    +0.000 N 
ATOM      6  C   UNL     1      -1.090  10.737  19.509  0.00  0.00    +0.000 C 
ATOM      7  O   UNL     1      -1.570  11.213  20.551  0.00  0.00    +0.000 OA
ATOM      8  C   UNL     1       1.157  10.189  18.407  0.00  0.00    +0.000 C 
ATOM      9  C   UNL     1       1.849   8.841  18.063  0.00  0.00    +0.000 C 
ENDROOT
BRANCH   6  10
ATOM     10  C   UNL     1      -1.965  10.746  18.317  0.00  0.00    +0.000 A 
ATOM     11  C   UNL     1      -3.023  11.599  17.926  0.00  0.00    +0.000 A 
ATOM     12  N   UNL     1      -3.534  11.311  16.731  0.00  0.00    +0.000 NA
ATOM     13  N   UNL     1      -2.733  10.341  16.264  0.00  0.00    +0.000 N 
ATOM     14  C   UNL     1      -2.819   9.958  14.867  0.00  0.00    +0.000 C 
ATOM     15  C   UNL     1      -1.802   9.949  17.187  0.00  0.00    +0.000 A 
ENDBRANCH   6  10
BRANCH   1  16
ATOM     16  C   UNL     1       2.334   6.466  18.347  0.00  0.00    +0.000 C 
BRANCH  16  21
ATOM     17  N   UNL     1       4.119   4.589  18.359  0.00  0.00    +0.000 N 
ATOM     18  C   UNL     1       5.458   4.465  18.051  0.00  0.00    +0.000 A 
ATOM     19  C   UNL     1       5.786   5.653  17.456  0.00  0.00    +0.000 A 
ATOM     20  N   UNL     1       4.736   6.531  17.509  0.00  0.00    +0.000 NA
ATOM     21  C   UNL     1       3.722   5.881  18.065  0.00  0.00    +0.000 A 
BRANCH  17  23
ATOM     22  C   UNL     1       2.706   2.724  17.562  0.00  0.00    +0.000 C 
ATOM     23  C   UNL     1       3.329   3.428  18.764  0.00  0.00    +0.000 C 
ATOM     24  C   UNL     1       4.123   2.565  19.744  0.00  0.00    +0.000 C 
ENDBRANCH  17  23
ENDBRANCH  16  21
ENDBRANCH   1  16
TORSDOF 4
ENDMDL
MODEL 7
REMARK VINA RESULT:      -6.9      1.084      1.513
REMARK  Name = 
REMARK  7 active torsions:
REMARK  status: ('A' for Active; 'I' for Inactive)
REMARK    1  A    between atoms: C_1  and  C_2
REMARK    2  A    between atoms: C_2  and  C_3
REMARK    3  A    between atoms: C_2  and  N_4
REMARK    4  A    between atoms: C_8  and  C_9
REMARK    5  A    between atoms: C_9  and  N_10
REMARK    6  A    between atoms: C_15  and  C_17
REMARK    7  A    between atoms: N_20  and  C_21
REMARK                            x       y       z     vdW  Elec       q    Type
REMARK                         _______ _______ _______ _____ _____    ______ ____
ROOT
ATOM      1  N   UNL     1       2.307   7.612  19.280  0.00  0.00    +0.000 NA
ATOM      2  C   UNL     1       1.600   7.504  20.552  0.00  0.00    +0.000 C 
ATOM      3  C   UNL     1       1.560   8.682  21.518  0.00  0.00    +0.000 C 
ATOM      4  C   UNL     1       0.996  10.030  21.078  0.00  0.00    +0.000 C 
ATOM      5  N   UNL     1       0.351  10.089  19.759  0.00  0.00    +0.000 N 
ATOM      6  C   UNL     1      -0.922  10.698  19.700  0.00  0.00    +0.000 C 
ATOM      7  O   UNL     1      -1.419  11.177  20.733  0.00  0.00    +0.000 OA
ATOM      8  C   UNL     1       1.337  10.058  18.673  0.00  0.00    +0.000 C 
ATOM      9  C   UNL     1       1.973   8.684  18.327  0.00  0.00    +0.000 C 
ENDROOT
BRANCH   6  10
ATOM     10  C   UNL     1      -1.748  10.775  18.476  0.00  0.00    +0.000 A 
ATOM     11  C   UNL     1      -1.737  10.024  17.278  0.00  0.00    +0.000 A 
ATOM     12  N   UNL     1      -2.697  10.363  16.420  0.00  0.00    +0.000 NA
ATOM     13  N   UNL     1      -3.432  11.258  17.098  0.00  0.00    +0.000 N 
ATOM     14  C   UNL     1      -4.728  11.655  16.578  0.00  0.00    +0.000 C 
ATOM     15  C   UNL     1      -2.887  11.560  18.316  0.00  0.00    +0.000 A 
ENDBRANCH   6  10
BRANCH   1  16
ATOM     16  C   UNL     1       2.327   6.282  18.579  0.00  0.00    +0.000 C 
BRANCH  16  21
ATOM     17  N   UNL     1       4.115   4.411  18.450  0.00  0.00    +0.000 N 
ATOM     18  C   UNL     1       5.431   4.297  18.053  0.00  0.00    +0.000 A 
ATOM     19  C   UNL     1       5.715   5.493  17.453  0.00  0.00    +0.000 A 
ATOM     20  N   UNL     1       4.669   6.366  17.586  0.00  0.00    +0.000 NA
ATOM     21  C   UNL     1       3.695   5.706  18.199  0.00  0.00    +0.000 A 
BRANCH  17  23
ATOM     22  C   UNL     1       2.655   2.553  17.723  0.00  0.00    +0.000 C 
ATOM     23  C   UNL     1       3.356   3.243  18.891  0.00  0.00    +0.000 C 
ATOM     24  C   UNL     1       4.216   2.369  19.803  0.00  0.00    +0.000 C 
ENDBRANCH  17  23
ENDBRANCH  16  21
ENDBRANCH   1  16
TORSDOF 4
ENDMDL
MODEL 8
REMARK VINA RESULT:      -6.9      3.067      7.767
REMARK  Name = 
REMARK  7 active torsions:
REMARK  status: ('A' for Active; 'I' for Inactive)
REMARK    1  A    between atoms: C_1  and  C_2
REMARK    2  A    between atoms: C_2  and  C_3
REMARK    3  A    between atoms: C_2  and  N_4
REMARK    4  A    between atoms: C_8  and  C_9
REMARK    5  A    between atoms: C_9  and  N_10
REMARK    6  A    between atoms: C_15  and  C_17
REMARK    7  A    between atoms: N_20  and  C_21
REMARK                            x       y       z     vdW  Elec       q    Type
REMARK                         _______ _______ _______ _____ _____    ______ ____
ROOT
ATOM      1  N   UNL     1       1.590   7.155  20.332  0.00  0.00    +0.000 NA
ATOM      2  C   UNL     1       1.755   5.825  20.909  0.00  0.00    +0.000 C 
ATOM      3  C   UNL     1       1.355   4.584  20.118  0.00  0.00    +0.000 C 
ATOM      4  C   UNL     1       1.973   4.300  18.752  0.00  0.00    +0.000 C 
ATOM      5  N   UNL     1       3.075   5.171  18.320  0.00  0.00    +0.000 N 
ATOM      6  C   UNL     1       4.237   4.533  17.833  0.00  0.00    +0.000 C 
ATOM      7  O   UNL     1       4.269   3.293  17.761  0.00  0.00    +0.000 OA
ATOM      8  C   UNL     1       2.589   6.493  17.912  0.00  0.00    +0.000 C 
ATOM      9  C   UNL     1       2.210   7.492  19.040  0.00  0.00    +0.000 C 
ENDROOT
BRANCH   6  10
ATOM     10  C   UNL     1       5.467   5.247  17.429  0.00  0.00    +0.000 A 
ATOM     11  C   UNL     1       6.208   5.249  16.225  0.00  0.00    +0.000 A 
ATOM     12  N   UNL     1       7.243   6.088  16.231  0.00  0.00    +0.000 NA
ATOM     13  N   UNL     1       7.120   6.743  17.395  0.00  0.00    +0.000 N 
ATOM     14  C   UNL     1       7.920   7.930  17.632  0.00  0.00    +0.000 C 
ATOM     15  C   UNL     1       6.094   6.254  18.158  0.00  0.00    +0.000 A 
ENDBRANCH   6  10
BRANCH   1  16
ATOM     16  C   UNL     1       1.914   8.210  21.354  0.00  0.00    +0.000 C 
BRANCH  16  21
ATOM     17  N   UNL     1       0.201  10.112  20.950  0.00  0.00    +0.000 N 
ATOM     18  C   UNL     1      -0.702  10.834  21.701  0.00  0.00    +0.000 A 
ATOM     19  C   UNL     1      -0.725  10.202  22.915  0.00  0.00    +0.000 A 
ATOM     20  N   UNL     1       0.218   9.211  22.966  0.00  0.00    +0.000 NA
ATOM     21  C   UNL     1       0.786   9.160  21.768  0.00  0.00    +0.000 A 
BRANCH  17  23
ATOM     22  C   UNL     1      -1.065  10.326  18.837  0.00  0.00    +0.000 C 
ATOM     23  C   UNL     1       0.307  10.307  19.506  0.00  0.00    +0.000 C 
ATOM     24  C   UNL     1       1.249  11.471  19.199  0.00  0.00    +0.000 C 
ENDBRANCH  17  23
ENDBRANCH  16  21
ENDBRANCH   1  16
TORSDOF 4
ENDMDL
MODEL 9
REMARK VINA RESULT:      -6.9      5.314      8.197
REMARK  Name = 
REMARK  7 active torsions:
REMARK  status: ('A' for Active; 'I' for Inactive)
REMARK    1  A    between atoms: C_1  and  C_2
REMARK    2  A    between atoms: C_2  and  C_3
REMARK    3  A    between atoms: C_2  and  N_4
REMARK    4  A    between atoms: C_8  and  C_9
REMARK    5  A    between atoms: C_9  and  N_10
REMARK    6  A    between atoms: C_15  and  C_17
REMARK    7  A    between atoms: N_20  and  C_21
REMARK                            x       y       z     vdW  Elec       q    Type
REMARK                         _______ _______ _______ _____ _____    ______ ____
ROOT
ATOM      1  N   UNL     1       4.128   5.455  17.744  0.00  0.00    +0.000 NA
ATOM      2  C   UNL     1       4.648   6.711  17.211  0.00  0.00    +0.000 C 
ATOM      3  C   UNL     1       6.150   6.954  17.128  0.00  0.00    +0.000 C 
ATOM      4  C   UNL     1       7.050   6.003  16.343  0.00  0.00    +0.000 C 
ATOM      5  N   UNL     1       6.390   4.960  15.545  0.00  0.00    +0.000 N 
ATOM      6  C   UNL     1       6.813   4.822  14.205  0.00  0.00    +0.000 C 
ATOM      7  O   UNL     1       7.725   5.546  13.774  0.00  0.00    +0.000 OA
ATOM      8  C   UNL     1       5.862   3.886  16.393  0.00  0.00    +0.000 C 
ATOM      9  C   UNL     1       4.541   4.168  17.161  0.00  0.00    +0.000 C 
ENDROOT
BRANCH   6  10
ATOM     10  C   UNL     1       6.207   3.881  13.239  0.00  0.00    +0.000 A 
ATOM     11  C   UNL     1       4.961   3.883  12.570  0.00  0.00    +0.000 A 
ATOM     12  N   UNL     1       4.807   2.874  11.715  0.00  0.00    +0.000 NA
ATOM     13  N   UNL     1       6.002   2.265  11.717  0.00  0.00    +0.000 N 
ATOM     14  C   UNL     1       6.298   1.275  10.698  0.00  0.00    +0.000 C 
ATOM     15  C   UNL     1       6.860   2.810  12.633  0.00  0.00    +0.000 A 
ENDBRANCH   6  10
BRANCH   1  16
ATOM     16  C   UNL     1       2.630   5.517  17.858  0.00  0.00    +0.000 C 
BRANCH  16  21
ATOM     17  N   UNL     1       1.883   3.757  19.606  0.00  0.00    +0.000 N 
ATOM     18  C   UNL     1       1.216   2.549  19.602  0.00  0.00    +0.000 A 
ATOM     19  C   UNL     1       0.744   2.419  18.325  0.00  0.00    +0.000 A 
ATOM     20  N   UNL     1       1.206   3.433  17.529  0.00  0.00    +0.000 NA
ATOM     21  C   UNL     1       1.905   4.246  18.311  0.00  0.00    +0.000 A 
BRANCH  17  23
ATOM     22  C   UNL     1       1.644   5.749  21.050  0.00  0.00    +0.000 C 
ATOM     23  C   UNL     1       2.300   4.384  20.858  0.00  0.00    +0.000 C 
ATOM     24  C   UNL     1       2.187   3.387  22.011  0.00  0.00    +0.000 C 
ENDBRANCH  17  23
ENDBRANCH  16  21
ENDBRANCH   1  16
TORSDOF 4
ENDMDL
