MODEL 1
REMARK VINA RESULT:      -8.1      0.000      0.000
REMARK  Name = 
REMARK  5 active torsions:
REMARK  status: ('A' for Active; 'I' for Inactive)
REMARK    1  A    between atoms: C_1  and  S_2
REMARK    2  A    between atoms: S_2  and  C_5
REMARK    3  A    between atoms: N_8  and  C_9
REMARK    4  A    between atoms: N_23  and  C_24
REMARK    5  A    between atoms: C_27  and  O_28
REMARK                            x       y       z     vdW  Elec       q    Type
REMARK                         _______ _______ _______ _____ _____    ______ ____
ROOT
ATOM      1  C   UNL     1       2.265   6.967  19.563  0.00  0.00    +0.000 A 
ATOM      2  C   UNL     1       1.660   6.639  20.792  0.00  0.00    +0.000 A 
ATOM      3  C   UNL     1       0.868   7.539  21.498  0.00  0.00    +0.000 A 
ATOM      4  C   UNL     1       0.651   8.826  21.013  0.00  0.00    +0.000 A 
ATOM      5  C   UNL     1       1.247   9.198  19.794  0.00  0.00    +0.000 A 
ATOM      6  C   UNL     1       2.048   8.293  19.082  0.00  0.00    +0.000 A 
ATOM      7  C   UNL     1       2.512   8.983  17.929  0.00  0.00    +0.000 A 
ATOM      8  C   UNL     1       1.914  10.211  17.894  0.00  0.00    +0.000 A 
ATOM      9  N   UNL     1       1.170  10.381  19.043  0.00  0.00    +0.000 N 
ATOM     10  C   UNL     1       0.418  11.559  19.358  0.00  0.00    +0.000 A 
ATOM     11  C   UNL     1       0.256  12.534  18.395  0.00  0.00    +0.000 A 
ATOM     12  C   UNL     1      -0.582  13.566  18.730  0.00  0.00    +0.000 A 
ATOM     13  N   UNL     1      -1.240  13.638  19.901  0.00  0.00    +0.000 NA
ATOM     14  C   UNL     1      -0.985  12.684  20.794  0.00  0.00    +0.000 A 
ATOM     15  N   UNL     1      -1.571  12.697  22.034  0.00  0.00    +0.000 N 
ATOM     16  N   UNL     1      -0.156  11.660  20.572  0.00  0.00    +0.000 NA
ATOM     17  H   UNL     1      -0.873  12.563  22.753  0.00  0.00    +0.000 HD
ENDROOT
BRANCH   1  21
ATOM     18  C   UNL     1       4.589   3.871  17.885  0.00  0.00    +0.000 C 
ATOM     19  C   UNL     1       3.084   3.998  17.619  0.00  0.00    +0.000 C 
ATOM     20  C   UNL     1       2.588   5.444  17.626  0.00  0.00    +0.000 C 
ATOM     21  N   UNL     1       3.050   6.060  18.862  0.00  0.00    +0.000 N 
ATOM     22  C   UNL     1       4.506   6.134  19.016  0.00  0.00    +0.000 C 
ATOM     23  C   UNL     1       5.021   4.701  19.103  0.00  0.00    +0.000 C 
BRANCH  18  25
ATOM     24  C   UNL     1       7.238   4.583  17.129  0.00  0.00    +0.000 C 
ATOM     25  S   UNL     1       5.622   4.279  16.466  0.00  0.00    +0.000 S 
ATOM     26  O   UNL     1       5.146   5.543  15.936  0.00  0.00    +0.000 OA
ATOM     27  O   UNL     1       5.738   3.122  15.594  0.00  0.00    +0.000 OA
ENDBRANCH  18  25
ENDBRANCH   1  21
BRANCH  15  28
ATOM     28  C   UNL     1      -2.749  13.483  22.329  0.00  0.00    +0.000 C 
ATOM     29  C   UNL     1      -3.963  12.582  22.025  0.00  0.00    +0.000 C 
ATOM     30  C   UNL     1      -5.285  13.213  22.441  0.00  0.00    +0.000 C 
ATOM     31  C   UNL     1      -5.255  13.612  23.913  0.00  0.00    +0.000 C 
ATOM     32  C   UNL     1      -4.103  14.575  24.186  0.00  0.00    +0.000 C 
ATOM     33  C   UNL     1      -2.757  13.975  23.779  0.00  0.00    +0.000 C 
BRANCH  31  34
ATOM     34  O   UNL     1      -6.490  14.216  24.275  0.00  0.00    +0.000 OA
ATOM     35  H   UNL     1      -7.213  13.662  23.935  0.00  0.00    +0.000 HD
ENDBRANCH  31  34
ENDBRANCH  15  28
TORSDOF 4
ENDMDL
MODEL 2
REMARK VINA RESULT:      -7.9      3.643     10.811
REMARK  Name = 
REMARK  5 active torsions:
REMARK  status: ('A' for Active; 'I' for Inactive)
REMARK    1  A    between atoms: C_1  and  S_2
REMARK    2  A    between atoms: S_2  and  C_5
REMARK    3  A    between atoms: N_8  and  C_9
REMARK    4  A    between atoms: N_23  and  C_24
REMARK    5  A    between atoms: C_27  and  O_28
REMARK                            x       y       z     vdW  Elec       q    Type
REMARK                         _______ _______ _______ _____ _____    ______ ____
ROOT
ATOM      1  C   UNL     1      -0.977  11.631  22.433  0.00  0.00    +0.000 A 
ATOM      2  C   UNL     1      -1.111  10.531  23.305  0.00  0.00    +0.000 A 
ATOM      3  C   UNL     1      -0.616   9.269  22.996  0.00  0.00    +0.000 A 
ATOM      4  C   UNL     1       0.031   9.036  21.785  0.00  0.00    +0.000 A 
ATOM      5  C   UNL     1       0.175  10.105  20.880  0.00  0.00    +0.000 A 
ATOM      6  C   UNL     1      -0.326  11.378  21.189  0.00  0.00    +0.000 A 
ATOM      7  C   UNL     1      -0.044  12.207  20.069  0.00  0.00    +0.000 A 
ATOM      8  C   UNL     1       0.701  11.486  19.178  0.00  0.00    +0.000 A 
ATOM      9  N   UNL     1       0.813  10.188  19.633  0.00  0.00    +0.000 N 
ATOM     10  C   UNL     1       1.512   9.143  18.947  0.00  0.00    +0.000 A 
ATOM     11  C   UNL     1       2.288   9.458  17.850  0.00  0.00    +0.000 A 
ATOM     12  C   UNL     1       3.026   8.427  17.328  0.00  0.00    +0.000 A 
ATOM     13  N   UNL     1       3.037   7.185  17.846  0.00  0.00    +0.000 NA
ATOM     14  C   UNL     1       2.217   6.954  18.871  0.00  0.00    +0.000 A 
ATOM     15  N   UNL     1       2.122   5.708  19.437  0.00  0.00    +0.000 N 
ATOM     16  N   UNL     1       1.435   7.886  19.422  0.00  0.00    +0.000 NA
ATOM     17  H   UNL     1       1.152   5.438  19.526  0.00  0.00    +0.000 HD
ENDROOT
BRANCH   1  21
ATOM     18  C   UNL     1      -2.528  15.533  22.844  0.00  0.00    +0.000 C 
ATOM     19  C   UNL     1      -3.424  14.290  22.883  0.00  0.00    +0.000 C 
ATOM     20  C   UNL     1      -2.729  13.058  23.465  0.00  0.00    +0.000 C 
ATOM     21  N   UNL     1      -1.470  12.889  22.753  0.00  0.00    +0.000 N 
ATOM     22  C   UNL     1      -0.518  13.995  22.896  0.00  0.00    +0.000 C 
ATOM     23  C   UNL     1      -1.150  15.219  22.242  0.00  0.00    +0.000 C 
BRANCH  18  25
ATOM     24  C   UNL     1      -3.961  16.843  24.923  0.00  0.00    +0.000 C 
ATOM     25  S   UNL     1      -2.329  16.345  24.441  0.00  0.00    +0.000 S 
ATOM     26  O   UNL     1      -1.573  17.562  24.215  0.00  0.00    +0.000 OA
ATOM     27  O   UNL     1      -1.877  15.380  25.429  0.00  0.00    +0.000 OA
ENDBRANCH  18  25
ENDBRANCH   1  21
BRANCH  15  28
ATOM     28  C   UNL     1       3.128   4.687  19.241  0.00  0.00    +0.000 C 
ATOM     29  C   UNL     1       2.926   3.654  20.368  0.00  0.00    +0.000 C 
ATOM     30  C   UNL     1       3.810   2.424  20.205  0.00  0.00    +0.000 C 
ATOM     31  C   UNL     1       3.604   1.787  18.835  0.00  0.00    +0.000 C 
ATOM     32  C   UNL     1       3.893   2.792  17.724  0.00  0.00    +0.000 C 
ATOM     33  C   UNL     1       3.023   4.043  17.855  0.00  0.00    +0.000 C 
BRANCH  31  34
ATOM     34  O   UNL     1       4.452   0.653  18.697  0.00  0.00    +0.000 OA
ATOM     35  H   UNL     1       3.961  -0.134  18.989  0.00  0.00    +0.000 HD
ENDBRANCH  31  34
ENDBRANCH  15  28
TORSDOF 4
ENDMDL
MODEL 3
REMARK VINA RESULT:      -7.9      3.558     10.783
REMARK  Name = 
REMARK  5 active torsions:
REMARK  status: ('A' for Active; 'I' for Inactive)
REMARK    1  A    between atoms: C_1  and  S_2
REMARK    2  A    between atoms: S_2  and  C_5
REMARK    3  A    between atoms: N_8  and  C_9
REMARK    4  A    between atoms: N_23  and  C_24
REMARK    5  A    between atoms: C_27  and  O_28
REMARK                            x       y       z     vdW  Elec       q    Type
REMARK                         _______ _______ _______ _____ _____    ______ ____
ROOT
ATOM      1  C   UNL     1      -1.010  11.611  22.468  0.00  0.00    +0.000 A 
ATOM      2  C   UNL     1      -1.134  10.515  23.346  0.00  0.00    +0.000 A 
ATOM      3  C   UNL     1      -0.634   9.254  23.041  0.00  0.00    +0.000 A 
ATOM      4  C   UNL     1       0.009   9.019  21.829  0.00  0.00    +0.000 A 
ATOM      5  C   UNL     1       0.143  10.083  20.918  0.00  0.00    +0.000 A 
ATOM      6  C   UNL     1      -0.363  11.355  21.222  0.00  0.00    +0.000 A 
ATOM      7  C   UNL     1      -0.091  12.179  20.096  0.00  0.00    +0.000 A 
ATOM      8  C   UNL     1       0.654  11.458  19.206  0.00  0.00    +0.000 A 
ATOM      9  N   UNL     1       0.774  10.163  19.667  0.00  0.00    +0.000 N 
ATOM     10  C   UNL     1       1.475   9.118  18.983  0.00  0.00    +0.000 A 
ATOM     11  C   UNL     1       2.244   9.431  17.880  0.00  0.00    +0.000 A 
ATOM     12  C   UNL     1       2.985   8.401  17.361  0.00  0.00    +0.000 A 
ATOM     13  N   UNL     1       3.004   7.162  17.885  0.00  0.00    +0.000 NA
ATOM     14  C   UNL     1       2.191   6.932  18.915  0.00  0.00    +0.000 A 
ATOM     15  N   UNL     1       2.104   5.689  19.488  0.00  0.00    +0.000 N 
ATOM     16  N   UNL     1       1.407   7.863  19.465  0.00  0.00    +0.000 NA
ATOM     17  H   UNL     1       1.136   5.414  19.583  0.00  0.00    +0.000 HD
ENDROOT
BRANCH   1  21
ATOM     18  C   UNL     1      -2.659  15.208  23.930  0.00  0.00    +0.000 C 
ATOM     19  C   UNL     1      -1.164  14.888  24.049  0.00  0.00    +0.000 C 
ATOM     20  C   UNL     1      -0.635  14.029  22.900  0.00  0.00    +0.000 C 
ATOM     21  N   UNL     1      -1.508  12.868  22.784  0.00  0.00    +0.000 N 
ATOM     22  C   UNL     1      -2.904  13.169  22.452  0.00  0.00    +0.000 C 
ATOM     23  C   UNL     1      -3.486  13.950  23.625  0.00  0.00    +0.000 C 
BRANCH  18  25
ATOM     24  C   UNL     1      -3.036  18.015  23.651  0.00  0.00    +0.000 C 
ATOM     25  S   UNL     1      -3.039  16.499  22.731  0.00  0.00    +0.000 S 
ATOM     26  O   UNL     1      -4.404  16.285  22.286  0.00  0.00    +0.000 OA
ATOM     27  O   UNL     1      -1.964  16.598  21.758  0.00  0.00    +0.000 OA
ENDBRANCH  18  25
ENDBRANCH   1  21
BRANCH  15  28
ATOM     28  C   UNL     1       3.114   4.671  19.293  0.00  0.00    +0.000 C 
ATOM     29  C   UNL     1       2.884   3.611  20.388  0.00  0.00    +0.000 C 
ATOM     30  C   UNL     1       3.771   2.385  20.217  0.00  0.00    +0.000 C 
ATOM     31  C   UNL     1       3.599   1.782  18.827  0.00  0.00    +0.000 C 
ATOM     32  C   UNL     1       3.917   2.814  17.749  0.00  0.00    +0.000 C 
ATOM     33  C   UNL     1       3.045   4.062  17.889  0.00  0.00    +0.000 C 
BRANCH  31  34
ATOM     34  O   UNL     1       4.450   0.651  18.683  0.00  0.00    +0.000 OA
ATOM     35  H   UNL     1       4.047  -0.097  19.156  0.00  0.00    +0.000 HD
ENDBRANCH  31  34
ENDBRANCH  15  28
TORSDOF 4
ENDMDL
MODEL 4
REMARK VINA RESULT:      -7.8      0.986      1.213
REMARK  Name = 
REMARK  5 active torsions:
REMARK  status: ('A' for Active; 'I' for Inactive)
REMARK    1  A    between atoms: C_1  and  S_2
REMARK    2  A    between atoms: S_2  and  C_5
REMARK    3  A    between atoms: N_8  and  C_9
REMARK    4  A    between atoms: N_23  and  C_24
REMARK    5  A    between atoms: C_27  and  O_28
REMARK                            x       y       z     vdW  Elec       q    Type
REMARK                         _______ _______ _______ _____ _____    ______ ____
ROOT
ATOM      1  C   UNL     1       2.609   6.806  19.409  0.00  0.00    +0.000 A 
ATOM      2  C   UNL     1       1.999   6.352  20.595  0.00  0.00    +0.000 A 
ATOM      3  C   UNL     1       1.083   7.122  21.306  0.00  0.00    +0.000 A 
ATOM      4  C   UNL     1       0.739   8.398  20.869  0.00  0.00    +0.000 A 
ATOM      5  C   UNL     1       1.334   8.894  19.695  0.00  0.00    +0.000 A 
ATOM      6  C   UNL     1       2.260   8.121  18.979  0.00  0.00    +0.000 A 
ATOM      7  C   UNL     1       2.685   8.914  17.878  0.00  0.00    +0.000 A 
ATOM      8  C   UNL     1       1.952  10.068  17.872  0.00  0.00    +0.000 A 
ATOM      9  N   UNL     1       1.150  10.097  18.995  0.00  0.00    +0.000 N 
ATOM     10  C   UNL     1       0.257  11.165  19.329  0.00  0.00    +0.000 A 
ATOM     11  C   UNL     1       0.022  12.162  18.404  0.00  0.00    +0.000 A 
ATOM     12  C   UNL     1      -0.941  13.076  18.748  0.00  0.00    +0.000 A 
ATOM     13  N   UNL     1      -1.647  13.016  19.891  0.00  0.00    +0.000 NA
ATOM     14  C   UNL     1      -1.318  12.054  20.752  0.00  0.00    +0.000 A 
ATOM     15  N   UNL     1      -1.948  11.940  21.965  0.00  0.00    +0.000 N 
ATOM     16  N   UNL     1      -0.370  11.141  20.520  0.00  0.00    +0.000 NA
ATOM     17  H   UNL     1      -1.267  11.850  22.706  0.00  0.00    +0.000 HD
ENDROOT
BRANCH   1  21
ATOM     18  C   UNL     1       5.295   4.055  17.673  0.00  0.00    +0.000 C 
ATOM     19  C   UNL     1       3.816   4.112  17.275  0.00  0.00    +0.000 C 
ATOM     20  C   UNL     1       3.215   5.515  17.374  0.00  0.00    +0.000 C 
ATOM     21  N   UNL     1       3.517   6.028  18.703  0.00  0.00    +0.000 N 
ATOM     22  C   UNL     1       4.944   6.179  19.004  0.00  0.00    +0.000 C 
ATOM     23  C   UNL     1       5.554   4.781  19.001  0.00  0.00    +0.000 C 
BRANCH  18  25
ATOM     24  C   UNL     1       6.084   3.701  14.962  0.00  0.00    +0.000 C 
ATOM     25  S   UNL     1       6.419   4.673  16.406  0.00  0.00    +0.000 S 
ATOM     26  O   UNL     1       7.767   4.342  16.827  0.00  0.00    +0.000 OA
ATOM     27  O   UNL     1       6.077   6.046  16.074  0.00  0.00    +0.000 OA
ENDBRANCH  18  25
ENDBRANCH   1  21
BRANCH  15  28
ATOM     28  C   UNL     1      -3.219  12.573  22.243  0.00  0.00    +0.000 C 
ATOM     29  C   UNL     1      -3.554  12.253  23.713  0.00  0.00    +0.000 C 
ATOM     30  C   UNL     1      -4.792  12.989  24.210  0.00  0.00    +0.000 C 
ATOM     31  C   UNL     1      -4.649  14.492  23.996  0.00  0.00    +0.000 C 
ATOM     32  C   UNL     1      -4.406  14.806  22.522  0.00  0.00    +0.000 C 
ATOM     33  C   UNL     1      -3.171  14.083  21.988  0.00  0.00    +0.000 C 
BRANCH  31  34
ATOM     34  O   UNL     1      -5.822  15.158  24.448  0.00  0.00    +0.000 OA
ATOM     35  H   UNL     1      -6.407  14.501  24.861  0.00  0.00    +0.000 HD
ENDBRANCH  31  34
ENDBRANCH  15  28
TORSDOF 4
ENDMDL
MODEL 5
REMARK VINA RESULT:      -7.8      3.095     11.021
REMARK  Name = 
REMARK  5 active torsions:
REMARK  status: ('A' for Active; 'I' for Inactive)
REMARK    1  A    between atoms: C_1  and  S_2
REMARK    2  A    between atoms: S_2  and  C_5
REMARK    3  A    between atoms: N_8  and  C_9
REMARK    4  A    between atoms: N_23  and  C_24
REMARK    5  A    between atoms: C_27  and  O_28
REMARK                            x       y       z     vdW  Elec       q    Type
REMARK                         _______ _______ _______ _____ _____    ______ ____
ROOT
ATOM      1  C   UNL     1      -0.167  11.015  20.079  0.00  0.00    +0.000 A 
ATOM      2  C   UNL     1       0.590  11.548  19.016  0.00  0.00    +0.000 A 
ATOM      3  C   UNL     1       1.627  10.843  18.412  0.00  0.00    +0.000 A 
ATOM      4  C   UNL     1       1.970   9.568  18.852  0.00  0.00    +0.000 A 
ATOM      5  C   UNL     1       1.247   9.005  19.920  0.00  0.00    +0.000 A 
ATOM      6  C   UNL     1       0.203   9.714  20.532  0.00  0.00    +0.000 A 
ATOM      7  C   UNL     1      -0.291   8.885  21.576  0.00  0.00    +0.000 A 
ATOM      8  C   UNL     1       0.353   7.682  21.512  0.00  0.00    +0.000 A 
ATOM      9  N   UNL     1       1.326   7.746  20.535  0.00  0.00    +0.000 N 
ATOM     10  C   UNL     1       2.212   6.672  20.199  0.00  0.00    +0.000 A 
ATOM     11  C   UNL     1       1.991   5.421  20.739  0.00  0.00    +0.000 A 
ATOM     12  C   UNL     1       2.802   4.420  20.269  0.00  0.00    +0.000 A 
ATOM     13  N   UNL     1       3.741   4.607  19.324  0.00  0.00    +0.000 NA
ATOM     14  C   UNL     1       3.925   5.855  18.897  0.00  0.00    +0.000 A 
ATOM     15  N   UNL     1       4.891   6.155  17.970  0.00  0.00    +0.000 N 
ATOM     16  N   UNL     1       3.209   6.900  19.323  0.00  0.00    +0.000 NA
ATOM     17  H   UNL     1       5.445   6.939  18.283  0.00  0.00    +0.000 HD
ENDROOT
BRANCH   1  21
ATOM     18  C   UNL     1      -2.975  13.617  21.853  0.00  0.00    +0.000 C 
ATOM     19  C   UNL     1      -2.953  13.347  20.344  0.00  0.00    +0.000 C 
ATOM     20  C   UNL     1      -2.472  11.939  19.988  0.00  0.00    +0.000 C 
ATOM     21  N   UNL     1      -1.205  11.723  20.672  0.00  0.00    +0.000 N 
ATOM     22  C   UNL     1      -1.271  11.767  22.136  0.00  0.00    +0.000 C 
ATOM     23  C   UNL     1      -1.661  13.189  22.525  0.00  0.00    +0.000 C 
BRANCH  18  25
ATOM     24  C   UNL     1      -5.226  14.222  23.484  0.00  0.00    +0.000 C 
ATOM     25  S   UNL     1      -4.374  12.873  22.711  0.00  0.00    +0.000 S 
ATOM     26  O   UNL     1      -3.838  12.053  23.781  0.00  0.00    +0.000 OA
ATOM     27  O   UNL     1      -5.294  12.297  21.744  0.00  0.00    +0.000 OA
ENDBRANCH  18  25
ENDBRANCH   1  21
BRANCH  15  28
ATOM     28  C   UNL     1       5.500   5.147  17.130  0.00  0.00    +0.000 C 
ATOM     29  C   UNL     1       4.393   4.638  16.186  0.00  0.00    +0.000 C 
ATOM     30  C   UNL     1       4.918   3.682  15.123  0.00  0.00    +0.000 C 
ATOM     31  C   UNL     1       6.057   4.321  14.336  0.00  0.00    +0.000 C 
ATOM     32  C   UNL     1       7.188   4.741  15.270  0.00  0.00    +0.000 C 
ATOM     33  C   UNL     1       6.698   5.701  16.353  0.00  0.00    +0.000 C 
BRANCH  31  34
ATOM     34  O   UNL     1       6.545   3.405  13.362  0.00  0.00    +0.000 OA
ATOM     35  H   UNL     1       6.090   3.581  12.521  0.00  0.00    +0.000 HD
ENDBRANCH  31  34
ENDBRANCH  15  28
TORSDOF 4
ENDMDL
MODEL 6
REMARK VINA RESULT:      -7.7      3.586     10.847
REMARK  Name = 
REMARK  5 active torsions:
REMARK  status: ('A' for Active; 'I' for Inactive)
REMARK    1  A    between atoms: C_1  and  S_2
REMARK    2  A    between atoms: S_2  and  C_5
REMARK    3  A    between atoms: N_8  and  C_9
REMARK    4  A    between atoms: N_23  and  C_24
REMARK    5  A    between atoms: C_27  and  O_28
REMARK                            x       y       z     vdW  Elec       q    Type
REMARK                         _______ _______ _______ _____ _____    ______ ____
ROOT
ATOM      1  C   UNL     1      -1.086  11.973  22.266  0.00  0.00    +0.000 A 
ATOM      2  C   UNL     1      -1.203  10.952  23.231  0.00  0.00    +0.000 A 
ATOM      3  C   UNL     1      -0.689   9.675  23.033  0.00  0.00    +0.000 A 
ATOM      4  C   UNL     1      -0.039   9.347  21.846  0.00  0.00    +0.000 A 
ATOM      5  C   UNL     1       0.089  10.334  20.852  0.00  0.00    +0.000 A 
ATOM      6  C   UNL     1      -0.431  11.622  21.048  0.00  0.00    +0.000 A 
ATOM      7  C   UNL     1      -0.161  12.353  19.859  0.00  0.00    +0.000 A 
ATOM      8  C   UNL     1       0.595  11.569  19.034  0.00  0.00    +0.000 A 
ATOM      9  N   UNL     1       0.726  10.317  19.601  0.00  0.00    +0.000 N 
ATOM     10  C   UNL     1       1.441   9.227  19.008  0.00  0.00    +0.000 A 
ATOM     11  C   UNL     1       2.211   9.456  17.886  0.00  0.00    +0.000 A 
ATOM     12  C   UNL     1       2.965   8.394  17.456  0.00  0.00    +0.000 A 
ATOM     13  N   UNL     1       2.994   7.203  18.081  0.00  0.00    +0.000 NA
ATOM     14  C   UNL     1       2.178   7.050  19.123  0.00  0.00    +0.000 A 
ATOM     15  N   UNL     1       2.101   5.857  19.796  0.00  0.00    +0.000 N 
ATOM     16  N   UNL     1       1.382   8.015  19.592  0.00  0.00    +0.000 NA
ATOM     17  H   UNL     1       1.135   5.581  19.909  0.00  0.00    +0.000 HD
ENDROOT
BRANCH   1  21
ATOM     18  C   UNL     1      -2.196  16.029  22.599  0.00  0.00    +0.000 C 
ATOM     19  C   UNL     1      -2.737  15.123  21.486  0.00  0.00    +0.000 C 
ATOM     20  C   UNL     1      -2.874  13.660  21.909  0.00  0.00    +0.000 C 
ATOM     21  N   UNL     1      -1.597  13.247  22.475  0.00  0.00    +0.000 N 
ATOM     22  C   UNL     1      -1.183  13.976  23.677  0.00  0.00    +0.000 C 
ATOM     23  C   UNL     1      -0.951  15.426  23.265  0.00  0.00    +0.000 C 
BRANCH  18  25
ATOM     24  C   UNL     1      -2.480  17.001  25.258  0.00  0.00    +0.000 C 
ATOM     25  S   UNL     1      -3.416  16.459  23.853  0.00  0.00    +0.000 S 
ATOM     26  O   UNL     1      -4.082  15.231  24.246  0.00  0.00    +0.000 OA
ATOM     27  O   UNL     1      -4.199  17.600  23.407  0.00  0.00    +0.000 OA
ENDBRANCH  18  25
ENDBRANCH   1  21
BRANCH  15  28
ATOM     28  C   UNL     1       3.122   4.838  19.689  0.00  0.00    +0.000 C 
ATOM     29  C   UNL     1       2.686   3.684  20.615  0.00  0.00    +0.000 C 
ATOM     30  C   UNL     1       3.580   2.458  20.490  0.00  0.00    +0.000 C 
ATOM     31  C   UNL     1       3.662   1.994  19.040  0.00  0.00    +0.000 C 
ATOM     32  C   UNL     1       4.179   3.115  18.144  0.00  0.00    +0.000 C 
ATOM     33  C   UNL     1       3.306   4.365  18.244  0.00  0.00    +0.000 C 
BRANCH  31  34
ATOM     34  O   UNL     1       4.516   0.860  18.943  0.00  0.00    +0.000 OA
ATOM     35  H   UNL     1       4.722   0.711  18.004  0.00  0.00    +0.000 HD
ENDBRANCH  31  34
ENDBRANCH  15  28
TORSDOF 4
ENDMDL
MODEL 7
REMARK VINA RESULT:      -7.7      3.203     11.060
REMARK  Name = 
REMARK  5 active torsions:
REMARK  status: ('A' for Active; 'I' for Inactive)
REMARK    1  A    between atoms: C_1  and  S_2
REMARK    2  A    between atoms: S_2  and  C_5
REMARK    3  A    between atoms: N_8  and  C_9
REMARK    4  A    between atoms: N_23  and  C_24
REMARK    5  A    between atoms: C_27  and  O_28
REMARK                            x       y       z     vdW  Elec       q    Type
REMARK                         _______ _______ _______ _____ _____    ______ ____
ROOT
ATOM      1  C   UNL     1      -0.298  11.101  20.029  0.00  0.00    +0.000 A 
ATOM      2  C   UNL     1       0.474  11.612  18.968  0.00  0.00    +0.000 A 
ATOM      3  C   UNL     1       1.519  10.896  18.392  0.00  0.00    +0.000 A 
ATOM      4  C   UNL     1       1.855   9.629  18.861  0.00  0.00    +0.000 A 
ATOM      5  C   UNL     1       1.116   9.087  19.929  0.00  0.00    +0.000 A 
ATOM      6  C   UNL     1       0.064   9.808  20.512  0.00  0.00    +0.000 A 
ATOM      7  C   UNL     1      -0.446   8.999  21.565  0.00  0.00    +0.000 A 
ATOM      8  C   UNL     1       0.198   7.795  21.532  0.00  0.00    +0.000 A 
ATOM      9  N   UNL     1       1.185   7.839  20.568  0.00  0.00    +0.000 N 
ATOM     10  C   UNL     1       2.074   6.759  20.265  0.00  0.00    +0.000 A 
ATOM     11  C   UNL     1       1.845   5.518  20.825  0.00  0.00    +0.000 A 
ATOM     12  C   UNL     1       2.661   4.508  20.385  0.00  0.00    +0.000 A 
ATOM     13  N   UNL     1       3.614   4.677  19.451  0.00  0.00    +0.000 NA
ATOM     14  C   UNL     1       3.805   5.916  19.003  0.00  0.00    +0.000 A 
ATOM     15  N   UNL     1       4.784   6.197  18.084  0.00  0.00    +0.000 N 
ATOM     16  N   UNL     1       3.084   6.969  19.399  0.00  0.00    +0.000 NA
ATOM     17  H   UNL     1       5.335   6.987  18.391  0.00  0.00    +0.000 HD
ENDROOT
BRANCH   1  21
ATOM     18  C   UNL     1      -3.762  12.799  21.739  0.00  0.00    +0.000 C 
ATOM     19  C   UNL     1      -2.611  12.256  22.595  0.00  0.00    +0.000 C 
ATOM     20  C   UNL     1      -1.242  12.396  21.928  0.00  0.00    +0.000 C 
ATOM     21  N   UNL     1      -1.343  11.820  20.594  0.00  0.00    +0.000 N 
ATOM     22  C   UNL     1      -2.296  12.484  19.699  0.00  0.00    +0.000 C 
ATOM     23  C   UNL     1      -3.686  12.283  20.294  0.00  0.00    +0.000 C 
BRANCH  18  25
ATOM     24  C   UNL     1      -4.837  14.998  23.190  0.00  0.00    +0.000 C 
ATOM     25  S   UNL     1      -3.894  14.596  21.743  0.00  0.00    +0.000 S 
ATOM     26  O   UNL     1      -4.706  14.971  20.600  0.00  0.00    +0.000 OA
ATOM     27  O   UNL     1      -2.578  15.185  21.924  0.00  0.00    +0.000 OA
ENDBRANCH  18  25
ENDBRANCH   1  21
BRANCH  15  28
ATOM     28  C   UNL     1       5.404   5.173  17.272  0.00  0.00    +0.000 C 
ATOM     29  C   UNL     1       4.298   4.614  16.355  0.00  0.00    +0.000 C 
ATOM     30  C   UNL     1       4.831   3.634  15.319  0.00  0.00    +0.000 C 
ATOM     31  C   UNL     1       5.952   4.266  14.501  0.00  0.00    +0.000 C 
ATOM     32  C   UNL     1       7.083   4.736  15.411  0.00  0.00    +0.000 C 
ATOM     33  C   UNL     1       6.585   5.723  16.466  0.00  0.00    +0.000 C 
BRANCH  31  34
ATOM     34  O   UNL     1       6.448   3.328  13.554  0.00  0.00    +0.000 OA
ATOM     35  H   UNL     1       7.284   2.965  13.891  0.00  0.00    +0.000 HD
ENDBRANCH  31  34
ENDBRANCH  15  28
TORSDOF 4
ENDMDL
MODEL 8
REMARK VINA RESULT:      -7.6      0.930      1.116
REMARK  Name = 
REMARK  5 active torsions:
REMARK  status: ('A' for Active; 'I' for Inactive)
REMARK    1  A    between atoms: C_1  and  S_2
REMARK    2  A    between atoms: S_2  and  C_5
REMARK    3  A    between atoms: N_8  and  C_9
REMARK    4  A    between atoms: N_23  and  C_24
REMARK    5  A    between atoms: C_27  and  O_28
REMARK                            x       y       z     vdW  Elec       q    Type
REMARK                         _______ _______ _______ _____ _____    ______ ____
ROOT
ATOM      1  C   UNL     1       2.426   6.929  19.512  0.00  0.00    +0.000 A 
ATOM      2  C   UNL     1       1.782   6.492  20.688  0.00  0.00    +0.000 A 
ATOM      3  C   UNL     1       0.890   7.294  21.392  0.00  0.00    +0.000 A 
ATOM      4  C   UNL     1       0.603   8.586  20.962  0.00  0.00    +0.000 A 
ATOM      5  C   UNL     1       1.235   9.066  19.799  0.00  0.00    +0.000 A 
ATOM      6  C   UNL     1       2.137   8.261  19.089  0.00  0.00    +0.000 A 
ATOM      7  C   UNL     1       2.609   9.045  18.000  0.00  0.00    +0.000 A 
ATOM      8  C   UNL     1       1.924  10.227  17.994  0.00  0.00    +0.000 A 
ATOM      9  N   UNL     1       1.110  10.281  19.106  0.00  0.00    +0.000 N 
ATOM     10  C   UNL     1       0.257  11.382  19.438  0.00  0.00    +0.000 A 
ATOM     11  C   UNL     1       0.075  12.395  18.518  0.00  0.00    +0.000 A 
ATOM     12  C   UNL     1      -0.854  13.345  18.857  0.00  0.00    +0.000 A 
ATOM     13  N   UNL     1      -1.577  13.306  19.990  0.00  0.00    +0.000 NA
ATOM     14  C   UNL     1      -1.300  12.324  20.847  0.00  0.00    +0.000 A 
ATOM     15  N   UNL     1      -1.950  12.227  22.051  0.00  0.00    +0.000 N 
ATOM     16  N   UNL     1      -0.387  11.375  20.620  0.00  0.00    +0.000 NA
ATOM     17  H   UNL     1      -1.283  12.104  22.800  0.00  0.00    +0.000 HD
ENDROOT
BRANCH   1  21
ATOM     18  C   UNL     1       5.019   4.083  17.788  0.00  0.00    +0.000 C 
ATOM     19  C   UNL     1       3.549   4.207  17.369  0.00  0.00    +0.000 C 
ATOM     20  C   UNL     1       3.008   5.634  17.474  0.00  0.00    +0.000 C 
ATOM     21  N   UNL     1       3.311   6.120  18.813  0.00  0.00    +0.000 N 
ATOM     22  C   UNL     1       4.739   6.206  19.136  0.00  0.00    +0.000 C 
ATOM     23  C   UNL     1       5.288   4.784  19.128  0.00  0.00    +0.000 C 
BRANCH  18  25
ATOM     24  C   UNL     1       5.968   3.592  15.151  0.00  0.00    +0.000 C 
ATOM     25  S   UNL     1       6.187   4.665  16.546  0.00  0.00    +0.000 S 
ATOM     26  O   UNL     1       7.522   4.413  17.057  0.00  0.00    +0.000 OA
ATOM     27  O   UNL     1       5.816   6.000  16.109  0.00  0.00    +0.000 OA
ENDBRANCH  18  25
ENDBRANCH   1  21
BRANCH  15  28
ATOM     28  C   UNL     1      -3.197  12.910  22.317  0.00  0.00    +0.000 C 
ATOM     29  C   UNL     1      -4.193  12.439  21.239  0.00  0.00    +0.000 C 
ATOM     30  C   UNL     1      -5.608  12.947  21.480  0.00  0.00    +0.000 C 
ATOM     31  C   UNL     1      -6.090  12.562  22.875  0.00  0.00    +0.000 C 
ATOM     32  C   UNL     1      -5.146  13.110  23.941  0.00  0.00    +0.000 C 
ATOM     33  C   UNL     1      -3.713  12.621  23.731  0.00  0.00    +0.000 C 
BRANCH  31  34
ATOM     34  O   UNL     1      -7.405  13.062  23.086  0.00  0.00    +0.000 OA
ATOM     35  H   UNL     1      -8.038  12.349  22.899  0.00  0.00    +0.000 HD
ENDBRANCH  31  34
ENDBRANCH  15  28
TORSDOF 4
ENDMDL
MODEL 9
REMARK VINA RESULT:      -7.6      3.169     11.091
REMARK  Name = 
REMARK  5 active torsions:
REMARK  status: ('A' for Active; 'I' for Inactive)
REMARK    1  A    between atoms: C_1  and  S_2
REMARK    2  A    between atoms: S_2  and  C_5
REMARK    3  A    between atoms: N_8  and  C_9
REMARK    4  A    between atoms: N_23  and  C_24
REMARK    5  A    between atoms: C_27  and  O_28
REMARK                            x       y       z     vdW  Elec       q    Type
REMARK                         _______ _______ _______ _____ _____    ______ ____
ROOT
ATOM      1  C   UNL     1      -0.578  11.475  20.633  0.00  0.00    +0.000 A 
ATOM      2  C   UNL     1       0.149  12.054  19.574  0.00  0.00    +0.000 A 
ATOM      3  C   UNL     1       1.150  11.369  18.892  0.00  0.00    +0.000 A 
ATOM      4  C   UNL     1       1.486  10.066  19.247  0.00  0.00    +0.000 A 
ATOM      5  C   UNL     1       0.794   9.455  20.309  0.00  0.00    +0.000 A 
ATOM      6  C   UNL     1      -0.214  10.145  20.999  0.00  0.00    +0.000 A 
ATOM      7  C   UNL     1      -0.684   9.266  22.013  0.00  0.00    +0.000 A 
ATOM      8  C   UNL     1      -0.064   8.059  21.857  0.00  0.00    +0.000 A 
ATOM      9  N   UNL     1       0.873   8.162  20.849  0.00  0.00    +0.000 N 
ATOM     10  C   UNL     1       1.726   7.095  20.420  0.00  0.00    +0.000 A 
ATOM     11  C   UNL     1       1.503   5.819  20.897  0.00  0.00    +0.000 A 
ATOM     12  C   UNL     1       2.278   4.834  20.341  0.00  0.00    +0.000 A 
ATOM     13  N   UNL     1       3.184   5.059  19.373  0.00  0.00    +0.000 NA
ATOM     14  C   UNL     1       3.375   6.326  19.010  0.00  0.00    +0.000 A 
ATOM     15  N   UNL     1       4.310   6.662  18.065  0.00  0.00    +0.000 N 
ATOM     16  N   UNL     1       2.693   7.356  19.521  0.00  0.00    +0.000 NA
ATOM     17  H   UNL     1       4.890   7.419  18.400  0.00  0.00    +0.000 HD
ENDROOT
BRANCH   1  21
ATOM     18  C   UNL     1      -3.254  14.004  22.693  0.00  0.00    +0.000 C 
ATOM     19  C   UNL     1      -3.242  13.901  21.163  0.00  0.00    +0.000 C 
ATOM     20  C   UNL     1      -2.832  12.519  20.652  0.00  0.00    +0.000 C 
ATOM     21  N   UNL     1      -1.579  12.165  21.304  0.00  0.00    +0.000 N 
ATOM     22  C   UNL     1      -1.647  12.050  22.764  0.00  0.00    +0.000 C 
ATOM     23  C   UNL     1      -1.966  13.438  23.309  0.00  0.00    +0.000 C 
BRANCH  18  25
ATOM     24  C   UNL     1      -5.850  14.561  23.717  0.00  0.00    +0.000 C 
ATOM     25  S   UNL     1      -4.692  13.242  23.468  0.00  0.00    +0.000 S 
ATOM     26  O   UNL     1      -4.284  12.792  24.786  0.00  0.00    +0.000 OA
ATOM     27  O   UNL     1      -5.312  12.309  22.542  0.00  0.00    +0.000 OA
ENDBRANCH  18  25
ENDBRANCH   1  21
BRANCH  15  28
ATOM     28  C   UNL     1       4.869   5.693  17.147  0.00  0.00    +0.000 C 
ATOM     29  C   UNL     1       4.920   6.378  15.767  0.00  0.00    +0.000 C 
ATOM     30  C   UNL     1       5.639   5.539  14.718  0.00  0.00    +0.000 C 
ATOM     31  C   UNL     1       7.038   5.162  15.194  0.00  0.00    +0.000 C 
ATOM     32  C   UNL     1       6.972   4.405  16.517  0.00  0.00    +0.000 C 
ATOM     33  C   UNL     1       6.255   5.218  17.596  0.00  0.00    +0.000 C 
BRANCH  31  34
ATOM     34  O   UNL     1       7.684   4.364  14.209  0.00  0.00    +0.000 OA
ATOM     35  H   UNL     1       8.606   4.661  14.130  0.00  0.00    +0.000 HD
ENDBRANCH  31  34
ENDBRANCH  15  28
TORSDOF 4
ENDMDL
