MODEL 1
REMARK VINA RESULT:      -7.4      0.000      0.000
REMARK  Name = 
REMARK  4 active torsions:
REMARK  status: ('A' for Active; 'I' for Inactive)
REMARK    1  A    between atoms: C_1  and  C_2
REMARK    2  A    between atoms: C_2  and  C_3
REMARK    3  A    between atoms: C_4  and  C_5
REMARK    4  A    between atoms: C_5  and  C_6
REMARK                            x       y       z     vdW  Elec       q    Type
REMARK                         _______ _______ _______ _____ _____    ______ ____
ROOT
ATOM      1  C   UNL     1       4.125   4.349  17.755  0.00  0.00    +0.000 C 
ATOM      2  O   UNL     1       4.909   3.845  18.872  0.00  0.00    +0.000 OA
ATOM      3  C   UNL     1       5.693   4.767  19.615  0.00  0.00    +0.000 C 
ATOM      4  C   UNL     1       6.880   5.469  18.921  0.00  0.00    +0.000 C 
ATOM      5  O   UNL     1       8.027   5.364  19.302  0.00  0.00    +0.000 OA
ATOM      6  N   UNL     1       6.503   6.283  17.857  0.00  0.00    +0.000 N 
ATOM      7  C   UNL     1       6.193   5.572  16.675  0.00  0.00    +0.000 A 
ATOM      8  C   UNL     1       7.089   5.802  15.616  0.00  0.00    +0.000 A 
ATOM      9  C   UNL     1       7.001   5.070  14.442  0.00  0.00    +0.000 A 
ATOM     10  C   UNL     1       6.018   4.114  14.327  0.00  0.00    +0.000 A 
ATOM     11 CL   UNL     1       5.924   3.137  12.914  0.00  0.00    +0.000 Cl
ATOM     12  C   UNL     1       5.109   3.913  15.371  0.00  0.00    +0.000 A 
ATOM     13  C   UNL     1       5.136   4.633  16.585  0.00  0.00    +0.000 A 
ATOM     14  H   UNL     1       5.707   6.853  18.125  0.00  0.00    +0.000 HD
ENDROOT
BRANCH   1  15
ATOM     15  C   UNL     1       2.985   3.314  17.420  0.00  0.00    +0.000 C 
ATOM     16  F   UNL     1       1.961   3.369  18.305  0.00  0.00    +0.000 F 
ATOM     17  F   UNL     1       2.379   3.489  16.228  0.00  0.00    +0.000 F 
ATOM     18  F   UNL     1       3.433   2.036  17.411  0.00  0.00    +0.000 F 
ENDBRANCH   1  15
BRANCH   1  20
ATOM     19  C   UNL     1       2.811   6.729  18.520  0.00  0.00    +0.000 C 
ATOM     20  C   UNL     1       3.419   5.630  18.167  0.00  0.00    +0.000 C 
BRANCH  19  22
ATOM     21  C   UNL     1       2.050   8.942  17.750  0.00  0.00    +0.000 C 
ATOM     22  C   UNL     1       2.124   7.967  18.913  0.00  0.00    +0.000 C 
ENDBRANCH  19  22
ENDBRANCH   1  20
TORSDOF 3
ENDMDL
MODEL 2
REMARK VINA RESULT:      -7.1      0.325      1.009
REMARK  Name = 
REMARK  4 active torsions:
REMARK  status: ('A' for Active; 'I' for Inactive)
REMARK    1  A    between atoms: C_1  and  C_2
REMARK    2  A    between atoms: C_2  and  C_3
REMARK    3  A    between atoms: C_4  and  C_5
REMARK    4  A    between atoms: C_5  and  C_6
REMARK                            x       y       z     vdW  Elec       q    Type
REMARK                         _______ _______ _______ _____ _____    ______ ____
ROOT
ATOM      1  C   UNL     1       4.115   4.369  17.761  0.00  0.00    +0.000 C 
ATOM      2  O   UNL     1       4.890   3.873  18.888  0.00  0.00    +0.000 OA
ATOM      3  C   UNL     1       5.673   4.800  19.626  0.00  0.00    +0.000 C 
ATOM      4  C   UNL     1       6.866   5.490  18.933  0.00  0.00    +0.000 C 
ATOM      5  O   UNL     1       8.011   5.385  19.322  0.00  0.00    +0.000 OA
ATOM      6  N   UNL     1       6.498   6.295  17.859  0.00  0.00    +0.000 N 
ATOM      7  C   UNL     1       6.193   5.573  16.682  0.00  0.00    +0.000 A 
ATOM      8  C   UNL     1       7.097   5.790  15.626  0.00  0.00    +0.000 A 
ATOM      9  C   UNL     1       7.013   5.048  14.459  0.00  0.00    +0.000 A 
ATOM     10  C   UNL     1       6.028   4.093  14.348  0.00  0.00    +0.000 A 
ATOM     11 CL   UNL     1       5.939   3.103  12.944  0.00  0.00    +0.000 Cl
ATOM     12  C   UNL     1       5.112   3.906  15.387  0.00  0.00    +0.000 A 
ATOM     13  C   UNL     1       5.134   4.638  16.595  0.00  0.00    +0.000 A 
ATOM     14  H   UNL     1       5.703   6.870  18.116  0.00  0.00    +0.000 HD
ENDROOT
BRANCH   1  15
ATOM     15  C   UNL     1       2.973   3.334  17.429  0.00  0.00    +0.000 C 
ATOM     16  F   UNL     1       2.407   3.561  16.220  0.00  0.00    +0.000 F 
ATOM     17  F   UNL     1       3.366   2.046  17.355  0.00  0.00    +0.000 F 
ATOM     18  F   UNL     1       1.975   3.353  18.344  0.00  0.00    +0.000 F 
ENDBRANCH   1  15
BRANCH   1  20
ATOM     19  C   UNL     1       2.805   6.761  18.494  0.00  0.00    +0.000 C 
ATOM     20  C   UNL     1       3.410   5.656  18.156  0.00  0.00    +0.000 C 
BRANCH  19  22
ATOM     21  C   UNL     1       1.690   7.972  20.327  0.00  0.00    +0.000 C 
ATOM     22  C   UNL     1       2.129   8.009  18.873  0.00  0.00    +0.000 C 
ENDBRANCH  19  22
ENDBRANCH   1  20
TORSDOF 3
ENDMDL
MODEL 3
REMARK VINA RESULT:      -6.6      5.437      7.168
REMARK  Name = 
REMARK  4 active torsions:
REMARK  status: ('A' for Active; 'I' for Inactive)
REMARK    1  A    between atoms: C_1  and  C_2
REMARK    2  A    between atoms: C_2  and  C_3
REMARK    3  A    between atoms: C_4  and  C_5
REMARK    4  A    between atoms: C_5  and  C_6
REMARK                            x       y       z     vdW  Elec       q    Type
REMARK                         _______ _______ _______ _____ _____    ______ ____
ROOT
ATOM      1  C   UNL     1       0.353   9.825  20.367  0.00  0.00    +0.000 C 
ATOM      2  O   UNL     1       1.096  11.051  20.616  0.00  0.00    +0.000 OA
ATOM      3  C   UNL     1       1.276  11.959  19.538  0.00  0.00    +0.000 C 
ATOM      4  C   UNL     1       2.131  11.525  18.329  0.00  0.00    +0.000 C 
ATOM      5  O   UNL     1       3.135  12.110  17.982  0.00  0.00    +0.000 OA
ATOM      6  N   UNL     1       1.606  10.438  17.636  0.00  0.00    +0.000 N 
ATOM      7  C   UNL     1       1.822   9.195  18.274  0.00  0.00    +0.000 A 
ATOM      8  C   UNL     1       2.680   8.332  17.569  0.00  0.00    +0.000 A 
ATOM      9  C   UNL     1       3.101   7.137  18.133  0.00  0.00    +0.000 A 
ATOM     10  C   UNL     1       2.663   6.807  19.395  0.00  0.00    +0.000 A 
ATOM     11 CL   UNL     1       3.222   5.369  20.155  0.00  0.00    +0.000 Cl
ATOM     12  C   UNL     1       1.783   7.654  20.076  0.00  0.00    +0.000 A 
ATOM     13  C   UNL     1       1.307   8.876  19.553  0.00  0.00    +0.000 A 
ATOM     14  H   UNL     1       0.610  10.572  17.489  0.00  0.00    +0.000 HD
ENDROOT
BRANCH   1  15
ATOM     15  C   UNL     1      -0.156   9.247  21.742  0.00  0.00    +0.000 C 
ATOM     16  F   UNL     1      -1.006  10.091  22.373  0.00  0.00    +0.000 F 
ATOM     17  F   UNL     1      -0.857   8.098  21.660  0.00  0.00    +0.000 F 
ATOM     18  F   UNL     1       0.858   8.989  22.601  0.00  0.00    +0.000 F 
ENDBRANCH   1  15
BRANCH   1  20
ATOM     19  C   UNL     1      -1.965  10.413  18.865  0.00  0.00    +0.000 C 
ATOM     20  C   UNL     1      -0.894  10.142  19.559  0.00  0.00    +0.000 C 
BRANCH  19  22
ATOM     21  C   UNL     1      -3.130  10.014  16.731  0.00  0.00    +0.000 C 
ATOM     22  C   UNL     1      -3.168  10.717  18.078  0.00  0.00    +0.000 C 
ENDBRANCH  19  22
ENDBRANCH   1  20
TORSDOF 3
ENDMDL
MODEL 4
REMARK VINA RESULT:      -6.4      6.150      7.980
REMARK  Name = 
REMARK  4 active torsions:
REMARK  status: ('A' for Active; 'I' for Inactive)
REMARK    1  A    between atoms: C_1  and  C_2
REMARK    2  A    between atoms: C_2  and  C_3
REMARK    3  A    between atoms: C_4  and  C_5
REMARK    4  A    between atoms: C_5  and  C_6
REMARK                            x       y       z     vdW  Elec       q    Type
REMARK                         _______ _______ _______ _____ _____    ______ ____
ROOT
ATOM      1  C   UNL     1       0.319  10.639  21.011  0.00  0.00    +0.000 C 
ATOM      2  O   UNL     1       1.236  11.745  21.241  0.00  0.00    +0.000 OA
ATOM      3  C   UNL     1       1.368  12.732  20.228  0.00  0.00    +0.000 C 
ATOM      4  C   UNL     1       1.976  12.332  18.868  0.00  0.00    +0.000 C 
ATOM      5  O   UNL     1       2.984  12.835  18.418  0.00  0.00    +0.000 OA
ATOM      6  N   UNL     1       1.225  11.384  18.178  0.00  0.00    +0.000 N 
ATOM      7  C   UNL     1       1.378  10.066  18.668  0.00  0.00    +0.000 A 
ATOM      8  C   UNL     1       2.010   9.190  17.769  0.00  0.00    +0.000 A 
ATOM      9  C   UNL     1       2.358   7.905  18.158  0.00  0.00    +0.000 A 
ATOM     10  C   UNL     1       2.072   7.500  19.442  0.00  0.00    +0.000 A 
ATOM     11 CL   UNL     1       2.554   5.939  19.982  0.00  0.00    +0.000 Cl
ATOM     12  C   UNL     1       1.412   8.365  20.320  0.00  0.00    +0.000 A 
ATOM     13  C   UNL     1       1.019   9.678  19.982  0.00  0.00    +0.000 A 
ATOM     14  H   UNL     1       0.243  11.640  18.201  0.00  0.00    +0.000 HD
ENDROOT
BRANCH   1  15
ATOM     15  C   UNL     1      -0.051   9.983  22.396  0.00  0.00    +0.000 C 
ATOM     16  F   UNL     1       1.043   9.567  23.078  0.00  0.00    +0.000 F 
ATOM     17  F   UNL     1      -0.676  10.797  23.270  0.00  0.00    +0.000 F 
ATOM     18  F   UNL     1      -0.865   8.910  22.259  0.00  0.00    +0.000 F 
ENDBRANCH   1  15
BRANCH   1  20
ATOM     19  C   UNL     1      -2.103  11.626  19.948  0.00  0.00    +0.000 C 
ATOM     20  C   UNL     1      -0.984  11.170  20.438  0.00  0.00    +0.000 C 
BRANCH  19  22
ATOM     21  C   UNL     1      -3.684  11.481  18.063  0.00  0.00    +0.000 C 
ATOM     22  C   UNL     1      -3.367  12.135  19.397  0.00  0.00    +0.000 C 
ENDBRANCH  19  22
ENDBRANCH   1  20
TORSDOF 3
ENDMDL
MODEL 5
REMARK VINA RESULT:      -6.4      6.205      8.078
REMARK  Name = 
REMARK  4 active torsions:
REMARK  status: ('A' for Active; 'I' for Inactive)
REMARK    1  A    between atoms: C_1  and  C_2
REMARK    2  A    between atoms: C_2  and  C_3
REMARK    3  A    between atoms: C_4  and  C_5
REMARK    4  A    between atoms: C_5  and  C_6
REMARK                            x       y       z     vdW  Elec       q    Type
REMARK                         _______ _______ _______ _____ _____    ______ ____
ROOT
ATOM      1  C   UNL     1       0.337  10.719  21.009  0.00  0.00    +0.000 C 
ATOM      2  O   UNL     1       1.263  11.816  21.246  0.00  0.00    +0.000 OA
ATOM      3  C   UNL     1       1.391  12.817  20.247  0.00  0.00    +0.000 C 
ATOM      4  C   UNL     1       1.982  12.434  18.874  0.00  0.00    +0.000 C 
ATOM      5  O   UNL     1       2.988  12.938  18.421  0.00  0.00    +0.000 OA
ATOM      6  N   UNL     1       1.218  11.501  18.178  0.00  0.00    +0.000 N 
ATOM      7  C   UNL     1       1.367  10.176  18.647  0.00  0.00    +0.000 A 
ATOM      8  C   UNL     1       1.985   9.309  17.727  0.00  0.00    +0.000 A 
ATOM      9  C   UNL     1       2.328   8.017  18.094  0.00  0.00    +0.000 A 
ATOM     10  C   UNL     1       2.052   7.594  19.374  0.00  0.00    +0.000 A 
ATOM     11 CL   UNL     1       2.530   6.022  19.885  0.00  0.00    +0.000 Cl
ATOM     12  C   UNL     1       1.408   8.449  20.272  0.00  0.00    +0.000 A 
ATOM     13  C   UNL     1       1.020   9.770  19.958  0.00  0.00    +0.000 A 
ATOM     14  H   UNL     1       0.238  11.763  18.215  0.00  0.00    +0.000 HD
ENDROOT
BRANCH   1  15
ATOM     15  C   UNL     1      -0.024  10.045  22.387  0.00  0.00    +0.000 C 
ATOM     16  F   UNL     1      -0.682  10.889  23.218  0.00  0.00    +0.000 F 
ATOM     17  F   UNL     1      -0.843   8.977  22.311  0.00  0.00    +0.000 F 
ATOM     18  F   UNL     1       1.073   9.610  23.052  0.00  0.00    +0.000 F 
ENDBRANCH   1  15
BRANCH   1  20
ATOM     19  C   UNL     1      -2.089  11.739  19.985  0.00  0.00    +0.000 C 
ATOM     20  C   UNL     1      -0.969  11.267  20.458  0.00  0.00    +0.000 C 
BRANCH  19  22
ATOM     21  C   UNL     1      -4.112  13.036  20.530  0.00  0.00    +0.000 C 
ATOM     22  C   UNL     1      -3.354  12.271  19.458  0.00  0.00    +0.000 C 
ENDBRANCH  19  22
ENDBRANCH   1  20
TORSDOF 3
ENDMDL
MODEL 6
REMARK VINA RESULT:      -6.3      3.170      4.803
REMARK  Name = 
REMARK  4 active torsions:
REMARK  status: ('A' for Active; 'I' for Inactive)
REMARK    1  A    between atoms: C_1  and  C_2
REMARK    2  A    between atoms: C_2  and  C_3
REMARK    3  A    between atoms: C_4  and  C_5
REMARK    4  A    between atoms: C_5  and  C_6
REMARK                            x       y       z     vdW  Elec       q    Type
REMARK                         _______ _______ _______ _____ _____    ______ ____
ROOT
ATOM      1  C   UNL     1       5.660   5.568  16.723  0.00  0.00    +0.000 C 
ATOM      2  O   UNL     1       4.734   6.372  15.941  0.00  0.00    +0.000 OA
ATOM      3  C   UNL     1       4.213   7.557  16.526  0.00  0.00    +0.000 C 
ATOM      4  C   UNL     1       3.287   7.440  17.755  0.00  0.00    +0.000 C 
ATOM      5  O   UNL     1       2.145   7.848  17.766  0.00  0.00    +0.000 OA
ATOM      6  N   UNL     1       3.906   6.880  18.869  0.00  0.00    +0.000 N 
ATOM      7  C   UNL     1       4.044   5.475  18.800  0.00  0.00    +0.000 A 
ATOM      8  C   UNL     1       3.278   4.777  19.752  0.00  0.00    +0.000 A 
ATOM      9  C   UNL     1       3.197   3.394  19.719  0.00  0.00    +0.000 A 
ATOM     10  C   UNL     1       3.880   2.711  18.739  0.00  0.00    +0.000 A 
ATOM     11 CL   UNL     1       3.743   1.000  18.622  0.00  0.00    +0.000 Cl
ATOM     12  C   UNL     1       4.667   3.409  17.816  0.00  0.00    +0.000 A 
ATOM     13  C   UNL     1       4.802   4.814  17.804  0.00  0.00    +0.000 A 
ATOM     14  H   UNL     1       4.820   7.301  19.002  0.00  0.00    +0.000 HD
ENDROOT
BRANCH   1  15
ATOM     15  C   UNL     1       6.480   4.638  15.750  0.00  0.00    +0.000 C 
ATOM     16  F   UNL     1       7.507   4.014  16.375  0.00  0.00    +0.000 F 
ATOM     17  F   UNL     1       5.784   3.622  15.200  0.00  0.00    +0.000 F 
ATOM     18  F   UNL     1       7.007   5.320  14.705  0.00  0.00    +0.000 F 
ENDBRANCH   1  15
BRANCH   1  20
ATOM     19  C   UNL     1       7.556   7.250  17.968  0.00  0.00    +0.000 C 
ATOM     20  C   UNL     1       6.680   6.473  17.393  0.00  0.00    +0.000 C 
BRANCH  19  22
ATOM     21  C   UNL     1       8.423   9.551  18.123  0.00  0.00    +0.000 C 
ATOM     22  C   UNL     1       8.545   8.120  18.619  0.00  0.00    +0.000 C 
ENDBRANCH  19  22
ENDBRANCH   1  20
TORSDOF 3
ENDMDL
MODEL 7
REMARK VINA RESULT:      -6.1      8.888     11.003
REMARK  Name = 
REMARK  4 active torsions:
REMARK  status: ('A' for Active; 'I' for Inactive)
REMARK    1  A    between atoms: C_1  and  C_2
REMARK    2  A    between atoms: C_2  and  C_3
REMARK    3  A    between atoms: C_4  and  C_5
REMARK    4  A    between atoms: C_5  and  C_6
REMARK                            x       y       z     vdW  Elec       q    Type
REMARK                         _______ _______ _______ _____ _____    ______ ____
ROOT
ATOM      1  C   UNL     1      -1.718  11.279  18.531  0.00  0.00    +0.000 C 
ATOM      2  O   UNL     1      -0.919  12.403  18.068  0.00  0.00    +0.000 OA
ATOM      3  C   UNL     1      -0.290  13.227  19.038  0.00  0.00    +0.000 C 
ATOM      4  C   UNL     1      -1.167  14.066  19.991  0.00  0.00    +0.000 C 
ATOM      5  O   UNL     1      -1.114  15.277  20.048  0.00  0.00    +0.000 OA
ATOM      6  N   UNL     1      -1.980  13.300  20.822  0.00  0.00    +0.000 N 
ATOM      7  C   UNL     1      -3.124  12.777  20.178  0.00  0.00    +0.000 A 
ATOM      8  C   UNL     1      -4.339  13.304  20.651  0.00  0.00    +0.000 A 
ATOM      9  C   UNL     1      -5.537  12.996  20.024  0.00  0.00    +0.000 A 
ATOM     10  C   UNL     1      -5.519  12.163  18.930  0.00  0.00    +0.000 A 
ATOM     11 CL   UNL     1      -6.976  11.819  18.083  0.00  0.00    +0.000 Cl
ATOM     12  C   UNL     1      -4.312  11.615  18.485  0.00  0.00    +0.000 A 
ATOM     13  C   UNL     1      -3.062  11.877  19.086  0.00  0.00    +0.000 A 
ATOM     14  H   UNL     1      -1.441  12.538  21.222  0.00  0.00    +0.000 HD
ENDROOT
BRANCH   1  15
ATOM     15  C   UNL     1      -1.881  10.246  17.352  0.00  0.00    +0.000 C 
ATOM     16  F   UNL     1      -0.758   9.516  17.146  0.00  0.00    +0.000 F 
ATOM     17  F   UNL     1      -2.835   9.310  17.532  0.00  0.00    +0.000 F 
ATOM     18  F   UNL     1      -2.184  10.846  16.176  0.00  0.00    +0.000 F 
ENDBRANCH   1  15
BRANCH   1  20
ATOM     19  C   UNL     1      -0.330   9.913  20.576  0.00  0.00    +0.000 C 
ATOM     20  C   UNL     1      -0.971  10.544  19.630  0.00  0.00    +0.000 C 
BRANCH  19  22
ATOM     21  C   UNL     1      -0.165   9.565  23.009  0.00  0.00    +0.000 C 
ATOM     22  C   UNL     1       0.394   9.208  21.642  0.00  0.00    +0.000 C 
ENDBRANCH  19  22
ENDBRANCH   1  20
TORSDOF 3
ENDMDL
MODEL 8
REMARK VINA RESULT:      -6.1      1.133      1.493
REMARK  Name = 
REMARK  4 active torsions:
REMARK  status: ('A' for Active; 'I' for Inactive)
REMARK    1  A    between atoms: C_1  and  C_2
REMARK    2  A    between atoms: C_2  and  C_3
REMARK    3  A    between atoms: C_4  and  C_5
REMARK    4  A    between atoms: C_5  and  C_6
REMARK                            x       y       z     vdW  Elec       q    Type
REMARK                         _______ _______ _______ _____ _____    ______ ____
ROOT
ATOM      1  C   UNL     1       4.086   3.635  18.346  0.00  0.00    +0.000 C 
ATOM      2  O   UNL     1       5.143   3.196  19.244  0.00  0.00    +0.000 OA
ATOM      3  C   UNL     1       5.802   4.173  20.037  0.00  0.00    +0.000 C 
ATOM      4  C   UNL     1       6.656   5.252  19.338  0.00  0.00    +0.000 C 
ATOM      5  O   UNL     1       7.843   5.395  19.544  0.00  0.00    +0.000 OA
ATOM      6  N   UNL     1       5.925   6.085  18.496  0.00  0.00    +0.000 N 
ATOM      7  C   UNL     1       5.596   5.496  17.253  0.00  0.00    +0.000 A 
ATOM      8  C   UNL     1       6.222   6.102  16.149  0.00  0.00    +0.000 A 
ATOM      9  C   UNL     1       6.111   5.550  14.882  0.00  0.00    +0.000 A 
ATOM     10  C   UNL     1       5.376   4.398  14.721  0.00  0.00    +0.000 A 
ATOM     11 CL   UNL     1       5.278   3.645  13.177  0.00  0.00    +0.000 Cl
ATOM     12  C   UNL     1       4.729   3.819  15.817  0.00  0.00    +0.000 A 
ATOM     13  C   UNL     1       4.790   4.339  17.129  0.00  0.00    +0.000 A 
ATOM     14  H   UNL     1       5.074   6.383  18.962  0.00  0.00    +0.000 HD
ENDROOT
BRANCH   1  15
ATOM     15  C   UNL     1       3.182   2.399  17.975  0.00  0.00    +0.000 C 
ATOM     16  F   UNL     1       3.910   1.328  17.577  0.00  0.00    +0.000 F 
ATOM     17  F   UNL     1       2.430   1.911  18.983  0.00  0.00    +0.000 F 
ATOM     18  F   UNL     1       2.309   2.677  16.978  0.00  0.00    +0.000 F 
ENDBRANCH   1  15
BRANCH   1  20
ATOM     19  C   UNL     1       2.400   5.456  19.693  0.00  0.00    +0.000 C 
ATOM     20  C   UNL     1       3.178   4.615  19.071  0.00  0.00    +0.000 C 
BRANCH  19  22
ATOM     21  C   UNL     1       1.895   7.838  20.072  0.00  0.00    +0.000 C 
ATOM     22  C   UNL     1       1.524   6.401  20.400  0.00  0.00    +0.000 C 
ENDBRANCH  19  22
ENDBRANCH   1  20
TORSDOF 3
ENDMDL
MODEL 9
REMARK VINA RESULT:      -6.0      3.031      4.825
REMARK  Name = 
REMARK  4 active torsions:
REMARK  status: ('A' for Active; 'I' for Inactive)
REMARK    1  A    between atoms: C_1  and  C_2
REMARK    2  A    between atoms: C_2  and  C_3
REMARK    3  A    between atoms: C_4  and  C_5
REMARK    4  A    between atoms: C_5  and  C_6
REMARK                            x       y       z     vdW  Elec       q    Type
REMARK                         _______ _______ _______ _____ _____    ______ ____
ROOT
ATOM      1  C   UNL     1       4.160   6.010  17.979  0.00  0.00    +0.000 C 
ATOM      2  O   UNL     1       5.161   6.854  18.613  0.00  0.00    +0.000 OA
ATOM      3  C   UNL     1       6.523   6.455  18.538  0.00  0.00    +0.000 C 
ATOM      4  C   UNL     1       6.964   5.160  19.253  0.00  0.00    +0.000 C 
ATOM      5  O   UNL     1       7.803   5.138  20.128  0.00  0.00    +0.000 OA
ATOM      6  N   UNL     1       6.353   4.012  18.755  0.00  0.00    +0.000 N 
ATOM      7  C   UNL     1       5.021   3.837  19.193  0.00  0.00    +0.000 A 
ATOM      8  C   UNL     1       4.835   2.722  20.030  0.00  0.00    +0.000 A 
ATOM      9  C   UNL     1       3.617   2.500  20.654  0.00  0.00    +0.000 A 
ATOM     10  C   UNL     1       2.589   3.389  20.439  0.00  0.00    +0.000 A 
ATOM     11 CL   UNL     1       1.087   3.185  21.254  0.00  0.00    +0.000 Cl
ATOM     12  C   UNL     1       2.770   4.477  19.579  0.00  0.00    +0.000 A 
ATOM     13  C   UNL     1       3.979   4.751  18.904  0.00  0.00    +0.000 A 
ATOM     14  H   UNL     1       6.375   4.024  17.740  0.00  0.00    +0.000 HD
ENDROOT
BRANCH   1  15
ATOM     15  C   UNL     1       2.854   6.858  17.738  0.00  0.00    +0.000 C 
ATOM     16  F   UNL     1       2.468   7.537  18.845  0.00  0.00    +0.000 F 
ATOM     17  F   UNL     1       2.956   7.820  16.798  0.00  0.00    +0.000 F 
ATOM     18  F   UNL     1       1.804   6.093  17.355  0.00  0.00    +0.000 F 
ENDBRANCH   1  15
BRANCH   1  20
ATOM     19  C   UNL     1       5.064   5.229  15.421  0.00  0.00    +0.000 C 
ATOM     20  C   UNL     1       4.647   5.590  16.603  0.00  0.00    +0.000 C 
BRANCH  19  22
ATOM     21  C   UNL     1       7.058   4.776  14.046  0.00  0.00    +0.000 C 
ATOM     22  C   UNL     1       5.540   4.819  14.092  0.00  0.00    +0.000 C 
ENDBRANCH  19  22
ENDBRANCH   1  20
TORSDOF 3
ENDMDL
