MODEL 1
REMARK VINA RESULT:      -7.1      0.000      0.000
REMARK  Name = 
REMARK  5 active torsions:
REMARK  status: ('A' for Active; 'I' for Inactive)
REMARK    1  A    between atoms: C_1  and  N_2
REMARK    2  A    between atoms: N_5  and  C_6
REMARK    3  A    between atoms: N_14  and  C_15
REMARK    4  A    between atoms: C_15  and  C_16
REMARK    5  A    between atoms: N_20  and  C_21
REMARK                            x       y       z     vdW  Elec       q    Type
REMARK                         _______ _______ _______ _____ _____    ______ ____
ROOT
ATOM      1  C   UNL     1       4.243   3.486  18.048  0.00  0.00    +0.000 A 
ATOM      2  N   UNL     1       3.689   2.288  17.806  0.00  0.00    +0.000 NA
ATOM      3  C   UNL     1       2.782   1.847  18.691  0.00  0.00    +0.000 A 
ATOM      4  N   UNL     1       2.340   2.506  19.771  0.00  0.00    +0.000 NA
ATOM      5  C   UNL     1       2.888   3.716  19.986  0.00  0.00    +0.000 A 
ATOM      6  C   UNL     1       3.881   4.240  19.170  0.00  0.00    +0.000 A 
ATOM      7  C   UNL     1       4.383   5.633  19.426  0.00  0.00    +0.000 C 
ATOM      8  C   UNL     1       3.329   6.687  19.084  0.00  0.00    +0.000 C 
ATOM      9  N   UNL     1       2.367   6.962  20.174  0.00  0.00    +0.000 NA
ATOM     10  C   UNL     1       1.539   5.778  20.518  0.00  0.00    +0.000 C 
ATOM     11  C   UNL     1       2.291   4.559  21.084  0.00  0.00    +0.000 C 
ENDROOT
BRANCH   1  16
ATOM     12  C   UNL     1       7.595   5.021  13.920  0.00  0.00    +0.000 C 
ATOM     13  N   UNL     1       6.808   5.254  15.131  0.00  0.00    +0.000 NA
ATOM     14  C   UNL     1       7.329   4.417  16.248  0.00  0.00    +0.000 C 
ATOM     15  C   UNL     1       6.437   4.442  17.520  0.00  0.00    +0.000 C 
ATOM     16  N   UNL     1       5.087   4.046  17.108  0.00  0.00    +0.000 N 
ATOM     17  C   UNL     1       4.513   5.005  16.156  0.00  0.00    +0.000 C 
ATOM     18  C   UNL     1       5.379   4.945  14.874  0.00  0.00    +0.000 C 
ENDBRANCH   1  16
BRANCH   9  19
ATOM     19  C   UNL     1       1.451   8.059  19.754  0.00  0.00    +0.000 C 
BRANCH  19  20
ATOM     20  C   UNL     1       0.841   8.850  20.880  0.00  0.00    +0.000 A 
ATOM     21  N   UNL     1       1.160   8.715  22.158  0.00  0.00    +0.000 NA
ATOM     22  C   UNL     1       0.409   9.634  22.838  0.00  0.00    +0.000 A 
ATOM     23  C   UNL     1      -0.390  10.339  21.974  0.00  0.00    +0.000 A 
ATOM     24  N   UNL     1      -0.122   9.822  20.734  0.00  0.00    +0.000 N 
ATOM     25  C   UNL     1      -0.766  10.240  19.512  0.00  0.00    +0.000 C 
ENDBRANCH  19  20
ENDBRANCH   9  19
TORSDOF 3
ENDMDL
MODEL 2
REMARK VINA RESULT:      -6.7      1.641      6.366
REMARK  Name = 
REMARK  5 active torsions:
REMARK  status: ('A' for Active; 'I' for Inactive)
REMARK    1  A    between atoms: C_1  and  N_2
REMARK    2  A    between atoms: N_5  and  C_6
REMARK    3  A    between atoms: N_14  and  C_15
REMARK    4  A    between atoms: C_15  and  C_16
REMARK    5  A    between atoms: N_20  and  C_21
REMARK                            x       y       z     vdW  Elec       q    Type
REMARK                         _______ _______ _______ _____ _____    ______ ____
ROOT
ATOM      1  C   UNL     1       1.844   5.133  20.363  0.00  0.00    +0.000 A 
ATOM      2  N   UNL     1       1.936   4.708  21.632  0.00  0.00    +0.000 NA
ATOM      3  C   UNL     1       2.187   3.404  21.820  0.00  0.00    +0.000 A 
ATOM      4  N   UNL     1       2.401   2.489  20.864  0.00  0.00    +0.000 NA
ATOM      5  C   UNL     1       2.329   2.937  19.597  0.00  0.00    +0.000 A 
ATOM      6  C   UNL     1       2.012   4.253  19.288  0.00  0.00    +0.000 A 
ATOM      7  C   UNL     1       2.035   4.697  17.852  0.00  0.00    +0.000 C 
ATOM      8  C   UNL     1       3.458   4.747  17.296  0.00  0.00    +0.000 C 
ATOM      9  N   UNL     1       3.955   3.452  16.779  0.00  0.00    +0.000 NA
ATOM     10  C   UNL     1       4.058   2.414  17.838  0.00  0.00    +0.000 C 
ATOM     11  C   UNL     1       2.738   1.983  18.503  0.00  0.00    +0.000 C 
ENDROOT
BRANCH   1  16
ATOM     12  C   UNL     1       0.668  10.349  18.933  0.00  0.00    +0.000 C 
ATOM     13  N   UNL     1       1.436   9.318  19.631  0.00  0.00    +0.000 NA
ATOM     14  C   UNL     1       2.065   8.394  18.647  0.00  0.00    +0.000 C 
ATOM     15  C   UNL     1       2.735   7.150  19.292  0.00  0.00    +0.000 C 
ATOM     16  N   UNL     1       1.714   6.485  20.108  0.00  0.00    +0.000 N 
ATOM     17  C   UNL     1       1.255   7.348  21.203  0.00  0.00    +0.000 C 
ATOM     18  C   UNL     1       0.551   8.566  20.555  0.00  0.00    +0.000 C 
ENDBRANCH   1  16
BRANCH   9  19
ATOM     19  C   UNL     1       5.310   3.647  16.192  0.00  0.00    +0.000 C 
BRANCH  19  20
ATOM     20  C   UNL     1       6.159   4.686  16.875  0.00  0.00    +0.000 A 
ATOM     21  N   UNL     1       6.954   4.453  17.907  0.00  0.00    +0.000 NA
ATOM     22  C   UNL     1       7.563   5.643  18.197  0.00  0.00    +0.000 A 
ATOM     23  C   UNL     1       7.133   6.626  17.340  0.00  0.00    +0.000 A 
ATOM     24  N   UNL     1       6.227   6.013  16.515  0.00  0.00    +0.000 N 
ATOM     25  C   UNL     1       5.486   6.677  15.471  0.00  0.00    +0.000 C 
ENDBRANCH  19  20
ENDBRANCH   9  19
TORSDOF 3
ENDMDL
MODEL 3
REMARK VINA RESULT:      -6.6      7.197     12.138
REMARK  Name = 
REMARK  5 active torsions:
REMARK  status: ('A' for Active; 'I' for Inactive)
REMARK    1  A    between atoms: C_1  and  N_2
REMARK    2  A    between atoms: N_5  and  C_6
REMARK    3  A    between atoms: N_14  and  C_15
REMARK    4  A    between atoms: C_15  and  C_16
REMARK    5  A    between atoms: N_20  and  C_21
REMARK                            x       y       z     vdW  Elec       q    Type
REMARK                         _______ _______ _______ _____ _____    ______ ____
ROOT
ATOM      1  C   UNL     1      -6.300  12.580  22.075  0.00  0.00    +0.000 A 
ATOM      2  N   UNL     1      -7.248  11.797  22.612  0.00  0.00    +0.000 NA
ATOM      3  C   UNL     1      -7.917  10.990  21.774  0.00  0.00    +0.000 A 
ATOM      4  N   UNL     1      -7.701  10.855  20.458  0.00  0.00    +0.000 NA
ATOM      5  C   UNL     1      -6.730  11.630  19.941  0.00  0.00    +0.000 A 
ATOM      6  C   UNL     1      -6.021  12.546  20.705  0.00  0.00    +0.000 A 
ATOM      7  C   UNL     1      -4.894  13.314  20.072  0.00  0.00    +0.000 C 
ATOM      8  C   UNL     1      -3.698  12.414  19.760  0.00  0.00    +0.000 C 
ATOM      9  N   UNL     1      -3.789  11.710  18.461  0.00  0.00    +0.000 NA
ATOM     10  C   UNL     1      -4.931  10.761  18.403  0.00  0.00    +0.000 C 
ATOM     11  C   UNL     1      -6.338  11.378  18.507  0.00  0.00    +0.000 C 
ENDROOT
BRANCH   1  16
ATOM     12  C   UNL     1      -2.666  15.793  24.740  0.00  0.00    +0.000 C 
ATOM     13  N   UNL     1      -3.858  14.950  24.651  0.00  0.00    +0.000 NA
ATOM     14  C   UNL     1      -3.479  13.569  24.241  0.00  0.00    +0.000 C 
ATOM     15  C   UNL     1      -4.693  12.653  23.923  0.00  0.00    +0.000 C 
ATOM     16  N   UNL     1      -5.495  13.337  22.905  0.00  0.00    +0.000 N 
ATOM     17  C   UNL     1      -6.031  14.609  23.407  0.00  0.00    +0.000 C 
ATOM     18  C   UNL     1      -4.819  15.533  23.682  0.00  0.00    +0.000 C 
ENDBRANCH   1  16
BRANCH   9  19
ATOM     19  C   UNL     1      -2.535  10.937  18.235  0.00  0.00    +0.000 C 
BRANCH  19  20
ATOM     20  C   UNL     1      -1.262  11.690  18.514  0.00  0.00    +0.000 A 
ATOM     21  N   UNL     1      -0.914  12.828  17.936  0.00  0.00    +0.000 NA
ATOM     22  C   UNL     1       0.283  13.189  18.491  0.00  0.00    +0.000 A 
ATOM     23  C   UNL     1       0.686  12.259  19.416  0.00  0.00    +0.000 A 
ATOM     24  N   UNL     1      -0.293  11.300  19.411  0.00  0.00    +0.000 N 
ATOM     25  C   UNL     1      -0.272  10.100  20.211  0.00  0.00    +0.000 C 
ENDBRANCH  19  20
ENDBRANCH   9  19
TORSDOF 3
ENDMDL
MODEL 4
REMARK VINA RESULT:      -6.6      1.745      2.278
REMARK  Name = 
REMARK  5 active torsions:
REMARK  status: ('A' for Active; 'I' for Inactive)
REMARK    1  A    between atoms: C_1  and  N_2
REMARK    2  A    between atoms: N_5  and  C_6
REMARK    3  A    between atoms: N_14  and  C_15
REMARK    4  A    between atoms: C_15  and  C_16
REMARK    5  A    between atoms: N_20  and  C_21
REMARK                            x       y       z     vdW  Elec       q    Type
REMARK                         _______ _______ _______ _____ _____    ______ ____
ROOT
ATOM      1  C   UNL     1       4.557   3.901  17.690  0.00  0.00    +0.000 A 
ATOM      2  N   UNL     1       3.992   2.691  17.816  0.00  0.00    +0.000 NA
ATOM      3  C   UNL     1       3.044   2.558  18.755  0.00  0.00    +0.000 A 
ATOM      4  N   UNL     1       2.571   3.526  19.553  0.00  0.00    +0.000 NA
ATOM      5  C   UNL     1       3.133   4.739  19.396  0.00  0.00    +0.000 A 
ATOM      6  C   UNL     1       4.166   4.973  18.499  0.00  0.00    +0.000 A 
ATOM      7  C   UNL     1       4.682   6.373  18.322  0.00  0.00    +0.000 C 
ATOM      8  C   UNL     1       3.662   7.270  17.620  0.00  0.00    +0.000 C 
ATOM      9  N   UNL     1       2.663   7.881  18.526  0.00  0.00    +0.000 NA
ATOM     10  C   UNL     1       1.801   6.870  19.191  0.00  0.00    +0.000 C 
ATOM     11  C   UNL     1       2.509   5.890  20.145  0.00  0.00    +0.000 C 
ENDROOT
BRANCH   1  16
ATOM     12  C   UNL     1       7.741   5.512  13.460  0.00  0.00    +0.000 C 
ATOM     13  N   UNL     1       7.347   4.606  14.538  0.00  0.00    +0.000 NA
ATOM     14  C   UNL     1       5.977   4.078  14.287  0.00  0.00    +0.000 C 
ATOM     15  C   UNL     1       5.389   3.266  15.474  0.00  0.00    +0.000 C 
ATOM     16  N   UNL     1       5.447   4.130  16.657  0.00  0.00    +0.000 N 
ATOM     17  C   UNL     1       6.831   4.471  17.008  0.00  0.00    +0.000 C 
ATOM     18  C   UNL     1       7.398   5.316  15.841  0.00  0.00    +0.000 C 
ENDBRANCH   1  16
BRANCH   9  19
ATOM     19  C   UNL     1       1.784   8.792  17.741  0.00  0.00    +0.000 C 
BRANCH  19  20
ATOM     20  C   UNL     1       1.710  10.206  18.253  0.00  0.00    +0.000 A 
ATOM     21  N   UNL     1       2.498  11.194  17.861  0.00  0.00    +0.000 NA
ATOM     22  C   UNL     1       2.080  12.308  18.538  0.00  0.00    +0.000 A 
ATOM     23  C   UNL     1       1.028  12.003  19.364  0.00  0.00    +0.000 A 
ATOM     24  N   UNL     1       0.812  10.662  19.191  0.00  0.00    +0.000 N 
ATOM     25  C   UNL     1      -0.186   9.893  19.894  0.00  0.00    +0.000 C 
ENDBRANCH  19  20
ENDBRANCH   9  19
TORSDOF 3
ENDMDL
MODEL 5
REMARK VINA RESULT:      -6.6      1.742      2.502
REMARK  Name = 
REMARK  5 active torsions:
REMARK  status: ('A' for Active; 'I' for Inactive)
REMARK    1  A    between atoms: C_1  and  N_2
REMARK    2  A    between atoms: N_5  and  C_6
REMARK    3  A    between atoms: N_14  and  C_15
REMARK    4  A    between atoms: C_15  and  C_16
REMARK    5  A    between atoms: N_20  and  C_21
REMARK                            x       y       z     vdW  Elec       q    Type
REMARK                         _______ _______ _______ _____ _____    ______ ____
ROOT
ATOM      1  C   UNL     1       3.353   4.390  19.008  0.00  0.00    +0.000 A 
ATOM      2  N   UNL     1       2.638   3.298  19.322  0.00  0.00    +0.000 NA
ATOM      3  C   UNL     1       1.640   3.458  20.203  0.00  0.00    +0.000 A 
ATOM      4  N   UNL     1       1.254   4.611  20.768  0.00  0.00    +0.000 NA
ATOM      5  C   UNL     1       1.966   5.700  20.423  0.00  0.00    +0.000 A 
ATOM      6  C   UNL     1       3.059   5.637  19.570  0.00  0.00    +0.000 A 
ATOM      7  C   UNL     1       3.750   6.909  19.165  0.00  0.00    +0.000 C 
ATOM      8  C   UNL     1       2.880   7.757  18.238  0.00  0.00    +0.000 C 
ATOM      9  N   UNL     1       1.923   8.641  18.941  0.00  0.00    +0.000 NA
ATOM     10  C   UNL     1       0.915   7.884  19.727  0.00  0.00    +0.000 C 
ATOM     11  C   UNL     1       1.454   7.037  20.895  0.00  0.00    +0.000 C 
ENDROOT
BRANCH   1  16
ATOM     12  C   UNL     1       7.097   4.863  14.960  0.00  0.00    +0.000 C 
ATOM     13  N   UNL     1       6.343   4.127  15.974  0.00  0.00    +0.000 NA
ATOM     14  C   UNL     1       4.888   4.164  15.658  0.00  0.00    +0.000 C 
ATOM     15  C   UNL     1       3.987   3.583  16.782  0.00  0.00    +0.000 C 
ATOM     16  N   UNL     1       4.309   4.311  18.013  0.00  0.00    +0.000 N 
ATOM     17  C   UNL     1       5.703   4.091  18.418  0.00  0.00    +0.000 C 
ATOM     18  C   UNL     1       6.598   4.709  17.316  0.00  0.00    +0.000 C 
ENDBRANCH   1  16
BRANCH   9  19
ATOM     19  C   UNL     1       1.199   9.472  17.940  0.00  0.00    +0.000 C 
BRANCH  19  20
ATOM     20  C   UNL     1       0.363  10.584  18.517  0.00  0.00    +0.000 A 
ATOM     21  N   UNL     1       0.802  11.495  19.371  0.00  0.00    +0.000 NA
ATOM     22  C   UNL     1      -0.253  12.331  19.614  0.00  0.00    +0.000 A 
ATOM     23  C   UNL     1      -1.360  11.928  18.910  0.00  0.00    +0.000 A 
ATOM     24  N   UNL     1      -0.965  10.806  18.230  0.00  0.00    +0.000 N 
ATOM     25  C   UNL     1      -1.822  10.016  17.381  0.00  0.00    +0.000 C 
ENDBRANCH  19  20
ENDBRANCH   9  19
TORSDOF 3
ENDMDL
MODEL 6
REMARK VINA RESULT:      -6.6      7.125     12.403
REMARK  Name = 
REMARK  5 active torsions:
REMARK  status: ('A' for Active; 'I' for Inactive)
REMARK    1  A    between atoms: C_1  and  N_2
REMARK    2  A    between atoms: N_5  and  C_6
REMARK    3  A    between atoms: N_14  and  C_15
REMARK    4  A    between atoms: C_15  and  C_16
REMARK    5  A    between atoms: N_20  and  C_21
REMARK                            x       y       z     vdW  Elec       q    Type
REMARK                         _______ _______ _______ _____ _____    ______ ____
ROOT
ATOM      1  C   UNL     1      -6.156  14.102  21.811  0.00  0.00    +0.000 A 
ATOM      2  N   UNL     1      -6.628  15.251  21.303  0.00  0.00    +0.000 NA
ATOM      3  C   UNL     1      -6.040  16.384  21.713  0.00  0.00    +0.000 A 
ATOM      4  N   UNL     1      -4.995  16.482  22.547  0.00  0.00    +0.000 NA
ATOM      5  C   UNL     1      -4.519  15.319  23.029  0.00  0.00    +0.000 A 
ATOM      6  C   UNL     1      -5.094  14.093  22.721  0.00  0.00    +0.000 A 
ATOM      7  C   UNL     1      -4.452  12.832  23.229  0.00  0.00    +0.000 C 
ATOM      8  C   UNL     1      -3.117  12.556  22.537  0.00  0.00    +0.000 C 
ATOM      9  N   UNL     1      -1.960  13.249  23.148  0.00  0.00    +0.000 NA
ATOM     10  C   UNL     1      -2.068  14.728  23.061  0.00  0.00    +0.000 C 
ATOM     11  C   UNL     1      -3.239  15.373  23.824  0.00  0.00    +0.000 C 
ENDROOT
BRANCH   1  16
ATOM     12  C   UNL     1      -7.512   8.947  20.323  0.00  0.00    +0.000 C 
ATOM     13  N   UNL     1      -7.693  10.398  20.351  0.00  0.00    +0.000 NA
ATOM     14  C   UNL     1      -6.517  11.072  19.734  0.00  0.00    +0.000 C 
ATOM     15  C   UNL     1      -6.522  12.617  19.896  0.00  0.00    +0.000 C 
ATOM     16  N   UNL     1      -6.638  12.899  21.330  0.00  0.00    +0.000 N 
ATOM     17  C   UNL     1      -7.907  12.401  21.875  0.00  0.00    +0.000 C 
ATOM     18  C   UNL     1      -7.879  10.858  21.750  0.00  0.00    +0.000 C 
ENDBRANCH   1  16
BRANCH   9  19
ATOM     19  C   UNL     1      -0.715  12.835  22.442  0.00  0.00    +0.000 C 
BRANCH  19  20
ATOM     20  C   UNL     1      -0.517  11.348  22.314  0.00  0.00    +0.000 A 
ATOM     21  N   UNL     1      -0.338  10.518  23.329  0.00  0.00    +0.000 NA
ATOM     22  C   UNL     1      -0.235   9.267  22.786  0.00  0.00    +0.000 A 
ATOM     23  C   UNL     1      -0.343   9.323  21.419  0.00  0.00    +0.000 A 
ATOM     24  N   UNL     1      -0.504  10.652  21.126  0.00  0.00    +0.000 N 
ATOM     25  C   UNL     1      -0.623  11.191  19.793  0.00  0.00    +0.000 C 
ENDBRANCH  19  20
ENDBRANCH   9  19
TORSDOF 3
ENDMDL
MODEL 7
REMARK VINA RESULT:      -6.5      1.636      6.487
REMARK  Name = 
REMARK  5 active torsions:
REMARK  status: ('A' for Active; 'I' for Inactive)
REMARK    1  A    between atoms: C_1  and  N_2
REMARK    2  A    between atoms: N_5  and  C_6
REMARK    3  A    between atoms: N_14  and  C_15
REMARK    4  A    between atoms: C_15  and  C_16
REMARK    5  A    between atoms: N_20  and  C_21
REMARK                            x       y       z     vdW  Elec       q    Type
REMARK                         _______ _______ _______ _____ _____    ______ ____
ROOT
ATOM      1  C   UNL     1       1.983   5.151  20.276  0.00  0.00    +0.000 A 
ATOM      2  N   UNL     1       2.119   4.618  21.500  0.00  0.00    +0.000 NA
ATOM      3  C   UNL     1       2.479   3.327  21.564  0.00  0.00    +0.000 A 
ATOM      4  N   UNL     1       2.762   2.527  20.526  0.00  0.00    +0.000 NA
ATOM      5  C   UNL     1       2.644   3.085  19.307  0.00  0.00    +0.000 A 
ATOM      6  C   UNL     1       2.216   4.393  19.124  0.00  0.00    +0.000 A 
ATOM      7  C   UNL     1       2.192   4.971  17.736  0.00  0.00    +0.000 C 
ATOM      8  C   UNL     1       3.603   5.191  17.189  0.00  0.00    +0.000 C 
ATOM      9  N   UNL     1       4.202   3.997  16.552  0.00  0.00    +0.000 NA
ATOM     10  C   UNL     1       4.399   2.877  17.508  0.00  0.00    +0.000 C 
ATOM     11  C   UNL     1       3.124   2.276  18.129  0.00  0.00    +0.000 C 
ENDROOT
BRANCH   1  16
ATOM     12  C   UNL     1       0.357  10.361  19.358  0.00  0.00    +0.000 C 
ATOM     13  N   UNL     1       1.223   9.337  19.943  0.00  0.00    +0.000 NA
ATOM     14  C   UNL     1       1.898   8.561  18.866  0.00  0.00    +0.000 C 
ATOM     15  C   UNL     1       2.681   7.322  19.380  0.00  0.00    +0.000 C 
ATOM     16  N   UNL     1       1.738   6.505  20.150  0.00  0.00    +0.000 N 
ATOM     17  C   UNL     1       1.241   7.225  21.329  0.00  0.00    +0.000 C 
ATOM     18  C   UNL     1       0.425   8.435  20.811  0.00  0.00    +0.000 C 
ENDBRANCH   1  16
BRANCH   9  19
ATOM     19  C   UNL     1       5.532   4.360  15.987  0.00  0.00    +0.000 C 
BRANCH  19  20
ATOM     20  C   UNL     1       6.174   5.579  16.596  0.00  0.00    +0.000 A 
ATOM     21  N   UNL     1       5.828   6.828  16.329  0.00  0.00    +0.000 NA
ATOM     22  C   UNL     1       6.626   7.620  17.109  0.00  0.00    +0.000 A 
ATOM     23  C   UNL     1       7.480   6.853  17.860  0.00  0.00    +0.000 A 
ATOM     24  N   UNL     1       7.199   5.558  17.514  0.00  0.00    +0.000 N 
ATOM     25  C   UNL     1       7.886   4.400  18.033  0.00  0.00    +0.000 C 
ENDBRANCH  19  20
ENDBRANCH   9  19
TORSDOF 3
ENDMDL
MODEL 8
REMARK VINA RESULT:      -6.5      1.759      2.644
REMARK  Name = 
REMARK  5 active torsions:
REMARK  status: ('A' for Active; 'I' for Inactive)
REMARK    1  A    between atoms: C_1  and  N_2
REMARK    2  A    between atoms: N_5  and  C_6
REMARK    3  A    between atoms: N_14  and  C_15
REMARK    4  A    between atoms: C_15  and  C_16
REMARK    5  A    between atoms: N_20  and  C_21
REMARK                            x       y       z     vdW  Elec       q    Type
REMARK                         _______ _______ _______ _____ _____    ______ ____
ROOT
ATOM      1  C   UNL     1       3.319   4.472  19.061  0.00  0.00    +0.000 A 
ATOM      2  N   UNL     1       2.600   3.396  19.415  0.00  0.00    +0.000 NA
ATOM      3  C   UNL     1       1.608   3.591  20.297  0.00  0.00    +0.000 A 
ATOM      4  N   UNL     1       1.233   4.764  20.826  0.00  0.00    +0.000 NA
ATOM      5  C   UNL     1       1.950   5.836  20.442  0.00  0.00    +0.000 A 
ATOM      6  C   UNL     1       3.037   5.738  19.584  0.00  0.00    +0.000 A 
ATOM      7  C   UNL     1       3.734   6.992  19.135  0.00  0.00    +0.000 C 
ATOM      8  C   UNL     1       2.863   7.816  18.186  0.00  0.00    +0.000 C 
ATOM      9  N   UNL     1       1.917   8.728  18.866  0.00  0.00    +0.000 NA
ATOM     10  C   UNL     1       0.908   8.003  19.682  0.00  0.00    +0.000 C 
ATOM     11  C   UNL     1       1.449   7.192  20.873  0.00  0.00    +0.000 C 
ENDROOT
BRANCH   1  16
ATOM     12  C   UNL     1       7.057   4.792  14.993  0.00  0.00    +0.000 C 
ATOM     13  N   UNL     1       6.288   4.090  16.020  0.00  0.00    +0.000 NA
ATOM     14  C   UNL     1       4.833   4.162  15.709  0.00  0.00    +0.000 C 
ATOM     15  C   UNL     1       3.921   3.620  16.844  0.00  0.00    +0.000 C 
ATOM     16  N   UNL     1       4.269   4.355  18.064  0.00  0.00    +0.000 N 
ATOM     17  C   UNL     1       5.658   4.103  18.466  0.00  0.00    +0.000 C 
ATOM     18  C   UNL     1       6.564   4.682  17.352  0.00  0.00    +0.000 C 
ENDBRANCH   1  16
BRANCH   9  19
ATOM     19  C   UNL     1       1.191   9.532  17.843  0.00  0.00    +0.000 C 
BRANCH  19  20
ATOM     20  C   UNL     1       0.081  10.397  18.379  0.00  0.00    +0.000 A 
ATOM     21  N   UNL     1      -1.209  10.183  18.177  0.00  0.00    +0.000 NA
ATOM     22  C   UNL     1      -1.871  11.169  18.856  0.00  0.00    +0.000 A 
ATOM     23  C   UNL     1      -0.980  12.007  19.479  0.00  0.00    +0.000 A 
ATOM     24  N   UNL     1       0.259  11.520  19.155  0.00  0.00    +0.000 N 
ATOM     25  C   UNL     1       1.508  12.113  19.565  0.00  0.00    +0.000 C 
ENDBRANCH  19  20
ENDBRANCH   9  19
TORSDOF 3
ENDMDL
MODEL 9
REMARK VINA RESULT:      -6.4      1.546      1.943
REMARK  Name = 
REMARK  5 active torsions:
REMARK  status: ('A' for Active; 'I' for Inactive)
REMARK    1  A    between atoms: C_1  and  N_2
REMARK    2  A    between atoms: N_5  and  C_6
REMARK    3  A    between atoms: N_14  and  C_15
REMARK    4  A    between atoms: C_15  and  C_16
REMARK    5  A    between atoms: N_20  and  C_21
REMARK                            x       y       z     vdW  Elec       q    Type
REMARK                         _______ _______ _______ _____ _____    ______ ____
ROOT
ATOM      1  C   UNL     1       4.457   3.857  18.222  0.00  0.00    +0.000 A 
ATOM      2  N   UNL     1       4.279   2.799  17.416  0.00  0.00    +0.000 NA
ATOM      3  C   UNL     1       3.327   1.922  17.766  0.00  0.00    +0.000 A 
ATOM      4  N   UNL     1       2.502   2.021  18.818  0.00  0.00    +0.000 NA
ATOM      5  C   UNL     1       2.678   3.101  19.602  0.00  0.00    +0.000 A 
ATOM      6  C   UNL     1       3.676   4.037  19.368  0.00  0.00    +0.000 A 
ATOM      7  C   UNL     1       3.754   5.260  20.238  0.00  0.00    +0.000 C 
ATOM      8  C   UNL     1       2.585   6.213  19.984  0.00  0.00    +0.000 C 
ATOM      9  N   UNL     1       1.361   5.893  20.751  0.00  0.00    +0.000 NA
ATOM     10  C   UNL     1       0.786   4.572  20.385  0.00  0.00    +0.000 C 
ATOM     11  C   UNL     1       1.658   3.340  20.686  0.00  0.00    +0.000 C 
ENDROOT
BRANCH   1  16
ATOM     12  C   UNL     1       7.822   8.179  17.427  0.00  0.00    +0.000 C 
ATOM     13  N   UNL     1       7.208   6.905  17.055  0.00  0.00    +0.000 NA
ATOM     14  C   UNL     1       5.733   7.068  16.920  0.00  0.00    +0.000 C 
ATOM     15  C   UNL     1       4.969   5.729  16.725  0.00  0.00    +0.000 C 
ATOM     16  N   UNL     1       5.335   4.857  17.845  0.00  0.00    +0.000 N 
ATOM     17  C   UNL     1       6.769   4.543  17.836  0.00  0.00    +0.000 C 
ATOM     18  C   UNL     1       7.525   5.873  18.074  0.00  0.00    +0.000 C 
ENDBRANCH   1  16
BRANCH   9  19
ATOM     19  C   UNL     1       0.330   6.934  20.484  0.00  0.00    +0.000 C 
BRANCH  19  20
ATOM     20  C   UNL     1       0.644   8.300  21.034  0.00  0.00    +0.000 A 
ATOM     21  N   UNL     1       0.729   8.595  22.321  0.00  0.00    +0.000 NA
ATOM     22  C   UNL     1       1.063   9.920  22.389  0.00  0.00    +0.000 A 
ATOM     23  C   UNL     1       1.178  10.453  21.130  0.00  0.00    +0.000 A 
ATOM     24  N   UNL     1       0.892   9.421  20.275  0.00  0.00    +0.000 N 
ATOM     25  C   UNL     1       0.855   9.531  18.837  0.00  0.00    +0.000 C 
ENDBRANCH  19  20
ENDBRANCH   9  19
TORSDOF 3
ENDMDL
