MODEL 1
REMARK VINA RESULT:      -7.7      0.000      0.000
REMARK  Name = 
REMARK  1 active torsions:
REMARK  status: ('A' for Active; 'I' for Inactive)
REMARK    1  A    between atoms: N_1  and  C_2
REMARK                            x       y       z     vdW  Elec       q    Type
REMARK                         _______ _______ _______ _____ _____    ______ ____
ROOT
ATOM      1  C   UNL     1       2.497   2.566  18.843  0.00  0.00    +0.000 A 
ATOM      2  C   UNL     1       1.644   2.277  19.931  0.00  0.00    +0.000 A 
ATOM      3  C   UNL     1       1.058   3.286  20.717  0.00  0.00    +0.000 A 
ATOM      4  C   UNL     1       1.349   4.621  20.472  0.00  0.00    +0.000 A 
ATOM      5  C   UNL     1       2.231   4.887  19.442  0.00  0.00    +0.000 A 
ATOM      6  C   UNL     1       2.829   3.901  18.625  0.00  0.00    +0.000 A 
ATOM      7  C   UNL     1       3.707   4.573  17.674  0.00  0.00    +0.000 A 
ATOM      8  C   UNL     1       4.528   4.106  16.658  0.00  0.00    +0.000 A 
ATOM      9  C   UNL     1       5.250   5.030  15.884  0.00  0.00    +0.000 A 
ATOM     10  C   UNL     1       5.167   6.411  16.130  0.00  0.00    +0.000 A 
ATOM     11  C   UNL     1       4.358   6.894  17.154  0.00  0.00    +0.000 A 
ATOM     12  C   UNL     1       3.650   5.962  17.892  0.00  0.00    +0.000 A 
ATOM     13  C   UNL     1       2.725   6.209  19.011  0.00  0.00    +0.000 C 
ATOM     14  O   UNL     1       2.426   7.285  19.484  0.00  0.00    +0.000 OA
ENDROOT
BRANCH   1  15
ATOM     15  N   UNL     1       3.123   1.496  18.190  0.00  0.00    +0.000 N 
ATOM     16  H   UNL     1       3.950   1.151  18.668  0.00  0.00    +0.000 HD
ATOM     17  H   UNL     1       2.497   0.738  17.954  0.00  0.00    +0.000 HD
ENDBRANCH   1  15
TORSDOF 1
ENDMDL
MODEL 2
REMARK VINA RESULT:      -7.3      2.269      2.993
REMARK  Name = 
REMARK  1 active torsions:
REMARK  status: ('A' for Active; 'I' for Inactive)
REMARK    1  A    between atoms: N_1  and  C_2
REMARK                            x       y       z     vdW  Elec       q    Type
REMARK                         _______ _______ _______ _____ _____    ______ ____
ROOT
ATOM      1  C   UNL     1       2.309   5.738  19.959  0.00  0.00    +0.000 A 
ATOM      2  C   UNL     1       1.468   5.047  20.859  0.00  0.00    +0.000 A 
ATOM      3  C   UNL     1       1.331   3.647  20.840  0.00  0.00    +0.000 A 
ATOM      4  C   UNL     1       1.994   2.893  19.880  0.00  0.00    +0.000 A 
ATOM      5  C   UNL     1       2.767   3.586  18.969  0.00  0.00    +0.000 A 
ATOM      6  C   UNL     1       2.936   4.989  18.966  0.00  0.00    +0.000 A 
ATOM      7  C   UNL     1       3.801   5.338  17.844  0.00  0.00    +0.000 A 
ATOM      8  C   UNL     1       4.291   6.548  17.372  0.00  0.00    +0.000 A 
ATOM      9  C   UNL     1       5.140   6.552  16.254  0.00  0.00    +0.000 A 
ATOM     10  C   UNL     1       5.490   5.359  15.600  0.00  0.00    +0.000 A 
ATOM     11  C   UNL     1       4.998   4.139  16.053  0.00  0.00    +0.000 A 
ATOM     12  C   UNL     1       4.172   4.164  17.162  0.00  0.00    +0.000 A 
ATOM     13  C   UNL     1       3.534   3.024  17.841  0.00  0.00    +0.000 C 
ATOM     14  O   UNL     1       3.623   1.853  17.535  0.00  0.00    +0.000 OA
ENDROOT
BRANCH   1  15
ATOM     15  N   UNL     1       2.293   7.139  19.980  0.00  0.00    +0.000 N 
ATOM     16  H   UNL     1       1.741   7.553  19.234  0.00  0.00    +0.000 HD
ATOM     17  H   UNL     1       2.045   7.531  20.878  0.00  0.00    +0.000 HD
ENDBRANCH   1  15
TORSDOF 1
ENDMDL
MODEL 3
REMARK VINA RESULT:      -7.3      1.111      1.111
REMARK  Name = 
REMARK  1 active torsions:
REMARK  status: ('A' for Active; 'I' for Inactive)
REMARK    1  A    between atoms: N_1  and  C_2
REMARK                            x       y       z     vdW  Elec       q    Type
REMARK                         _______ _______ _______ _____ _____    ______ ____
ROOT
ATOM      1  C   UNL     1       3.799   2.840  19.939  0.00  0.00    +0.000 A 
ATOM      2  C   UNL     1       3.033   2.580  21.097  0.00  0.00    +0.000 A 
ATOM      3  C   UNL     1       2.123   3.516  21.624  0.00  0.00    +0.000 A 
ATOM      4  C   UNL     1       1.988   4.767  21.037  0.00  0.00    +0.000 A 
ATOM      5  C   UNL     1       2.786   5.029  19.940  0.00  0.00    +0.000 A 
ATOM      6  C   UNL     1       3.701   4.111  19.378  0.00  0.00    +0.000 A 
ATOM      7  C   UNL     1       4.365   4.763  18.254  0.00  0.00    +0.000 A 
ATOM      8  C   UNL     1       5.336   4.340  17.358  0.00  0.00    +0.000 A 
ATOM      9  C   UNL     1       5.763   5.217  16.348  0.00  0.00    +0.000 A 
ATOM     10  C   UNL     1       5.237   6.515  16.239  0.00  0.00    +0.000 A 
ATOM     11  C   UNL     1       4.271   6.959  17.136  0.00  0.00    +0.000 A 
ATOM     12  C   UNL     1       3.861   6.070  18.114  0.00  0.00    +0.000 A 
ATOM     13  C   UNL     1       2.857   6.285  19.169  0.00  0.00    +0.000 C 
ATOM     14  O   UNL     1       2.212   7.294  19.364  0.00  0.00    +0.000 OA
ENDROOT
BRANCH   1  15
ATOM     15  N   UNL     1       4.760   1.895  19.556  0.00  0.00    +0.000 N 
ATOM     16  H   UNL     1       5.638   1.974  20.061  0.00  0.00    +0.000 HD
ATOM     17  H   UNL     1       4.421   0.942  19.561  0.00  0.00    +0.000 HD
ENDBRANCH   1  15
TORSDOF 1
ENDMDL
MODEL 4
REMARK VINA RESULT:      -7.0      0.802      4.220
REMARK  Name = 
REMARK  1 active torsions:
REMARK  status: ('A' for Active; 'I' for Inactive)
REMARK    1  A    between atoms: N_1  and  C_2
REMARK                            x       y       z     vdW  Elec       q    Type
REMARK                         _______ _______ _______ _____ _____    ______ ____
ROOT
ATOM      1  C   UNL     1       4.791   4.340  16.980  0.00  0.00    +0.000 A 
ATOM      2  C   UNL     1       5.388   5.318  16.155  0.00  0.00    +0.000 A 
ATOM      3  C   UNL     1       5.135   6.693  16.313  0.00  0.00    +0.000 A 
ATOM      4  C   UNL     1       4.233   7.132  17.273  0.00  0.00    +0.000 A 
ATOM      5  C   UNL     1       3.611   6.161  18.034  0.00  0.00    +0.000 A 
ATOM      6  C   UNL     1       3.850   4.773  17.910  0.00  0.00    +0.000 A 
ATOM      7  C   UNL     1       2.993   4.080  18.867  0.00  0.00    +0.000 A 
ATOM      8  C   UNL     1       2.815   2.739  19.173  0.00  0.00    +0.000 A 
ATOM      9  C   UNL     1       1.908   2.383  20.184  0.00  0.00    +0.000 A 
ATOM     10  C   UNL     1       1.172   3.358  20.879  0.00  0.00    +0.000 A 
ATOM     11  C   UNL     1       1.330   4.706  20.576  0.00  0.00    +0.000 A 
ATOM     12  C   UNL     1       2.237   5.028  19.583  0.00  0.00    +0.000 A 
ATOM     13  C   UNL     1       2.595   6.366  19.083  0.00  0.00    +0.000 C 
ATOM     14  O   UNL     1       2.146   7.427  19.462  0.00  0.00    +0.000 OA
ENDROOT
BRANCH   1  15
ATOM     15  N   UNL     1       5.014   2.990  16.674  0.00  0.00    +0.000 N 
ATOM     16  H   UNL     1       5.991   2.717  16.710  0.00  0.00    +0.000 HD
ATOM     17  H   UNL     1       4.437   2.351  17.205  0.00  0.00    +0.000 HD
ENDBRANCH   1  15
TORSDOF 1
ENDMDL
MODEL 5
REMARK VINA RESULT:      -7.0      2.327      5.097
REMARK  Name = 
REMARK  1 active torsions:
REMARK  status: ('A' for Active; 'I' for Inactive)
REMARK    1  A    between atoms: N_1  and  C_2
REMARK                            x       y       z     vdW  Elec       q    Type
REMARK                         _______ _______ _______ _____ _____    ______ ____
ROOT
ATOM      1  C   UNL     1       4.146   6.245  17.153  0.00  0.00    +0.000 A 
ATOM      2  C   UNL     1       5.110   6.179  16.123  0.00  0.00    +0.000 A 
ATOM      3  C   UNL     1       5.573   4.957  15.601  0.00  0.00    +0.000 A 
ATOM      4  C   UNL     1       5.122   3.755  16.130  0.00  0.00    +0.000 A 
ATOM      5  C   UNL     1       4.223   3.833  17.177  0.00  0.00    +0.000 A 
ATOM      6  C   UNL     1       3.729   5.042  17.718  0.00  0.00    +0.000 A 
ATOM      7  C   UNL     1       2.825   4.710  18.815  0.00  0.00    +0.000 A 
ATOM      8  C   UNL     1       2.073   5.487  19.684  0.00  0.00    +0.000 A 
ATOM      9  C   UNL     1       1.266   4.854  20.642  0.00  0.00    +0.000 A 
ATOM     10  C   UNL     1       1.217   3.453  20.744  0.00  0.00    +0.000 A 
ATOM     11  C   UNL     1       1.974   2.660  19.888  0.00  0.00    +0.000 A 
ATOM     12  C   UNL     1       2.752   3.311  18.947  0.00  0.00    +0.000 A 
ATOM     13  C   UNL     1       3.629   2.711  17.928  0.00  0.00    +0.000 C 
ATOM     14  O   UNL     1       3.823   1.529  17.740  0.00  0.00    +0.000 OA
ENDROOT
BRANCH   1  15
ATOM     15  N   UNL     1       3.832   7.502  17.687  0.00  0.00    +0.000 N 
ATOM     16  H   UNL     1       4.381   7.749  18.504  0.00  0.00    +0.000 HD
ATOM     17  H   UNL     1       3.837   8.248  17.005  0.00  0.00    +0.000 HD
ENDBRANCH   1  15
TORSDOF 1
ENDMDL
MODEL 6
REMARK VINA RESULT:      -6.9      1.038      1.334
REMARK  Name = 
REMARK  1 active torsions:
REMARK  status: ('A' for Active; 'I' for Inactive)
REMARK    1  A    between atoms: N_1  and  C_2
REMARK                            x       y       z     vdW  Elec       q    Type
REMARK                         _______ _______ _______ _____ _____    ______ ____
ROOT
ATOM      1  C   UNL     1       2.953   3.393  19.307  0.00  0.00    +0.000 A 
ATOM      2  C   UNL     1       2.153   3.673  20.437  0.00  0.00    +0.000 A 
ATOM      3  C   UNL     1       1.712   4.973  20.745  0.00  0.00    +0.000 A 
ATOM      4  C   UNL     1       2.104   6.049  19.959  0.00  0.00    +0.000 A 
ATOM      5  C   UNL     1       2.935   5.770  18.891  0.00  0.00    +0.000 A 
ATOM      6  C   UNL     1       3.386   4.476  18.545  0.00  0.00    +0.000 A 
ATOM      7  C   UNL     1       4.255   4.597  17.379  0.00  0.00    +0.000 A 
ATOM      8  C   UNL     1       4.962   3.667  16.630  0.00  0.00    +0.000 A 
ATOM      9  C   UNL     1       5.709   4.105  15.525  0.00  0.00    +0.000 A 
ATOM     10  C   UNL     1       5.765   5.465  15.175  0.00  0.00    +0.000 A 
ATOM     11  C   UNL     1       5.072   6.411  15.924  0.00  0.00    +0.000 A 
ATOM     12  C   UNL     1       4.336   5.949  17.000  0.00  0.00    +0.000 A 
ATOM     13  C   UNL     1       3.514   6.734  17.937  0.00  0.00    +0.000 C 
ATOM     14  O   UNL     1       3.344   7.935  17.925  0.00  0.00    +0.000 OA
ENDROOT
BRANCH   1  15
ATOM     15  N   UNL     1       3.437   2.088  19.145  0.00  0.00    +0.000 N 
ATOM     16  H   UNL     1       3.947   1.945  18.279  0.00  0.00    +0.000 HD
ATOM     17  H   UNL     1       3.962   1.746  19.938  0.00  0.00    +0.000 HD
ENDBRANCH   1  15
TORSDOF 1
ENDMDL
MODEL 7
REMARK VINA RESULT:      -6.7      1.967      2.268
REMARK  Name = 
REMARK  1 active torsions:
REMARK  status: ('A' for Active; 'I' for Inactive)
REMARK    1  A    between atoms: N_1  and  C_2
REMARK                            x       y       z     vdW  Elec       q    Type
REMARK                         _______ _______ _______ _____ _____    ______ ____
ROOT
ATOM      1  C   UNL     1       3.896   3.104  18.839  0.00  0.00    +0.000 A 
ATOM      2  C   UNL     1       2.524   2.774  18.903  0.00  0.00    +0.000 A 
ATOM      3  C   UNL     1       1.517   3.647  18.451  0.00  0.00    +0.000 A 
ATOM      4  C   UNL     1       1.849   4.905  17.967  0.00  0.00    +0.000 A 
ATOM      5  C   UNL     1       3.190   5.238  17.965  0.00  0.00    +0.000 A 
ATOM      6  C   UNL     1       4.228   4.383  18.399  0.00  0.00    +0.000 A 
ATOM      7  C   UNL     1       5.491   5.099  18.262  0.00  0.00    +0.000 A 
ATOM      8  C   UNL     1       6.806   4.750  18.534  0.00  0.00    +0.000 A 
ATOM      9  C   UNL     1       7.828   5.676  18.267  0.00  0.00    +0.000 A 
ATOM     10  C   UNL     1       7.541   6.948  17.744  0.00  0.00    +0.000 A 
ATOM     11  C   UNL     1       6.227   7.318  17.477  0.00  0.00    +0.000 A 
ATOM     12  C   UNL     1       5.242   6.382  17.740  0.00  0.00    +0.000 A 
ATOM     13  C   UNL     1       3.790   6.517  17.539  0.00  0.00    +0.000 C 
ATOM     14  O   UNL     1       3.203   7.486  17.105  0.00  0.00    +0.000 OA
ENDROOT
BRANCH   1  15
ATOM     15  N   UNL     1       4.817   2.220  19.417  0.00  0.00    +0.000 N 
ATOM     16  H   UNL     1       4.447   1.288  19.577  0.00  0.00    +0.000 HD
ATOM     17  H   UNL     1       5.704   2.181  18.933  0.00  0.00    +0.000 HD
ENDBRANCH   1  15
TORSDOF 1
ENDMDL
MODEL 8
REMARK VINA RESULT:      -6.6      1.257      4.178
REMARK  Name = 
REMARK  1 active torsions:
REMARK  status: ('A' for Active; 'I' for Inactive)
REMARK    1  A    between atoms: N_1  and  C_2
REMARK                            x       y       z     vdW  Elec       q    Type
REMARK                         _______ _______ _______ _____ _____    ______ ____
ROOT
ATOM      1  C   UNL     1       4.698   3.806  17.087  0.00  0.00    +0.000 A 
ATOM      2  C   UNL     1       5.441   4.042  15.909  0.00  0.00    +0.000 A 
ATOM      3  C   UNL     1       5.621   5.332  15.377  0.00  0.00    +0.000 A 
ATOM      4  C   UNL     1       5.018   6.428  15.981  0.00  0.00    +0.000 A 
ATOM      5  C   UNL     1       4.246   6.176  17.099  0.00  0.00    +0.000 A 
ATOM      6  C   UNL     1       4.053   4.896  17.666  0.00  0.00    +0.000 A 
ATOM      7  C   UNL     1       3.164   5.040  18.814  0.00  0.00    +0.000 A 
ATOM      8  C   UNL     1       2.645   4.130  19.724  0.00  0.00    +0.000 A 
ATOM      9  C   UNL     1       1.814   4.595  20.757  0.00  0.00    +0.000 A 
ATOM     10  C   UNL     1       1.489   5.957  20.875  0.00  0.00    +0.000 A 
ATOM     11  C   UNL     1       1.992   6.880  19.964  0.00  0.00    +0.000 A 
ATOM     12  C   UNL     1       2.816   6.396  18.964  0.00  0.00    +0.000 A 
ATOM     13  C   UNL     1       3.479   7.156  17.891  0.00  0.00    +0.000 C 
ATOM     14  O   UNL     1       3.410   8.352  17.698  0.00  0.00    +0.000 OA
ENDROOT
BRANCH   1  15
ATOM     15  N   UNL     1       4.477   2.479  17.476  0.00  0.00    +0.000 N 
ATOM     16  H   UNL     1       4.769   2.276  18.428  0.00  0.00    +0.000 HD
ATOM     17  H   UNL     1       3.534   2.155  17.307  0.00  0.00    +0.000 HD
ENDBRANCH   1  15
TORSDOF 1
ENDMDL
MODEL 9
REMARK VINA RESULT:      -6.4      2.454      4.875
REMARK  Name = 
REMARK  1 active torsions:
REMARK  status: ('A' for Active; 'I' for Inactive)
REMARK    1  A    between atoms: N_1  and  C_2
REMARK                            x       y       z     vdW  Elec       q    Type
REMARK                         _______ _______ _______ _____ _____    ______ ____
ROOT
ATOM      1  C   UNL     1       6.090   4.930  18.380  0.00  0.00    +0.000 A 
ATOM      2  C   UNL     1       6.969   4.752  17.289  0.00  0.00    +0.000 A 
ATOM      3  C   UNL     1       6.540   4.238  16.052  0.00  0.00    +0.000 A 
ATOM      4  C   UNL     1       5.223   3.835  15.881  0.00  0.00    +0.000 A 
ATOM      5  C   UNL     1       4.387   3.959  16.974  0.00  0.00    +0.000 A 
ATOM      6  C   UNL     1       4.780   4.481  18.227  0.00  0.00    +0.000 A 
ATOM      7  C   UNL     1       3.628   4.427  19.121  0.00  0.00    +0.000 A 
ATOM      8  C   UNL     1       3.445   4.800  20.445  0.00  0.00    +0.000 A 
ATOM      9  C   UNL     1       2.179   4.638  21.031  0.00  0.00    +0.000 A 
ATOM     10  C   UNL     1       1.104   4.095  20.307  0.00  0.00    +0.000 A 
ATOM     11  C   UNL     1       1.275   3.706  18.983  0.00  0.00    +0.000 A 
ATOM     12  C   UNL     1       2.529   3.886  18.428  0.00  0.00    +0.000 A 
ATOM     13  C   UNL     1       2.967   3.569  17.059  0.00  0.00    +0.000 C 
ATOM     14  O   UNL     1       2.292   3.087  16.173  0.00  0.00    +0.000 OA
ENDROOT
BRANCH   1  15
ATOM     15  N   UNL     1       6.630   5.339  19.607  0.00  0.00    +0.000 N 
ATOM     16  H   UNL     1       7.421   4.781  19.913  0.00  0.00    +0.000 HD
ATOM     17  H   UNL     1       6.842   6.327  19.650  0.00  0.00    +0.000 HD
ENDBRANCH   1  15
TORSDOF 1
ENDMDL
