MODEL 1
REMARK VINA RESULT:      -7.8      0.000      0.000
REMARK  Name = 
REMARK  3 active torsions:
REMARK  status: ('A' for Active; 'I' for Inactive)
REMARK    1  A    between atoms: C_2  and  C_4
REMARK    2  A    between atoms: C_6  and  N_7
REMARK    3  A    between atoms: N_7  and  C_8
REMARK                            x       y       z     vdW  Elec       q    Type
REMARK                         _______ _______ _______ _____ _____    ______ ____
ROOT
ATOM      1  C   UNL     1       5.334   3.958  17.675  0.00  0.00    +0.000 A 
ATOM      2  C   UNL     1       5.687   4.647  18.844  0.00  0.00    +0.000 A 
ATOM      3  C   UNL     1       6.645   5.652  18.810  0.00  0.00    +0.000 A 
ATOM      4  C   UNL     1       7.257   5.974  17.603  0.00  0.00    +0.000 A 
ATOM      5  C   UNL     1       6.934   5.309  16.429  0.00  0.00    +0.000 A 
ATOM      6  N   UNL     1       7.556   5.680  15.292  0.00  0.00    +0.000 NA
ATOM      7  C   UNL     1       7.206   5.015  14.172  0.00  0.00    +0.000 A 
ATOM      8  C   UNL     1       6.268   4.005  14.182  0.00  0.00    +0.000 A 
ATOM      9  N   UNL     1       5.632   3.617  15.309  0.00  0.00    +0.000 NA
ATOM     10  C   UNL     1       5.965   4.272  16.452  0.00  0.00    +0.000 A 
ENDROOT
BRANCH   1  11
ATOM     11  N   UNL     1       4.383   2.884  17.719  0.00  0.00    +0.000 N 
ATOM     12  H   UNL     1       4.779   2.114  17.167  0.00  0.00    +0.000 HD
BRANCH  11  15
ATOM     13  C   UNL     1       2.159   3.488  19.496  0.00  0.00    +0.000 C 
ATOM     14  C   UNL     1       2.136   2.245  18.571  0.00  0.00    +0.000 C 
ATOM     15  C   UNL     1       2.965   3.056  17.544  0.00  0.00    +0.000 C 
ATOM     16  C   UNL     1       2.414   4.334  18.226  0.00  0.00    +0.000 C 
BRANCH  13  18
ATOM     17  F   UNL     1       0.841   3.032  21.384  0.00  0.00    +0.000 F 
ATOM     18  C   UNL     1       0.914   3.816  20.279  0.00  0.00    +0.000 C 
ATOM     19  F   UNL     1       0.991   5.099  20.713  0.00  0.00    +0.000 F 
ENDBRANCH  13  18
ENDBRANCH  11  15
ENDBRANCH   1  11
TORSDOF 3
ENDMDL
MODEL 2
REMARK VINA RESULT:      -7.7      1.062      2.481
REMARK  Name = 
REMARK  3 active torsions:
REMARK  status: ('A' for Active; 'I' for Inactive)
REMARK    1  A    between atoms: C_2  and  C_4
REMARK    2  A    between atoms: C_6  and  N_7
REMARK    3  A    between atoms: N_7  and  C_8
REMARK                            x       y       z     vdW  Elec       q    Type
REMARK                         _______ _______ _______ _____ _____    ______ ____
ROOT
ATOM      1  C   UNL     1       5.176   3.762  16.806  0.00  0.00    +0.000 A 
ATOM      2  C   UNL     1       5.150   3.779  15.404  0.00  0.00    +0.000 A 
ATOM      3  C   UNL     1       5.978   4.638  14.693  0.00  0.00    +0.000 A 
ATOM      4  C   UNL     1       6.838   5.487  15.381  0.00  0.00    +0.000 A 
ATOM      5  C   UNL     1       6.886   5.498  16.768  0.00  0.00    +0.000 A 
ATOM      6  N   UNL     1       7.752   6.336  17.372  0.00  0.00    +0.000 NA
ATOM      7  C   UNL     1       7.773   6.308  18.720  0.00  0.00    +0.000 A 
ATOM      8  C   UNL     1       6.953   5.474  19.449  0.00  0.00    +0.000 A 
ATOM      9  N   UNL     1       6.077   4.626  18.865  0.00  0.00    +0.000 NA
ATOM     10  C   UNL     1       6.037   4.634  17.507  0.00  0.00    +0.000 A 
ENDROOT
BRANCH   1  11
ATOM     11  N   UNL     1       4.283   2.913  17.542  0.00  0.00    +0.000 N 
ATOM     12  H   UNL     1       4.661   1.961  17.480  0.00  0.00    +0.000 HD
BRANCH  11  15
ATOM     13  C   UNL     1       2.132   3.549  19.397  0.00  0.00    +0.000 C 
ATOM     14  C   UNL     1       2.139   2.222  18.595  0.00  0.00    +0.000 C 
ATOM     15  C   UNL     1       2.848   2.978  17.446  0.00  0.00    +0.000 C 
ATOM     16  C   UNL     1       2.253   4.280  18.038  0.00  0.00    +0.000 C 
BRANCH  13  18
ATOM     17  F   UNL     1       0.845   3.037  21.292  0.00  0.00    +0.000 F 
ATOM     18  C   UNL     1       0.916   3.873  20.226  0.00  0.00    +0.000 C 
ATOM     19  F   UNL     1       1.043   5.130  20.720  0.00  0.00    +0.000 F 
ENDBRANCH  13  18
ENDBRANCH  11  15
ENDBRANCH   1  11
TORSDOF 3
ENDMDL
MODEL 3
REMARK VINA RESULT:      -7.3      1.267      1.606
REMARK  Name = 
REMARK  3 active torsions:
REMARK  status: ('A' for Active; 'I' for Inactive)
REMARK    1  A    between atoms: C_2  and  C_4
REMARK    2  A    between atoms: C_6  and  N_7
REMARK    3  A    between atoms: N_7  and  C_8
REMARK                            x       y       z     vdW  Elec       q    Type
REMARK                         _______ _______ _______ _____ _____    ______ ____
ROOT
ATOM      1  C   UNL     1       6.008   4.458  18.311  0.00  0.00    +0.000 A 
ATOM      2  C   UNL     1       6.604   5.407  19.153  0.00  0.00    +0.000 A 
ATOM      3  C   UNL     1       7.420   6.403  18.630  0.00  0.00    +0.000 A 
ATOM      4  C   UNL     1       7.644   6.453  17.258  0.00  0.00    +0.000 A 
ATOM      5  C   UNL     1       7.074   5.526  16.398  0.00  0.00    +0.000 A 
ATOM      6  N   UNL     1       7.323   5.640  15.078  0.00  0.00    +0.000 NA
ATOM      7  C   UNL     1       6.741   4.725  14.276  0.00  0.00    +0.000 A 
ATOM      8  C   UNL     1       5.938   3.721  14.772  0.00  0.00    +0.000 A 
ATOM      9  N   UNL     1       5.675   3.587  16.091  0.00  0.00    +0.000 NA
ATOM     10  C   UNL     1       6.248   4.497  16.921  0.00  0.00    +0.000 A 
ENDROOT
BRANCH   1  11
ATOM     11  N   UNL     1       5.209   3.398  18.857  0.00  0.00    +0.000 N 
ATOM     12  H   UNL     1       4.945   2.791  18.072  0.00  0.00    +0.000 HD
BRANCH  11  15
ATOM     13  C   UNL     1       2.311   3.124  18.808  0.00  0.00    +0.000 C 
ATOM     14  C   UNL     1       2.988   4.444  19.256  0.00  0.00    +0.000 C 
ATOM     15  C   UNL     1       4.156   3.597  19.818  0.00  0.00    +0.000 C 
ATOM     16  C   UNL     1       3.159   2.413  19.889  0.00  0.00    +0.000 C 
BRANCH  13  18
ATOM     17  F   UNL     1       0.397   1.811  18.466  0.00  0.00    +0.000 F 
ATOM     18  C   UNL     1       0.816   3.009  18.946  0.00  0.00    +0.000 C 
ATOM     19  F   UNL     1       0.492   3.038  20.264  0.00  0.00    +0.000 F 
ENDBRANCH  13  18
ENDBRANCH  11  15
ENDBRANCH   1  11
TORSDOF 3
ENDMDL
MODEL 4
REMARK VINA RESULT:      -7.2      0.795      1.027
REMARK  Name = 
REMARK  3 active torsions:
REMARK  status: ('A' for Active; 'I' for Inactive)
REMARK    1  A    between atoms: C_2  and  C_4
REMARK    2  A    between atoms: C_6  and  N_7
REMARK    3  A    between atoms: N_7  and  C_8
REMARK                            x       y       z     vdW  Elec       q    Type
REMARK                         _______ _______ _______ _____ _____    ______ ____
ROOT
ATOM      1  C   UNL     1       5.899   4.319  18.259  0.00  0.00    +0.000 A 
ATOM      2  C   UNL     1       6.421   5.234  19.184  0.00  0.00    +0.000 A 
ATOM      3  C   UNL     1       7.244   6.271  18.764  0.00  0.00    +0.000 A 
ATOM      4  C   UNL     1       7.551   6.398  17.413  0.00  0.00    +0.000 A 
ATOM      5  C   UNL     1       7.055   5.506  16.473  0.00  0.00    +0.000 A 
ATOM      6  N   UNL     1       7.381   5.695  15.179  0.00  0.00    +0.000 NA
ATOM      7  C   UNL     1       6.870   4.812  14.296  0.00  0.00    +0.000 A 
ATOM      8  C   UNL     1       6.061   3.768  14.688  0.00  0.00    +0.000 A 
ATOM      9  N   UNL     1       5.721   3.559  15.980  0.00  0.00    +0.000 NA
ATOM     10  C   UNL     1       6.222   4.435  16.890  0.00  0.00    +0.000 A 
ENDROOT
BRANCH   1  11
ATOM     11  N   UNL     1       5.092   3.216  18.699  0.00  0.00    +0.000 N 
ATOM     12  H   UNL     1       5.661   2.369  18.586  0.00  0.00    +0.000 HD
BRANCH  11  15
ATOM     13  C   UNL     1       2.559   3.582  20.085  0.00  0.00    +0.000 C 
ATOM     14  C   UNL     1       2.919   2.236  19.406  0.00  0.00    +0.000 C 
ATOM     15  C   UNL     1       3.708   3.039  18.344  0.00  0.00    +0.000 C 
ATOM     16  C   UNL     1       2.820   4.253  18.716  0.00  0.00    +0.000 C 
BRANCH  13  18
ATOM     17  F   UNL     1       0.855   5.059  20.734  0.00  0.00    +0.000 F 
ATOM     18  C   UNL     1       1.174   3.743  20.656  0.00  0.00    +0.000 C 
ATOM     19  F   UNL     1       0.280   3.172  19.811  0.00  0.00    +0.000 F 
ENDBRANCH  13  18
ENDBRANCH  11  15
ENDBRANCH   1  11
TORSDOF 3
ENDMDL
MODEL 5
REMARK VINA RESULT:      -7.1      1.135      1.276
REMARK  Name = 
REMARK  3 active torsions:
REMARK  status: ('A' for Active; 'I' for Inactive)
REMARK    1  A    between atoms: C_2  and  C_4
REMARK    2  A    between atoms: C_6  and  N_7
REMARK    3  A    between atoms: N_7  and  C_8
REMARK                            x       y       z     vdW  Elec       q    Type
REMARK                         _______ _______ _______ _____ _____    ______ ____
ROOT
ATOM      1  C   UNL     1       4.631   4.975  17.706  0.00  0.00    +0.000 A 
ATOM      2  C   UNL     1       5.230   5.322  18.925  0.00  0.00    +0.000 A 
ATOM      3  C   UNL     1       6.605   5.501  19.011  0.00  0.00    +0.000 A 
ATOM      4  C   UNL     1       7.390   5.333  17.875  0.00  0.00    +0.000 A 
ATOM      5  C   UNL     1       6.829   4.985  16.655  0.00  0.00    +0.000 A 
ATOM      6  N   UNL     1       7.646   4.850  15.591  0.00  0.00    +0.000 NA
ATOM      7  C   UNL     1       7.060   4.521  14.421  0.00  0.00    +0.000 A 
ATOM      8  C   UNL     1       5.700   4.326  14.313  0.00  0.00    +0.000 A 
ATOM      9  N   UNL     1       4.862   4.455  15.366  0.00  0.00    +0.000 NA
ATOM     10  C   UNL     1       5.427   4.787  16.555  0.00  0.00    +0.000 A 
ENDROOT
BRANCH   1  11
ATOM     11  N   UNL     1       3.218   4.737  17.628  0.00  0.00    +0.000 N 
ATOM     12  H   UNL     1       2.760   5.504  18.134  0.00  0.00    +0.000 HD
BRANCH  11  15
ATOM     13  C   UNL     1       2.332   3.253  19.970  0.00  0.00    +0.000 C 
ATOM     14  C   UNL     1       3.313   2.630  18.946  0.00  0.00    +0.000 C 
ATOM     15  C   UNL     1       2.605   3.452  17.841  0.00  0.00    +0.000 C 
ATOM     16  C   UNL     1       1.375   3.508  18.781  0.00  0.00    +0.000 C 
BRANCH  13  18
ATOM     17  F   UNL     1       2.781   2.149  21.992  0.00  0.00    +0.000 F 
ATOM     18  C   UNL     1       1.806   2.376  21.076  0.00  0.00    +0.000 C 
ATOM     19  F   UNL     1       0.807   3.030  21.720  0.00  0.00    +0.000 F 
ENDBRANCH  13  18
ENDBRANCH  11  15
ENDBRANCH   1  11
TORSDOF 3
ENDMDL
MODEL 6
REMARK VINA RESULT:      -7.0      1.636      2.251
REMARK  Name = 
REMARK  3 active torsions:
REMARK  status: ('A' for Active; 'I' for Inactive)
REMARK    1  A    between atoms: C_2  and  C_4
REMARK    2  A    between atoms: C_6  and  N_7
REMARK    3  A    between atoms: N_7  and  C_8
REMARK                            x       y       z     vdW  Elec       q    Type
REMARK                         _______ _______ _______ _____ _____    ______ ____
ROOT
ATOM      1  C   UNL     1       3.191   4.498  17.295  0.00  0.00    +0.000 A 
ATOM      2  C   UNL     1       2.467   5.526  17.914  0.00  0.00    +0.000 A 
ATOM      3  C   UNL     1       2.995   6.808  18.002  0.00  0.00    +0.000 A 
ATOM      4  C   UNL     1       4.253   7.068  17.470  0.00  0.00    +0.000 A 
ATOM      5  C   UNL     1       4.997   6.072  16.854  0.00  0.00    +0.000 A 
ATOM      6  N   UNL     1       6.204   6.396  16.348  0.00  0.00    +0.000 NA
ATOM      7  C   UNL     1       6.891   5.401  15.750  0.00  0.00    +0.000 A 
ATOM      8  C   UNL     1       6.395   4.118  15.661  0.00  0.00    +0.000 A 
ATOM      9  N   UNL     1       5.188   3.771  16.161  0.00  0.00    +0.000 NA
ATOM     10  C   UNL     1       4.475   4.755  16.768  0.00  0.00    +0.000 A 
ENDROOT
BRANCH   1  11
ATOM     11  N   UNL     1       2.669   3.161  17.251  0.00  0.00    +0.000 N 
ATOM     12  H   UNL     1       1.681   3.237  16.983  0.00  0.00    +0.000 HD
BRANCH  11  15
ATOM     13  C   UNL     1       2.258   3.006  20.129  0.00  0.00    +0.000 C 
ATOM     14  C   UNL     1       3.649   2.743  19.498  0.00  0.00    +0.000 C 
ATOM     15  C   UNL     1       2.923   2.165  18.259  0.00  0.00    +0.000 C 
ATOM     16  C   UNL     1       1.709   1.908  19.187  0.00  0.00    +0.000 C 
BRANCH  13  18
ATOM     17  F   UNL     1       2.443   3.876  22.301  0.00  0.00    +0.000 F 
ATOM     18  C   UNL     1       2.090   2.765  21.607  0.00  0.00    +0.000 C 
ATOM     19  F   UNL     1       0.778   2.539  21.869  0.00  0.00    +0.000 F 
ENDBRANCH  13  18
ENDBRANCH  11  15
ENDBRANCH   1  11
TORSDOF 3
ENDMDL
MODEL 7
REMARK VINA RESULT:      -7.0      1.465      2.744
REMARK  Name = 
REMARK  3 active torsions:
REMARK  status: ('A' for Active; 'I' for Inactive)
REMARK    1  A    between atoms: C_2  and  C_4
REMARK    2  A    between atoms: C_6  and  N_7
REMARK    3  A    between atoms: N_7  and  C_8
REMARK                            x       y       z     vdW  Elec       q    Type
REMARK                         _______ _______ _______ _____ _____    ______ ____
ROOT
ATOM      1  C   UNL     1       4.576   4.250  16.623  0.00  0.00    +0.000 A 
ATOM      2  C   UNL     1       4.827   3.944  15.278  0.00  0.00    +0.000 A 
ATOM      3  C   UNL     1       6.097   4.109  14.741  0.00  0.00    +0.000 A 
ATOM      4  C   UNL     1       7.126   4.583  15.547  0.00  0.00    +0.000 A 
ATOM      5  C   UNL     1       6.910   4.901  16.881  0.00  0.00    +0.000 A 
ATOM      6  N   UNL     1       7.954   5.344  17.609  0.00  0.00    +0.000 NA
ATOM      7  C   UNL     1       7.704   5.632  18.904  0.00  0.00    +0.000 A 
ATOM      8  C   UNL     1       6.450   5.489  19.457  0.00  0.00    +0.000 A 
ATOM      9  N   UNL     1       5.389   5.047  18.746  0.00  0.00    +0.000 NA
ATOM     10  C   UNL     1       5.615   4.748  17.439  0.00  0.00    +0.000 A 
ENDROOT
BRANCH   1  11
ATOM     11  N   UNL     1       3.253   4.131  17.164  0.00  0.00    +0.000 N 
ATOM     12  H   UNL     1       3.140   4.893  17.843  0.00  0.00    +0.000 HD
BRANCH  11  15
ATOM     13  C   UNL     1       2.332   3.055  19.707  0.00  0.00    +0.000 C 
ATOM     14  C   UNL     1       3.358   2.290  18.833  0.00  0.00    +0.000 C 
ATOM     15  C   UNL     1       2.664   2.886  17.584  0.00  0.00    +0.000 C 
ATOM     16  C   UNL     1       1.405   3.071  18.468  0.00  0.00    +0.000 C 
BRANCH  13  18
ATOM     17  F   UNL     1       2.749   2.328  21.899  0.00  0.00    +0.000 F 
ATOM     18  C   UNL     1       1.794   2.370  20.936  0.00  0.00    +0.000 C 
ATOM     19  F   UNL     1       0.767   3.103  21.435  0.00  0.00    +0.000 F 
ENDBRANCH  13  18
ENDBRANCH  11  15
ENDBRANCH   1  11
TORSDOF 3
ENDMDL
MODEL 8
REMARK VINA RESULT:      -7.0      0.744      1.031
REMARK  Name = 
REMARK  3 active torsions:
REMARK  status: ('A' for Active; 'I' for Inactive)
REMARK    1  A    between atoms: C_2  and  C_4
REMARK    2  A    between atoms: C_6  and  N_7
REMARK    3  A    between atoms: N_7  and  C_8
REMARK                            x       y       z     vdW  Elec       q    Type
REMARK                         _______ _______ _______ _____ _____    ______ ____
ROOT
ATOM      1  C   UNL     1       5.458   4.125  17.732  0.00  0.00    +0.000 A 
ATOM      2  C   UNL     1       5.882   4.875  18.839  0.00  0.00    +0.000 A 
ATOM      3  C   UNL     1       6.850   5.861  18.695  0.00  0.00    +0.000 A 
ATOM      4  C   UNL     1       7.400   6.102  17.440  0.00  0.00    +0.000 A 
ATOM      5  C   UNL     1       7.006   5.376  16.326  0.00  0.00    +0.000 A 
ATOM      6  N   UNL     1       7.571   5.670  15.138  0.00  0.00    +0.000 NA
ATOM      7  C   UNL     1       7.153   4.947  14.079  0.00  0.00    +0.000 A 
ATOM      8  C   UNL     1       6.204   3.955  14.197  0.00  0.00    +0.000 A 
ATOM      9  N   UNL     1       5.624   3.643  15.378  0.00  0.00    +0.000 NA
ATOM     10  C   UNL     1       6.027   4.357  16.461  0.00  0.00    +0.000 A 
ENDROOT
BRANCH   1  11
ATOM     11  N   UNL     1       4.498   3.071  17.890  0.00  0.00    +0.000 N 
ATOM     12  H   UNL     1       3.724   3.275  17.246  0.00  0.00    +0.000 HD
BRANCH  11  15
ATOM     13  C   UNL     1       2.036   3.200  19.437  0.00  0.00    +0.000 C 
ATOM     14  C   UNL     1       3.395   3.627  20.048  0.00  0.00    +0.000 C 
ATOM     15  C   UNL     1       4.073   2.552  19.164  0.00  0.00    +0.000 C 
ATOM     16  C   UNL     1       2.698   1.841  19.109  0.00  0.00    +0.000 C 
BRANCH  13  18
ATOM     17  F   UNL     1       1.207   2.807  21.597  0.00  0.00    +0.000 F 
ATOM     18  C   UNL     1       0.831   3.157  20.341  0.00  0.00    +0.000 C 
ATOM     19  F   UNL     1       0.297   4.401  20.423  0.00  0.00    +0.000 F 
ENDBRANCH  13  18
ENDBRANCH  11  15
ENDBRANCH   1  11
TORSDOF 3
ENDMDL
MODEL 9
REMARK VINA RESULT:      -7.0      1.565      2.620
REMARK  Name = 
REMARK  3 active torsions:
REMARK  status: ('A' for Active; 'I' for Inactive)
REMARK    1  A    between atoms: C_2  and  C_4
REMARK    2  A    between atoms: C_6  and  N_7
REMARK    3  A    between atoms: N_7  and  C_8
REMARK                            x       y       z     vdW  Elec       q    Type
REMARK                         _______ _______ _______ _____ _____    ______ ____
ROOT
ATOM      1  C   UNL     1       5.479   3.993  17.829  0.00  0.00    +0.000 A 
ATOM      2  C   UNL     1       4.853   3.698  16.610  0.00  0.00    +0.000 A 
ATOM      3  C   UNL     1       5.103   4.470  15.482  0.00  0.00    +0.000 A 
ATOM      4  C   UNL     1       5.982   5.544  15.569  0.00  0.00    +0.000 A 
ATOM      5  C   UNL     1       6.614   5.866  16.762  0.00  0.00    +0.000 A 
ATOM      6  N   UNL     1       7.464   6.913  16.773  0.00  0.00    +0.000 NA
ATOM      7  C   UNL     1       8.064   7.186  17.950  0.00  0.00    +0.000 A 
ATOM      8  C   UNL     1       7.823   6.443  19.085  0.00  0.00    +0.000 A 
ATOM      9  N   UNL     1       6.976   5.391  19.097  0.00  0.00    +0.000 NA
ATOM     10  C   UNL     1       6.358   5.093  17.924  0.00  0.00    +0.000 A 
ENDROOT
BRANCH   1  11
ATOM     11  N   UNL     1       5.180   3.229  19.007  0.00  0.00    +0.000 N 
ATOM     12  H   UNL     1       6.073   2.862  19.357  0.00  0.00    +0.000 HD
BRANCH  11  15
ATOM     13  C   UNL     1       2.521   3.305  20.188  0.00  0.00    +0.000 C 
ATOM     14  C   UNL     1       3.529   2.184  20.545  0.00  0.00    +0.000 C 
ATOM     15  C   UNL     1       4.088   2.296  19.106  0.00  0.00    +0.000 C 
ATOM     16  C   UNL     1       2.722   2.907  18.706  0.00  0.00    +0.000 C 
BRANCH  13  18
ATOM     17  F   UNL     1       1.149   2.897  22.048  0.00  0.00    +0.000 F 
ATOM     18  C   UNL     1       1.117   3.198  20.725  0.00  0.00    +0.000 C 
ATOM     19  F   UNL     1       0.509   4.405  20.612  0.00  0.00    +0.000 F 
ENDBRANCH  13  18
ENDBRANCH  11  15
ENDBRANCH   1  11
TORSDOF 3
ENDMDL
