MODEL 1
REMARK VINA RESULT:      -7.7      0.000      0.000
REMARK  Name = 
REMARK  7 active torsions:
REMARK  status: ('A' for Active; 'I' for Inactive)
REMARK    1  A    between atoms: C_1  and  C_2
REMARK    2  A    between atoms: C_2  and  C_3
REMARK    3  A    between atoms: C_2  and  C_4
REMARK    4  A    between atoms: C_2  and  O_5
REMARK    5  A    between atoms: O_5  and  C_6
REMARK    6  A    between atoms: C_14  and  C_16
REMARK    7  A    between atoms: C_18  and  C_19
REMARK                            x       y       z     vdW  Elec       q    Type
REMARK                         _______ _______ _______ _____ _____    ______ ____
ROOT
ATOM      1  C   UNL     1       1.448   8.264  20.330  0.00  0.00    +0.000 C 
ATOM      2  O   UNL     1       0.836   8.643  21.318  0.00  0.00    +0.000 OA
ATOM      3  N   UNL     1       1.815   6.952  20.170  0.00  0.00    +0.000 N 
ATOM      4  C   UNL     1       1.700   6.047  21.290  0.00  0.00    +0.000 C 
ATOM      5  C   UNL     1       1.998   4.678  20.726  0.00  0.00    +0.000 C 
ATOM      6  C   UNL     1       0.772   3.960  20.158  0.00  0.00    +0.000 C 
ATOM      7  C   UNL     1       1.359   3.133  19.032  0.00  0.00    +0.000 C 
ATOM      8  N   UNL     1       2.449   3.946  18.515  0.00  0.00    +0.000 N 
ATOM      9  C   UNL     1       3.053   3.635  17.313  0.00  0.00    +0.000 C 
ATOM     10  O   UNL     1       2.712   2.680  16.623  0.00  0.00    +0.000 OA
ATOM     11  C   UNL     1       2.886   4.935  19.496  0.00  0.00    +0.000 C 
ATOM     12  C   UNL     1       2.640   6.405  19.111  0.00  0.00    +0.000 C 
ENDROOT
BRANCH   9  13
ATOM     13  C   UNL     1       4.128   4.551  16.835  0.00  0.00    +0.000 C 
ATOM     14  C   UNL     1       5.040   4.083  15.730  0.00  0.00    +0.000 C 
ATOM     15  C   UNL     1       5.598   4.260  17.119  0.00  0.00    +0.000 C 
BRANCH  15  16
ATOM     16  C   UNL     1       6.474   5.432  17.508  0.00  0.00    +0.000 A 
ATOM     17  C   UNL     1       7.289   5.460  18.648  0.00  0.00    +0.000 A 
ATOM     18  C   UNL     1       8.085   6.572  18.928  0.00  0.00    +0.000 A 
ATOM     19  C   UNL     1       8.043   7.647  18.058  0.00  0.00    +0.000 A 
ATOM     20  N   UNL     1       7.267   7.682  16.957  0.00  0.00    +0.000 NA
ATOM     21  C   UNL     1       6.506   6.586  16.720  0.00  0.00    +0.000 A 
ENDBRANCH  15  16
ENDBRANCH   9  13
BRANCH   1  22
ATOM     22  O   UNL     1       1.885   9.080  19.328  0.00  0.00    +0.000 OA
BRANCH  22  24
ATOM     23  C   UNL     1       0.911  11.106  20.339  0.00  0.00    +0.000 C 
ATOM     24  C   UNL     1       1.131  10.293  19.052  0.00  0.00    +0.000 C 
ATOM     25  C   UNL     1      -0.190   9.986  18.330  0.00  0.00    +0.000 C 
ATOM     26  C   UNL     1       1.997  11.148  18.111  0.00  0.00    +0.000 C 
ENDBRANCH  22  24
ENDBRANCH   1  22
TORSDOF 4
ENDMDL
MODEL 2
REMARK VINA RESULT:      -7.3      0.586      1.279
REMARK  Name = 
REMARK  7 active torsions:
REMARK  status: ('A' for Active; 'I' for Inactive)
REMARK    1  A    between atoms: C_1  and  C_2
REMARK    2  A    between atoms: C_2  and  C_3
REMARK    3  A    between atoms: C_2  and  C_4
REMARK    4  A    between atoms: C_2  and  O_5
REMARK    5  A    between atoms: O_5  and  C_6
REMARK    6  A    between atoms: C_14  and  C_16
REMARK    7  A    between atoms: C_18  and  C_19
REMARK                            x       y       z     vdW  Elec       q    Type
REMARK                         _______ _______ _______ _____ _____    ______ ____
ROOT
ATOM      1  C   UNL     1       1.406   8.311  20.283  0.00  0.00    +0.000 C 
ATOM      2  O   UNL     1       0.772   8.691  21.257  0.00  0.00    +0.000 OA
ATOM      3  N   UNL     1       1.780   7.000  20.135  0.00  0.00    +0.000 N 
ATOM      4  C   UNL     1       1.645   6.098  21.256  0.00  0.00    +0.000 C 
ATOM      5  C   UNL     1       1.961   4.728  20.702  0.00  0.00    +0.000 C 
ATOM      6  C   UNL     1       0.749   4.004  20.111  0.00  0.00    +0.000 C 
ATOM      7  C   UNL     1       1.362   3.175  19.000  0.00  0.00    +0.000 C 
ATOM      8  N   UNL     1       2.459   3.990  18.503  0.00  0.00    +0.000 N 
ATOM      9  C   UNL     1       3.089   3.678  17.314  0.00  0.00    +0.000 C 
ATOM     10  O   UNL     1       2.766   2.720  16.621  0.00  0.00    +0.000 OA
ATOM     11  C   UNL     1       2.872   4.984  19.490  0.00  0.00    +0.000 C 
ATOM     12  C   UNL     1       2.629   6.452  19.095  0.00  0.00    +0.000 C 
ENDROOT
BRANCH   9  13
ATOM     13  C   UNL     1       4.171   4.596  16.857  0.00  0.00    +0.000 C 
ATOM     14  C   UNL     1       5.075   4.149  15.736  0.00  0.00    +0.000 C 
ATOM     15  C   UNL     1       5.639   4.285  17.127  0.00  0.00    +0.000 C 
BRANCH  15  16
ATOM     16  C   UNL     1       6.528   5.439  17.542  0.00  0.00    +0.000 A 
ATOM     17  C   UNL     1       6.600   6.660  16.860  0.00  0.00    +0.000 A 
ATOM     18  C   UNL     1       7.431   7.685  17.318  0.00  0.00    +0.000 A 
ATOM     19  C   UNL     1       8.186   7.460  18.454  0.00  0.00    +0.000 A 
ATOM     20  N   UNL     1       8.169   6.301  19.141  0.00  0.00    +0.000 NA
ATOM     21  C   UNL     1       7.354   5.329  18.665  0.00  0.00    +0.000 A 
ENDBRANCH  15  16
ENDBRANCH   9  13
BRANCH   1  22
ATOM     22  O   UNL     1       1.861   9.126  19.288  0.00  0.00    +0.000 OA
BRANCH  22  24
ATOM     23  C   UNL     1      -0.225  10.073  18.380  0.00  0.00    +0.000 C 
ATOM     24  C   UNL     1       1.139  10.361  19.029  0.00  0.00    +0.000 C 
ATOM     25  C   UNL     1       1.977  11.345  18.198  0.00  0.00    +0.000 C 
ATOM     26  C   UNL     1       0.867  11.010  20.398  0.00  0.00    +0.000 C 
ENDBRANCH  22  24
ENDBRANCH   1  22
TORSDOF 4
ENDMDL
MODEL 3
REMARK VINA RESULT:      -6.6      6.552     11.784
REMARK  Name = 
REMARK  7 active torsions:
REMARK  status: ('A' for Active; 'I' for Inactive)
REMARK    1  A    between atoms: C_1  and  C_2
REMARK    2  A    between atoms: C_2  and  C_3
REMARK    3  A    between atoms: C_2  and  C_4
REMARK    4  A    between atoms: C_2  and  O_5
REMARK    5  A    between atoms: O_5  and  C_6
REMARK    6  A    between atoms: C_14  and  C_16
REMARK    7  A    between atoms: C_18  and  C_19
REMARK                            x       y       z     vdW  Elec       q    Type
REMARK                         _______ _______ _______ _____ _____    ______ ____
ROOT
ATOM      1  C   UNL     1      -0.414  12.183  20.953  0.00  0.00    +0.000 C 
ATOM      2  O   UNL     1       0.683  12.025  21.469  0.00  0.00    +0.000 OA
ATOM      3  N   UNL     1      -1.490  12.631  21.675  0.00  0.00    +0.000 N 
ATOM      4  C   UNL     1      -1.400  12.683  23.116  0.00  0.00    +0.000 C 
ATOM      5  C   UNL     1      -2.658  13.386  23.568  0.00  0.00    +0.000 C 
ATOM      6  C   UNL     1      -2.534  14.910  23.613  0.00  0.00    +0.000 C 
ATOM      7  C   UNL     1      -3.940  15.372  23.282  0.00  0.00    +0.000 C 
ATOM      8  N   UNL     1      -4.439  14.373  22.349  0.00  0.00    +0.000 N 
ATOM      9  C   UNL     1      -5.594  14.597  21.626  0.00  0.00    +0.000 C 
ATOM     10  O   UNL     1      -6.251  15.628  21.722  0.00  0.00    +0.000 OA
ATOM     11  C   UNL     1      -3.686  13.126  22.454  0.00  0.00    +0.000 C 
ATOM     12  C   UNL     1      -2.859  12.745  21.211  0.00  0.00    +0.000 C 
ENDROOT
BRANCH   9  13
ATOM     13  C   UNL     1      -6.004  13.540  20.658  0.00  0.00    +0.000 C 
ATOM     14  C   UNL     1      -7.138  13.830  19.707  0.00  0.00    +0.000 C 
ATOM     15  C   UNL     1      -7.336  12.811  20.800  0.00  0.00    +0.000 C 
BRANCH  15  16
ATOM     16  C   UNL     1      -7.342  11.320  20.540  0.00  0.00    +0.000 A 
ATOM     17  C   UNL     1      -6.837  10.723  19.377  0.00  0.00    +0.000 A 
ATOM     18  C   UNL     1      -6.860   9.336  19.219  0.00  0.00    +0.000 A 
ATOM     19  C   UNL     1      -7.402   8.568  20.234  0.00  0.00    +0.000 A 
ATOM     20  N   UNL     1      -7.916   9.088  21.366  0.00  0.00    +0.000 NA
ATOM     21  C   UNL     1      -7.879  10.438  21.481  0.00  0.00    +0.000 A 
ENDBRANCH  15  16
ENDBRANCH   9  13
BRANCH   1  22
ATOM     22  O   UNL     1      -0.711  11.883  19.657  0.00  0.00    +0.000 OA
BRANCH  22  24
ATOM     23  C   UNL     1       1.036  10.489  18.618  0.00  0.00    +0.000 C 
ATOM     24  C   UNL     1      -0.397  10.548  19.172  0.00  0.00    +0.000 C 
ATOM     25  C   UNL     1      -1.433  10.058  18.148  0.00  0.00    +0.000 C 
ATOM     26  C   UNL     1      -0.457   9.610  20.390  0.00  0.00    +0.000 C 
ENDBRANCH  22  24
ENDBRANCH   1  22
TORSDOF 4
ENDMDL
MODEL 4
REMARK VINA RESULT:      -6.5      7.004     12.029
REMARK  Name = 
REMARK  7 active torsions:
REMARK  status: ('A' for Active; 'I' for Inactive)
REMARK    1  A    between atoms: C_1  and  C_2
REMARK    2  A    between atoms: C_2  and  C_3
REMARK    3  A    between atoms: C_2  and  C_4
REMARK    4  A    between atoms: C_2  and  O_5
REMARK    5  A    between atoms: O_5  and  C_6
REMARK    6  A    between atoms: C_14  and  C_16
REMARK    7  A    between atoms: C_18  and  C_19
REMARK                            x       y       z     vdW  Elec       q    Type
REMARK                         _______ _______ _______ _____ _____    ______ ____
ROOT
ATOM      1  C   UNL     1      -1.301  11.675  22.235  0.00  0.00    +0.000 C 
ATOM      2  O   UNL     1      -0.421  11.464  23.057  0.00  0.00    +0.000 OA
ATOM      3  N   UNL     1      -2.420  12.403  22.550  0.00  0.00    +0.000 N 
ATOM      4  C   UNL     1      -2.690  12.716  23.934  0.00  0.00    +0.000 C 
ATOM      5  C   UNL     1      -3.865  13.666  23.903  0.00  0.00    +0.000 C 
ATOM      6  C   UNL     1      -3.470  15.136  23.759  0.00  0.00    +0.000 C 
ATOM      7  C   UNL     1      -4.631  15.722  22.981  0.00  0.00    +0.000 C 
ATOM      8  N   UNL     1      -5.057  14.644  22.101  0.00  0.00    +0.000 N 
ATOM      9  C   UNL     1      -5.927  14.888  21.056  0.00  0.00    +0.000 C 
ATOM     10  O   UNL     1      -6.378  16.001  20.810  0.00  0.00    +0.000 OA
ATOM     11  C   UNL     1      -4.606  13.346  22.594  0.00  0.00    +0.000 C 
ATOM     12  C   UNL     1      -3.579  12.620  21.706  0.00  0.00    +0.000 C 
ENDROOT
BRANCH   9  13
ATOM     13  C   UNL     1      -6.271  13.735  20.175  0.00  0.00    +0.000 C 
ATOM     14  C   UNL     1      -7.430  13.873  19.221  0.00  0.00    +0.000 C 
ATOM     15  C   UNL     1      -7.547  12.929  20.391  0.00  0.00    +0.000 C 
BRANCH  15  16
ATOM     16  C   UNL     1      -7.451  11.425  20.244  0.00  0.00    +0.000 A 
ATOM     17  C   UNL     1      -6.917  10.777  19.122  0.00  0.00    +0.000 A 
ATOM     18  C   UNL     1      -6.845   9.384  19.070  0.00  0.00    +0.000 A 
ATOM     19  C   UNL     1      -7.322   8.660  20.148  0.00  0.00    +0.000 A 
ATOM     20  N   UNL     1      -7.860   9.228  21.245  0.00  0.00    +0.000 NA
ATOM     21  C   UNL     1      -7.916  10.582  21.258  0.00  0.00    +0.000 A 
ENDBRANCH  15  16
ENDBRANCH   9  13
BRANCH   1  22
ATOM     22  O   UNL     1      -1.311  11.177  20.965  0.00  0.00    +0.000 OA
BRANCH  22  24
ATOM     23  C   UNL     1       0.560  10.519  19.502  0.00  0.00    +0.000 C 
ATOM     24  C   UNL     1      -0.315  11.670  20.027  0.00  0.00    +0.000 C 
ATOM     25  C   UNL     1       0.526  12.803  20.636  0.00  0.00    +0.000 C 
ATOM     26  C   UNL     1      -1.086  12.245  18.826  0.00  0.00    +0.000 C 
ENDBRANCH  22  24
ENDBRANCH   1  22
TORSDOF 4
ENDMDL
MODEL 5
REMARK VINA RESULT:      -6.5      7.419     11.574
REMARK  Name = 
REMARK  7 active torsions:
REMARK  status: ('A' for Active; 'I' for Inactive)
REMARK    1  A    between atoms: C_1  and  C_2
REMARK    2  A    between atoms: C_2  and  C_3
REMARK    3  A    between atoms: C_2  and  C_4
REMARK    4  A    between atoms: C_2  and  O_5
REMARK    5  A    between atoms: O_5  and  C_6
REMARK    6  A    between atoms: C_14  and  C_16
REMARK    7  A    between atoms: C_18  and  C_19
REMARK                            x       y       z     vdW  Elec       q    Type
REMARK                         _______ _______ _______ _____ _____    ______ ____
ROOT
ATOM      1  C   UNL     1      -1.349  11.286  18.122  0.00  0.00    +0.000 C 
ATOM      2  O   UNL     1      -0.473  10.525  17.739  0.00  0.00    +0.000 OA
ATOM      3  N   UNL     1      -1.386  11.750  19.413  0.00  0.00    +0.000 N 
ATOM      4  C   UNL     1      -0.528  11.143  20.404  0.00  0.00    +0.000 C 
ATOM      5  C   UNL     1      -0.681  12.000  21.639  0.00  0.00    +0.000 C 
ATOM      6  C   UNL     1       0.280  13.189  21.691  0.00  0.00    +0.000 C 
ATOM      7  C   UNL     1      -0.520  14.237  22.439  0.00  0.00    +0.000 C 
ATOM      8  N   UNL     1      -1.897  14.000  22.032  0.00  0.00    +0.000 N 
ATOM      9  C   UNL     1      -2.884  14.925  22.308  0.00  0.00    +0.000 C 
ATOM     10  O   UNL     1      -2.664  15.979  22.895  0.00  0.00    +0.000 OA
ATOM     11  C   UNL     1      -2.071  12.647  21.510  0.00  0.00    +0.000 C 
ATOM     12  C   UNL     1      -2.431  12.554  20.016  0.00  0.00    +0.000 C 
ENDROOT
BRANCH   9  13
ATOM     13  C   UNL     1      -4.257  14.622  21.810  0.00  0.00    +0.000 C 
ATOM     14  C   UNL     1      -5.423  15.372  22.402  0.00  0.00    +0.000 C 
ATOM     15  C   UNL     1      -5.274  13.899  22.687  0.00  0.00    +0.000 C 
BRANCH  15  16
ATOM     16  C   UNL     1      -6.135  12.845  22.025  0.00  0.00    +0.000 A 
ATOM     17  C   UNL     1      -6.039  12.486  20.673  0.00  0.00    +0.000 A 
ATOM     18  C   UNL     1      -6.857  11.488  20.140  0.00  0.00    +0.000 A 
ATOM     19  C   UNL     1      -7.768  10.870  20.976  0.00  0.00    +0.000 A 
ATOM     20  N   UNL     1      -7.916  11.184  22.278  0.00  0.00    +0.000 NA
ATOM     21  C   UNL     1      -7.108  12.160  22.759  0.00  0.00    +0.000 A 
ENDBRANCH  15  16
ENDBRANCH   9  13
BRANCH   1  22
ATOM     22  O   UNL     1      -2.401  11.704  17.361  0.00  0.00    +0.000 OA
BRANCH  22  24
ATOM     23  C   UNL     1      -3.372   9.474  17.762  0.00  0.00    +0.000 C 
ATOM     24  C   UNL     1      -3.308  10.698  16.832  0.00  0.00    +0.000 C 
ATOM     25  C   UNL     1      -2.945  10.309  15.390  0.00  0.00    +0.000 C 
ATOM     26  C   UNL     1      -4.709  11.333  16.812  0.00  0.00    +0.000 C 
ENDBRANCH  22  24
ENDBRANCH   1  22
TORSDOF 4
ENDMDL
MODEL 6
REMARK VINA RESULT:      -6.4      8.065     10.146
REMARK  Name = 
REMARK  7 active torsions:
REMARK  status: ('A' for Active; 'I' for Inactive)
REMARK    1  A    between atoms: C_1  and  C_2
REMARK    2  A    between atoms: C_2  and  C_3
REMARK    3  A    between atoms: C_2  and  C_4
REMARK    4  A    between atoms: C_2  and  O_5
REMARK    5  A    between atoms: O_5  and  C_6
REMARK    6  A    between atoms: C_14  and  C_16
REMARK    7  A    between atoms: C_18  and  C_19
REMARK                            x       y       z     vdW  Elec       q    Type
REMARK                         _______ _______ _______ _____ _____    ______ ____
ROOT
ATOM      1  C   UNL     1       0.441  13.853  20.975  0.00  0.00    +0.000 C 
ATOM      2  O   UNL     1       1.442  13.822  21.675  0.00  0.00    +0.000 OA
ATOM      3  N   UNL     1      -0.725  13.240  21.359  0.00  0.00    +0.000 N 
ATOM      4  C   UNL     1      -0.707  12.334  22.484  0.00  0.00    +0.000 C 
ATOM      5  C   UNL     1      -2.157  11.997  22.745  0.00  0.00    +0.000 C 
ATOM      6  C   UNL     1      -2.863  12.978  23.682  0.00  0.00    +0.000 C 
ATOM      7  C   UNL     1      -4.291  12.959  23.175  0.00  0.00    +0.000 C 
ATOM      8  N   UNL     1      -4.162  12.767  21.738  0.00  0.00    +0.000 N 
ATOM      9  C   UNL     1      -5.243  12.958  20.901  0.00  0.00    +0.000 C 
ATOM     10  O   UNL     1      -6.350  13.296  21.306  0.00  0.00    +0.000 OA
ATOM     11  C   UNL     1      -2.864  12.194  21.393  0.00  0.00    +0.000 C 
ATOM     12  C   UNL     1      -1.934  13.106  20.571  0.00  0.00    +0.000 C 
ENDROOT
BRANCH   9  13
ATOM     13  C   UNL     1      -5.008  12.788  19.438  0.00  0.00    +0.000 C 
ATOM     14  C   UNL     1      -6.198  12.629  18.526  0.00  0.00    +0.000 C 
ATOM     15  C   UNL     1      -5.276  11.457  18.744  0.00  0.00    +0.000 C 
BRANCH  15  16
ATOM     16  C   UNL     1      -4.272  11.000  17.707  0.00  0.00    +0.000 A 
ATOM     17  C   UNL     1      -3.150  10.211  17.993  0.00  0.00    +0.000 A 
ATOM     18  C   UNL     1      -2.279   9.813  16.977  0.00  0.00    +0.000 A 
ATOM     19  C   UNL     1      -2.547  10.225  15.684  0.00  0.00    +0.000 A 
ATOM     20  N   UNL     1      -3.600  10.997  15.352  0.00  0.00    +0.000 NA
ATOM     21  C   UNL     1      -4.421  11.366  16.366  0.00  0.00    +0.000 A 
ENDBRANCH  15  16
ENDBRANCH   9  13
BRANCH   1  22
ATOM     22  O   UNL     1       0.376  14.425  19.739  0.00  0.00    +0.000 OA
BRANCH  22  24
ATOM     23  C   UNL     1      -0.403  16.395  18.479  0.00  0.00    +0.000 C 
ATOM     24  C   UNL     1       0.448  15.875  19.649  0.00  0.00    +0.000 C 
ATOM     25  C   UNL     1       1.902  16.367  19.570  0.00  0.00    +0.000 C 
ATOM     26  C   UNL     1      -0.168  16.428  20.946  0.00  0.00    +0.000 C 
ENDBRANCH  22  24
ENDBRANCH   1  22
TORSDOF 4
ENDMDL
MODEL 7
REMARK VINA RESULT:      -6.3      3.741      6.737
REMARK  Name = 
REMARK  7 active torsions:
REMARK  status: ('A' for Active; 'I' for Inactive)
REMARK    1  A    between atoms: C_1  and  C_2
REMARK    2  A    between atoms: C_2  and  C_3
REMARK    3  A    between atoms: C_2  and  C_4
REMARK    4  A    between atoms: C_2  and  O_5
REMARK    5  A    between atoms: O_5  and  C_6
REMARK    6  A    between atoms: C_14  and  C_16
REMARK    7  A    between atoms: C_18  and  C_19
REMARK                            x       y       z     vdW  Elec       q    Type
REMARK                         _______ _______ _______ _____ _____    ______ ____
ROOT
ATOM      1  C   UNL     1       2.726  14.994  20.304  0.00  0.00    +0.000 C 
ATOM      2  O   UNL     1       2.579  16.086  20.833  0.00  0.00    +0.000 OA
ATOM      3  N   UNL     1       1.755  14.027  20.366  0.00  0.00    +0.000 N 
ATOM      4  C   UNL     1       0.645  14.201  21.275  0.00  0.00    +0.000 C 
ATOM      5  C   UNL     1      -0.309  13.075  20.956  0.00  0.00    +0.000 C 
ATOM      6  C   UNL     1      -1.307  13.403  19.845  0.00  0.00    +0.000 C 
ATOM      7  C   UNL     1      -1.534  12.057  19.187  0.00  0.00    +0.000 C 
ATOM      8  N   UNL     1      -0.252  11.379  19.297  0.00  0.00    +0.000 N 
ATOM      9  C   UNL     1       0.002  10.227  18.580  0.00  0.00    +0.000 C 
ATOM     10  O   UNL     1      -0.817   9.720  17.821  0.00  0.00    +0.000 OA
ATOM     11  C   UNL     1       0.568  11.963  20.356  0.00  0.00    +0.000 C 
ATOM     12  C   UNL     1       1.857  12.663  19.886  0.00  0.00    +0.000 C 
ENDROOT
BRANCH   9  13
ATOM     13  C   UNL     1       1.361   9.627  18.716  0.00  0.00    +0.000 C 
ATOM     14  C   UNL     1       2.415   9.982  17.698  0.00  0.00    +0.000 C 
ATOM     15  C   UNL     1       1.865   8.579  17.729  0.00  0.00    +0.000 C 
BRANCH  15  16
ATOM     16  C   UNL     1       2.638   7.408  18.297  0.00  0.00    +0.000 A 
ATOM     17  C   UNL     1       2.248   6.684  19.431  0.00  0.00    +0.000 A 
ATOM     18  C   UNL     1       3.006   5.602  19.882  0.00  0.00    +0.000 A 
ATOM     19  C   UNL     1       4.154   5.268  19.186  0.00  0.00    +0.000 A 
ATOM     20  N   UNL     1       4.585   5.937  18.100  0.00  0.00    +0.000 NA
ATOM     21  C   UNL     1       3.826   6.984  17.694  0.00  0.00    +0.000 A 
ENDBRANCH  15  16
ENDBRANCH   9  13
BRANCH   1  22
ATOM     22  O   UNL     1       3.860  14.589  19.663  0.00  0.00    +0.000 OA
BRANCH  22  24
ATOM     23  C   UNL     1       5.050  16.682  19.133  0.00  0.00    +0.000 C 
ATOM     24  C   UNL     1       4.370  15.417  18.582  0.00  0.00    +0.000 C 
ATOM     25  C   UNL     1       3.274  15.750  17.558  0.00  0.00    +0.000 C 
ATOM     26  C   UNL     1       5.452  14.590  17.865  0.00  0.00    +0.000 C 
ENDBRANCH  22  24
ENDBRANCH   1  22
TORSDOF 4
ENDMDL
MODEL 8
REMARK VINA RESULT:      -6.3      7.374     11.549
REMARK  Name = 
REMARK  7 active torsions:
REMARK  status: ('A' for Active; 'I' for Inactive)
REMARK    1  A    between atoms: C_1  and  C_2
REMARK    2  A    between atoms: C_2  and  C_3
REMARK    3  A    between atoms: C_2  and  C_4
REMARK    4  A    between atoms: C_2  and  O_5
REMARK    5  A    between atoms: O_5  and  C_6
REMARK    6  A    between atoms: C_14  and  C_16
REMARK    7  A    between atoms: C_18  and  C_19
REMARK                            x       y       z     vdW  Elec       q    Type
REMARK                         _______ _______ _______ _____ _____    ______ ____
ROOT
ATOM      1  C   UNL     1      -1.166  11.127  18.175  0.00  0.00    +0.000 C 
ATOM      2  O   UNL     1      -0.385  10.207  17.980  0.00  0.00    +0.000 OA
ATOM      3  N   UNL     1      -1.287  11.720  19.406  0.00  0.00    +0.000 N 
ATOM      4  C   UNL     1      -0.670  11.094  20.553  0.00  0.00    +0.000 C 
ATOM      5  C   UNL     1      -0.832  12.086  21.681  0.00  0.00    +0.000 C 
ATOM      6  C   UNL     1       0.297  13.115  21.769  0.00  0.00    +0.000 C 
ATOM      7  C   UNL     1      -0.408  14.342  22.313  0.00  0.00    +0.000 C 
ATOM      8  N   UNL     1      -1.743  14.276  21.739  0.00  0.00    +0.000 N 
ATOM      9  C   UNL     1      -2.592  15.363  21.799  0.00  0.00    +0.000 C 
ATOM     10  O   UNL     1      -2.278  16.426  22.324  0.00  0.00    +0.000 OA
ATOM     11  C   UNL     1      -2.070  12.919  21.309  0.00  0.00    +0.000 C 
ATOM     12  C   UNL     1      -2.252  12.730  19.791  0.00  0.00    +0.000 C 
ENDROOT
BRANCH   9  13
ATOM     13  C   UNL     1      -3.923  15.223  21.142  0.00  0.00    +0.000 C 
ATOM     14  C   UNL     1      -5.064  16.081  21.628  0.00  0.00    +0.000 C 
ATOM     15  C   UNL     1      -5.104  14.594  21.874  0.00  0.00    +0.000 C 
BRANCH  15  16
ATOM     16  C   UNL     1      -5.990  13.655  21.083  0.00  0.00    +0.000 A 
ATOM     17  C   UNL     1      -6.889  14.071  20.091  0.00  0.00    +0.000 A 
ATOM     18  C   UNL     1      -7.658  13.140  19.391  0.00  0.00    +0.000 A 
ATOM     19  C   UNL     1      -7.518  11.801  19.706  0.00  0.00    +0.000 A 
ATOM     20  N   UNL     1      -6.683  11.345  20.660  0.00  0.00    +0.000 NA
ATOM     21  C   UNL     1      -5.955  12.278  21.321  0.00  0.00    +0.000 A 
ENDBRANCH  15  16
ENDBRANCH   9  13
BRANCH   1  22
ATOM     22  O   UNL     1      -2.032  11.620  17.243  0.00  0.00    +0.000 OA
BRANCH  22  24
ATOM     23  C   UNL     1      -4.464  11.608  16.841  0.00  0.00    +0.000 C 
ATOM     24  C   UNL     1      -3.160  10.791  16.849  0.00  0.00    +0.000 C 
ATOM     25  C   UNL     1      -3.272   9.532  17.723  0.00  0.00    +0.000 C 
ATOM     26  C   UNL     1      -2.893  10.341  15.402  0.00  0.00    +0.000 C 
ENDBRANCH  22  24
ENDBRANCH   1  22
TORSDOF 4
ENDMDL
MODEL 9
REMARK VINA RESULT:      -6.2      3.546      6.455
REMARK  Name = 
REMARK  7 active torsions:
REMARK  status: ('A' for Active; 'I' for Inactive)
REMARK    1  A    between atoms: C_1  and  C_2
REMARK    2  A    between atoms: C_2  and  C_3
REMARK    3  A    between atoms: C_2  and  C_4
REMARK    4  A    between atoms: C_2  and  O_5
REMARK    5  A    between atoms: O_5  and  C_6
REMARK    6  A    between atoms: C_14  and  C_16
REMARK    7  A    between atoms: C_18  and  C_19
REMARK                            x       y       z     vdW  Elec       q    Type
REMARK                         _______ _______ _______ _____ _____    ______ ____
ROOT
ATOM      1  C   UNL     1       1.967  14.558  21.409  0.00  0.00    +0.000 C 
ATOM      2  O   UNL     1       1.675  15.519  22.104  0.00  0.00    +0.000 OA
ATOM      3  N   UNL     1       1.075  13.544  21.170  0.00  0.00    +0.000 N 
ATOM      4  C   UNL     1      -0.141  13.479  21.948  0.00  0.00    +0.000 C 
ATOM      5  C   UNL     1      -0.961  12.381  21.311  0.00  0.00    +0.000 C 
ATOM      6  C   UNL     1      -1.850  12.858  20.160  0.00  0.00    +0.000 C 
ATOM      7  C   UNL     1      -1.893  11.651  19.245  0.00  0.00    +0.000 C 
ATOM      8  N   UNL     1      -0.581  11.038  19.392  0.00  0.00    +0.000 N 
ATOM      9  C   UNL     1      -0.157  10.060  18.514  0.00  0.00    +0.000 C 
ATOM     10  O   UNL     1      -0.841   9.661  17.579  0.00  0.00    +0.000 OA
ATOM     11  C   UNL     1       0.064  11.455  20.634  0.00  0.00    +0.000 C 
ATOM     12  C   UNL     1       1.338  12.304  20.467  0.00  0.00    +0.000 C 
ENDROOT
BRANCH   9  13
ATOM     13  C   UNL     1       1.221   9.523  18.710  0.00  0.00    +0.000 C 
ATOM     14  C   UNL     1       2.318   9.991  17.788  0.00  0.00    +0.000 C 
ATOM     15  C   UNL     1       1.845   8.562  17.704  0.00  0.00    +0.000 C 
BRANCH  15  16
ATOM     16  C   UNL     1       2.642   7.400  18.257  0.00  0.00    +0.000 A 
ATOM     17  C   UNL     1       2.275   6.664  19.392  0.00  0.00    +0.000 A 
ATOM     18  C   UNL     1       3.054   5.591  19.829  0.00  0.00    +0.000 A 
ATOM     19  C   UNL     1       4.200   5.280  19.121  0.00  0.00    +0.000 A 
ATOM     20  N   UNL     1       4.611   5.962  18.034  0.00  0.00    +0.000 NA
ATOM     21  C   UNL     1       3.831   6.999  17.641  0.00  0.00    +0.000 A 
ENDBRANCH  15  16
ENDBRANCH   9  13
BRANCH   1  22
ATOM     22  O   UNL     1       3.195  14.347  20.853  0.00  0.00    +0.000 OA
BRANCH  22  24
ATOM     23  C   UNL     1       2.600  16.295  19.465  0.00  0.00    +0.000 C 
ATOM     24  C   UNL     1       3.545  15.096  19.657  0.00  0.00    +0.000 C 
ATOM     25  C   UNL     1       3.591  14.193  18.415  0.00  0.00    +0.000 C 
ATOM     26  C   UNL     1       4.959  15.659  19.885  0.00  0.00    +0.000 C 
ENDBRANCH  22  24
ENDBRANCH   1  22
TORSDOF 4
ENDMDL
