MODEL 1
REMARK VINA RESULT:      -7.6      0.000      0.000
REMARK  Name = 
REMARK  5 active torsions:
REMARK  status: ('A' for Active; 'I' for Inactive)
REMARK    1  A    between atoms: C_1  and  N_2
REMARK    2  A    between atoms: N_2  and  C_3
REMARK    3  A    between atoms: C_3  and  C_4
REMARK    4  A    between atoms: C_4  and  S_5
REMARK    5  A    between atoms: S_5  and  C_6
REMARK                            x       y       z     vdW  Elec       q    Type
REMARK                         _______ _______ _______ _____ _____    ______ ____
ROOT
ATOM      1  C   UNL     1       3.047   5.901  17.781  0.00  0.00    +0.000 C 
ATOM      2  C   UNL     1       2.153   4.633  17.711  0.00  0.00    +0.000 C 
ATOM      3  C   UNL     1       2.133   3.805  18.971  0.00  0.00    +0.000 A 
ATOM      4  C   UNL     1       0.970   3.759  19.762  0.00  0.00    +0.000 A 
ATOM      5  C   UNL     1       1.011   3.216  21.049  0.00  0.00    +0.000 A 
ATOM      6  C   UNL     1       2.206   2.702  21.547  0.00  0.00    +0.000 A 
ATOM      7  C   UNL     1       3.338   2.663  20.733  0.00  0.00    +0.000 A 
ATOM      8  C   UNL     1       3.304   3.193  19.438  0.00  0.00    +0.000 A 
ATOM      9  S   UNL     1       4.717   2.976  18.394  0.00  0.00    +0.000 S 
ATOM     10  C   UNL     1       5.322   4.625  18.086  0.00  0.00    +0.000 A 
ATOM     11  C   UNL     1       6.737   4.691  18.058  0.00  0.00    +0.000 A 
ATOM     12  C   UNL     1       7.413   5.863  17.727  0.00  0.00    +0.000 A 
ATOM     13  C   UNL     1       6.678   6.985  17.404  0.00  0.00    +0.000 A 
ATOM     14  F   UNL     1       7.309   8.113  17.055  0.00  0.00    +0.000 F 
ATOM     15  C   UNL     1       5.290   6.950  17.429  0.00  0.00    +0.000 A 
ATOM     16  C   UNL     1       4.569   5.776  17.787  0.00  0.00    +0.000 A 
ENDROOT
BRANCH   1  17
ATOM     17  S   UNL     1       2.459   7.183  19.028  0.00  0.00    +0.000 S 
BRANCH  17  18
ATOM     18  C   UNL     1       2.000   8.576  17.940  0.00  0.00    +0.000 C 
BRANCH  18  19
ATOM     19  C   UNL     1       1.216   9.684  18.653  0.00  0.00    +0.000 C 
BRANCH  19  21
ATOM     20  C   UNL     1      -1.072  10.479  18.664  0.00  0.00    +0.000 C 
ATOM     21  N   UNL     1       0.041  10.036  17.837  0.00  0.00    +0.000 NA
ATOM     22  H   UNL     1       0.298  10.787  17.190  0.00  0.00    +0.000 HD
ENDBRANCH  19  21
ENDBRANCH  18  19
ENDBRANCH  17  18
ENDBRANCH   1  17
TORSDOF 4
ENDMDL
MODEL 2
REMARK VINA RESULT:      -6.8      1.511      1.628
REMARK  Name = 
REMARK  5 active torsions:
REMARK  status: ('A' for Active; 'I' for Inactive)
REMARK    1  A    between atoms: C_1  and  N_2
REMARK    2  A    between atoms: N_2  and  C_3
REMARK    3  A    between atoms: C_3  and  C_4
REMARK    4  A    between atoms: C_4  and  S_5
REMARK    5  A    between atoms: S_5  and  C_6
REMARK                            x       y       z     vdW  Elec       q    Type
REMARK                         _______ _______ _______ _____ _____    ______ ____
ROOT
ATOM      1  C   UNL     1       3.414   5.360  17.360  0.00  0.00    +0.000 C 
ATOM      2  C   UNL     1       2.717   3.974  17.405  0.00  0.00    +0.000 C 
ATOM      3  C   UNL     1       2.381   3.482  18.791  0.00  0.00    +0.000 A 
ATOM      4  C   UNL     1       1.038   3.418  19.206  0.00  0.00    +0.000 A 
ATOM      5  C   UNL     1       0.724   3.215  20.553  0.00  0.00    +0.000 A 
ATOM      6  C   UNL     1       1.744   3.058  21.487  0.00  0.00    +0.000 A 
ATOM      7  C   UNL     1       3.074   3.029  21.066  0.00  0.00    +0.000 A 
ATOM      8  C   UNL     1       3.399   3.219  19.717  0.00  0.00    +0.000 A 
ATOM      9  S   UNL     1       5.083   3.016  19.213  0.00  0.00    +0.000 S 
ATOM     10  C   UNL     1       5.590   4.624  18.633  0.00  0.00    +0.000 A 
ATOM     11  C   UNL     1       6.927   4.935  18.983  0.00  0.00    +0.000 A 
ATOM     12  C   UNL     1       7.555   6.095  18.535  0.00  0.00    +0.000 A 
ATOM     13  C   UNL     1       6.853   6.957  17.718  0.00  0.00    +0.000 A 
ATOM     14  F   UNL     1       7.448   8.063  17.254  0.00  0.00    +0.000 F 
ATOM     15  C   UNL     1       5.539   6.681  17.365  0.00  0.00    +0.000 A 
ATOM     16  C   UNL     1       4.861   5.517  17.825  0.00  0.00    +0.000 A 
ENDROOT
BRANCH   1  17
ATOM     17  S   UNL     1       2.339   6.777  17.979  0.00  0.00    +0.000 S 
BRANCH  17  18
ATOM     18  C   UNL     1       2.761   6.814  19.756  0.00  0.00    +0.000 C 
BRANCH  18  19
ATOM     19  C   UNL     1       1.539   6.864  20.680  0.00  0.00    +0.000 C 
BRANCH  19  21
ATOM     20  C   UNL     1       0.940   9.210  20.697  0.00  0.00    +0.000 C 
ATOM     21  N   UNL     1       1.567   8.125  21.438  0.00  0.00    +0.000 NA
ATOM     22  H   UNL     1       1.070   7.993  22.324  0.00  0.00    +0.000 HD
ENDBRANCH  19  21
ENDBRANCH  18  19
ENDBRANCH  17  18
ENDBRANCH   1  17
TORSDOF 4
ENDMDL
MODEL 3
REMARK VINA RESULT:      -6.3      1.297      1.378
REMARK  Name = 
REMARK  5 active torsions:
REMARK  status: ('A' for Active; 'I' for Inactive)
REMARK    1  A    between atoms: C_1  and  N_2
REMARK    2  A    between atoms: N_2  and  C_3
REMARK    3  A    between atoms: C_3  and  C_4
REMARK    4  A    between atoms: C_4  and  S_5
REMARK    5  A    between atoms: S_5  and  C_6
REMARK                            x       y       z     vdW  Elec       q    Type
REMARK                         _______ _______ _______ _____ _____    ______ ____
ROOT
ATOM      1  C   UNL     1       2.756   5.625  17.833  0.00  0.00    +0.000 C 
ATOM      2  C   UNL     1       1.535   4.705  18.107  0.00  0.00    +0.000 C 
ATOM      3  C   UNL     1       1.717   3.740  19.251  0.00  0.00    +0.000 A 
ATOM      4  C   UNL     1       0.991   3.922  20.444  0.00  0.00    +0.000 A 
ATOM      5  C   UNL     1       1.330   3.203  21.593  0.00  0.00    +0.000 A 
ATOM      6  C   UNL     1       2.380   2.289  21.556  0.00  0.00    +0.000 A 
ATOM      7  C   UNL     1       3.041   2.039  20.352  0.00  0.00    +0.000 A 
ATOM      8  C   UNL     1       2.701   2.745  19.192  0.00  0.00    +0.000 A 
ATOM      9  S   UNL     1       3.459   2.279  17.662  0.00  0.00    +0.000 S 
ATOM     10  C   UNL     1       4.415   3.700  17.167  0.00  0.00    +0.000 A 
ATOM     11  C   UNL     1       5.651   3.347  16.571  0.00  0.00    +0.000 A 
ATOM     12  C   UNL     1       6.501   4.302  16.018  0.00  0.00    +0.000 A 
ATOM     13  C   UNL     1       6.117   5.627  16.041  0.00  0.00    +0.000 A 
ATOM     14  F   UNL     1       6.907   6.556  15.489  0.00  0.00    +0.000 F 
ATOM     15  C   UNL     1       4.914   6.002  16.625  0.00  0.00    +0.000 A 
ATOM     16  C   UNL     1       4.035   5.055  17.221  0.00  0.00    +0.000 A 
ENDROOT
BRANCH   1  17
ATOM     17  S   UNL     1       3.143   6.819  19.237  0.00  0.00    +0.000 S 
BRANCH  17  18
ATOM     18  C   UNL     1       1.885   8.118  18.976  0.00  0.00    +0.000 C 
BRANCH  18  19
ATOM     19  C   UNL     1       2.065   8.898  17.668  0.00  0.00    +0.000 C 
BRANCH  19  21
ATOM     20  C   UNL     1       0.213  10.217  18.502  0.00  0.00    +0.000 C 
ATOM     21  N   UNL     1       1.510  10.250  17.840  0.00  0.00    +0.000 NA
ATOM     22  H   UNL     1       2.159  10.809  18.403  0.00  0.00    +0.000 HD
ENDBRANCH  19  21
ENDBRANCH  18  19
ENDBRANCH  17  18
ENDBRANCH   1  17
TORSDOF 4
ENDMDL
MODEL 4
REMARK VINA RESULT:      -6.2      3.085      4.960
REMARK  Name = 
REMARK  5 active torsions:
REMARK  status: ('A' for Active; 'I' for Inactive)
REMARK    1  A    between atoms: C_1  and  N_2
REMARK    2  A    between atoms: N_2  and  C_3
REMARK    3  A    between atoms: C_3  and  C_4
REMARK    4  A    between atoms: C_4  and  S_5
REMARK    5  A    between atoms: S_5  and  C_6
REMARK                            x       y       z     vdW  Elec       q    Type
REMARK                         _______ _______ _______ _____ _____    ______ ____
ROOT
ATOM      1  C   UNL     1       4.575   3.732  17.581  0.00  0.00    +0.000 C 
ATOM      2  C   UNL     1       4.663   4.506  18.923  0.00  0.00    +0.000 C 
ATOM      3  C   UNL     1       3.892   5.802  18.956  0.00  0.00    +0.000 A 
ATOM      4  C   UNL     1       2.734   5.910  19.748  0.00  0.00    +0.000 A 
ATOM      5  C   UNL     1       1.871   6.998  19.594  0.00  0.00    +0.000 A 
ATOM      6  C   UNL     1       2.167   7.992  18.665  0.00  0.00    +0.000 A 
ATOM      7  C   UNL     1       3.360   7.936  17.944  0.00  0.00    +0.000 A 
ATOM      8  C   UNL     1       4.237   6.856  18.099  0.00  0.00    +0.000 A 
ATOM      9  S   UNL     1       5.806   6.911  17.282  0.00  0.00    +0.000 S 
ATOM     10  C   UNL     1       5.772   5.558  16.121  0.00  0.00    +0.000 A 
ATOM     11  C   UNL     1       6.404   5.874  14.894  0.00  0.00    +0.000 A 
ATOM     12  C   UNL     1       6.583   4.924  13.891  0.00  0.00    +0.000 A 
ATOM     13  C   UNL     1       6.141   3.636  14.110  0.00  0.00    +0.000 A 
ATOM     14  F   UNL     1       6.329   2.701  13.170  0.00  0.00    +0.000 F 
ATOM     15  C   UNL     1       5.512   3.300  15.302  0.00  0.00    +0.000 A 
ATOM     16  C   UNL     1       5.292   4.252  16.336  0.00  0.00    +0.000 A 
ENDROOT
BRANCH   1  17
ATOM     17  S   UNL     1       2.844   3.115  17.167  0.00  0.00    +0.000 S 
BRANCH  17  18
ATOM     18  C   UNL     1       2.319   2.388  18.758  0.00  0.00    +0.000 C 
BRANCH  18  19
ATOM     19  C   UNL     1       0.812   2.493  19.017  0.00  0.00    +0.000 C 
BRANCH  19  21
ATOM     20  C   UNL     1       1.615   2.687  21.293  0.00  0.00    +0.000 C 
ATOM     21  N   UNL     1       0.597   3.103  20.339  0.00  0.00    +0.000 NA
ATOM     22  H   UNL     1       0.624   4.123  20.244  0.00  0.00    +0.000 HD
ENDBRANCH  19  21
ENDBRANCH  18  19
ENDBRANCH  17  18
ENDBRANCH   1  17
TORSDOF 4
ENDMDL
MODEL 5
REMARK VINA RESULT:      -6.0      2.945      5.133
REMARK  Name = 
REMARK  5 active torsions:
REMARK  status: ('A' for Active; 'I' for Inactive)
REMARK    1  A    between atoms: C_1  and  N_2
REMARK    2  A    between atoms: N_2  and  C_3
REMARK    3  A    between atoms: C_3  and  C_4
REMARK    4  A    between atoms: C_4  and  S_5
REMARK    5  A    between atoms: S_5  and  C_6
REMARK                            x       y       z     vdW  Elec       q    Type
REMARK                         _______ _______ _______ _____ _____    ______ ____
ROOT
ATOM      1  C   UNL     1       4.338   5.993  18.320  0.00  0.00    +0.000 C 
ATOM      2  C   UNL     1       4.722   4.870  19.320  0.00  0.00    +0.000 C 
ATOM      3  C   UNL     1       3.698   3.771  19.457  0.00  0.00    +0.000 A 
ATOM      4  C   UNL     1       3.975   2.486  18.952  0.00  0.00    +0.000 A 
ATOM      5  C   UNL     1       2.956   1.538  18.838  0.00  0.00    +0.000 A 
ATOM      6  C   UNL     1       1.662   1.856  19.241  0.00  0.00    +0.000 A 
ATOM      7  C   UNL     1       1.403   3.096  19.828  0.00  0.00    +0.000 A 
ATOM      8  C   UNL     1       2.420   4.050  19.958  0.00  0.00    +0.000 A 
ATOM      9  S   UNL     1       2.077   5.540  20.849  0.00  0.00    +0.000 S 
ATOM     10  C   UNL     1       2.237   6.846  19.646  0.00  0.00    +0.000 A 
ATOM     11  C   UNL     1       1.275   7.871  19.820  0.00  0.00    +0.000 A 
ATOM     12  C   UNL     1       1.292   9.035  19.055  0.00  0.00    +0.000 A 
ATOM     13  C   UNL     1       2.285   9.194  18.110  0.00  0.00    +0.000 A 
ATOM     14  F   UNL     1       2.335  10.318  17.385  0.00  0.00    +0.000 F 
ATOM     15  C   UNL     1       3.237   8.203  17.914  0.00  0.00    +0.000 A 
ATOM     16  C   UNL     1       3.233   6.991  18.662  0.00  0.00    +0.000 A 
ENDROOT
BRANCH   1  17
ATOM     17  S   UNL     1       4.209   5.415  16.533  0.00  0.00    +0.000 S 
BRANCH  17  18
ATOM     18  C   UNL     1       5.756   4.462  16.339  0.00  0.00    +0.000 C 
BRANCH  18  19
ATOM     19  C   UNL     1       7.015   5.335  16.284  0.00  0.00    +0.000 C 
BRANCH  19  21
ATOM     20  C   UNL     1       6.753   4.462  14.040  0.00  0.00    +0.000 C 
ATOM     21  N   UNL     1       7.558   5.301  14.915  0.00  0.00    +0.000 NA
ATOM     22  H   UNL     1       7.577   6.255  14.541  0.00  0.00    +0.000 HD
ENDBRANCH  19  21
ENDBRANCH  18  19
ENDBRANCH  17  18
ENDBRANCH   1  17
TORSDOF 4
ENDMDL
MODEL 6
REMARK VINA RESULT:      -6.0      1.991      2.084
REMARK  Name = 
REMARK  5 active torsions:
REMARK  status: ('A' for Active; 'I' for Inactive)
REMARK    1  A    between atoms: C_1  and  N_2
REMARK    2  A    between atoms: N_2  and  C_3
REMARK    3  A    between atoms: C_3  and  C_4
REMARK    4  A    between atoms: C_4  and  S_5
REMARK    5  A    between atoms: S_5  and  C_6
REMARK                            x       y       z     vdW  Elec       q    Type
REMARK                         _______ _______ _______ _____ _____    ______ ____
ROOT
ATOM      1  C   UNL     1       2.849   5.705  17.846  0.00  0.00    +0.000 C 
ATOM      2  C   UNL     1       1.569   4.880  18.147  0.00  0.00    +0.000 C 
ATOM      3  C   UNL     1       1.718   3.867  19.254  0.00  0.00    +0.000 A 
ATOM      4  C   UNL     1       1.062   4.069  20.483  0.00  0.00    +0.000 A 
ATOM      5  C   UNL     1       1.389   3.288  21.595  0.00  0.00    +0.000 A 
ATOM      6  C   UNL     1       2.357   2.293  21.484  0.00  0.00    +0.000 A 
ATOM      7  C   UNL     1       2.943   2.029  20.246  0.00  0.00    +0.000 A 
ATOM      8  C   UNL     1       2.614   2.797  19.122  0.00  0.00    +0.000 A 
ATOM      9  S   UNL     1       3.264   2.321  17.547  0.00  0.00    +0.000 S 
ATOM     10  C   UNL     1       4.313   3.674  17.051  0.00  0.00    +0.000 A 
ATOM     11  C   UNL     1       5.489   3.241  16.390  0.00  0.00    +0.000 A 
ATOM     12  C   UNL     1       6.390   4.140  15.826  0.00  0.00    +0.000 A 
ATOM     13  C   UNL     1       6.119   5.491  15.905  0.00  0.00    +0.000 A 
ATOM     14  F   UNL     1       6.959   6.370  15.344  0.00  0.00    +0.000 F 
ATOM     15  C   UNL     1       4.978   5.944  16.553  0.00  0.00    +0.000 A 
ATOM     16  C   UNL     1       4.049   5.053  17.161  0.00  0.00    +0.000 A 
ENDROOT
BRANCH   1  17
ATOM     17  S   UNL     1       3.393   6.819  19.264  0.00  0.00    +0.000 S 
BRANCH  17  18
ATOM     18  C   UNL     1       1.906   7.849  19.517  0.00  0.00    +0.000 C 
BRANCH  18  19
ATOM     19  C   UNL     1       1.216   7.618  20.866  0.00  0.00    +0.000 C 
BRANCH  19  21
ATOM     20  C   UNL     1       0.708   9.370  22.458  0.00  0.00    +0.000 C 
ATOM     21  N   UNL     1       1.760   8.569  21.848  0.00  0.00    +0.000 NA
ATOM     22  H   UNL     1       2.252   8.048  22.581  0.00  0.00    +0.000 HD
ENDBRANCH  19  21
ENDBRANCH  18  19
ENDBRANCH  17  18
ENDBRANCH   1  17
TORSDOF 4
ENDMDL
MODEL 7
REMARK VINA RESULT:      -5.9      2.661      4.851
REMARK  Name = 
REMARK  5 active torsions:
REMARK  status: ('A' for Active; 'I' for Inactive)
REMARK    1  A    between atoms: C_1  and  N_2
REMARK    2  A    between atoms: N_2  and  C_3
REMARK    3  A    between atoms: C_3  and  C_4
REMARK    4  A    between atoms: C_4  and  S_5
REMARK    5  A    between atoms: S_5  and  C_6
REMARK                            x       y       z     vdW  Elec       q    Type
REMARK                         _______ _______ _______ _____ _____    ______ ____
ROOT
ATOM      1  C   UNL     1       4.456   5.969  18.358  0.00  0.00    +0.000 C 
ATOM      2  C   UNL     1       4.772   4.831  19.365  0.00  0.00    +0.000 C 
ATOM      3  C   UNL     1       3.757   3.717  19.397  0.00  0.00    +0.000 A 
ATOM      4  C   UNL     1       4.093   2.446  18.893  0.00  0.00    +0.000 A 
ATOM      5  C   UNL     1       3.101   1.486  18.677  0.00  0.00    +0.000 A 
ATOM      6  C   UNL     1       1.774   1.780  18.979  0.00  0.00    +0.000 A 
ATOM      7  C   UNL     1       1.449   3.005  19.564  0.00  0.00    +0.000 A 
ATOM      8  C   UNL     1       2.437   3.969  19.796  0.00  0.00    +0.000 A 
ATOM      9  S   UNL     1       2.000   5.437  20.683  0.00  0.00    +0.000 S 
ATOM     10  C   UNL     1       2.240   6.768  19.521  0.00  0.00    +0.000 A 
ATOM     11  C   UNL     1       1.253   7.777  19.634  0.00  0.00    +0.000 A 
ATOM     12  C   UNL     1       1.316   8.956  18.894  0.00  0.00    +0.000 A 
ATOM     13  C   UNL     1       2.380   9.147  18.038  0.00  0.00    +0.000 A 
ATOM     14  F   UNL     1       2.474  10.285  17.340  0.00  0.00    +0.000 F 
ATOM     15  C   UNL     1       3.360   8.171  17.903  0.00  0.00    +0.000 A 
ATOM     16  C   UNL     1       3.312   6.946  18.625  0.00  0.00    +0.000 A 
ENDROOT
BRANCH   1  17
ATOM     17  S   UNL     1       4.483   5.424  16.556  0.00  0.00    +0.000 S 
BRANCH  17  18
ATOM     18  C   UNL     1       6.216   4.882  16.358  0.00  0.00    +0.000 C 
BRANCH  18  19
ATOM     19  C   UNL     1       7.206   5.643  17.247  0.00  0.00    +0.000 C 
BRANCH  19  21
ATOM     20  C   UNL     1       7.725   7.989  17.554  0.00  0.00    +0.000 C 
ATOM     21  N   UNL     1       7.560   6.911  16.589  0.00  0.00    +0.000 NA
ATOM     22  H   UNL     1       8.437   6.786  16.073  0.00  0.00    +0.000 HD
ENDBRANCH  19  21
ENDBRANCH  18  19
ENDBRANCH  17  18
ENDBRANCH   1  17
TORSDOF 4
ENDMDL
MODEL 8
REMARK VINA RESULT:      -5.9      2.945      5.196
REMARK  Name = 
REMARK  5 active torsions:
REMARK  status: ('A' for Active; 'I' for Inactive)
REMARK    1  A    between atoms: C_1  and  N_2
REMARK    2  A    between atoms: N_2  and  C_3
REMARK    3  A    between atoms: C_3  and  C_4
REMARK    4  A    between atoms: C_4  and  S_5
REMARK    5  A    between atoms: S_5  and  C_6
REMARK                            x       y       z     vdW  Elec       q    Type
REMARK                         _______ _______ _______ _____ _____    ______ ____
ROOT
ATOM      1  C   UNL     1       4.214   6.152  18.380  0.00  0.00    +0.000 C 
ATOM      2  C   UNL     1       4.560   5.022  19.388  0.00  0.00    +0.000 C 
ATOM      3  C   UNL     1       3.525   3.930  19.490  0.00  0.00    +0.000 A 
ATOM      4  C   UNL     1       3.808   2.645  18.989  0.00  0.00    +0.000 A 
ATOM      5  C   UNL     1       2.787   1.704  18.840  0.00  0.00    +0.000 A 
ATOM      6  C   UNL     1       1.484   2.030  19.206  0.00  0.00    +0.000 A 
ATOM      7  C   UNL     1       1.215   3.270  19.789  0.00  0.00    +0.000 A 
ATOM      8  C   UNL     1       2.234   4.216  19.954  0.00  0.00    +0.000 A 
ATOM      9  S   UNL     1       1.875   5.706  20.839  0.00  0.00    +0.000 S 
ATOM     10  C   UNL     1       2.080   7.014  19.646  0.00  0.00    +0.000 A 
ATOM     11  C   UNL     1       1.121   8.046  19.795  0.00  0.00    +0.000 A 
ATOM     12  C   UNL     1       1.169   9.212  19.035  0.00  0.00    +0.000 A 
ATOM     13  C   UNL     1       2.190   9.368  18.121  0.00  0.00    +0.000 A 
ATOM     14  F   UNL     1       2.270  10.494  17.401  0.00  0.00    +0.000 F 
ATOM     15  C   UNL     1       3.141   8.370  17.949  0.00  0.00    +0.000 A 
ATOM     16  C   UNL     1       3.106   7.156  18.692  0.00  0.00    +0.000 A 
ENDROOT
BRANCH   1  17
ATOM     17  S   UNL     1       4.135   5.580  16.588  0.00  0.00    +0.000 S 
BRANCH  17  18
ATOM     18  C   UNL     1       5.900   5.589  16.117  0.00  0.00    +0.000 C 
BRANCH  18  19
ATOM     19  C   UNL     1       6.523   4.191  16.032  0.00  0.00    +0.000 C 
BRANCH  19  21
ATOM     20  C   UNL     1       7.774   4.703  18.042  0.00  0.00    +0.000 C 
ATOM     21  N   UNL     1       7.850   4.222  16.670  0.00  0.00    +0.000 NA
ATOM     22  H   UNL     1       8.243   3.276  16.668  0.00  0.00    +0.000 HD
ENDBRANCH  19  21
ENDBRANCH  18  19
ENDBRANCH  17  18
ENDBRANCH   1  17
TORSDOF 4
ENDMDL
MODEL 9
REMARK VINA RESULT:      -5.8      3.500      6.094
REMARK  Name = 
REMARK  5 active torsions:
REMARK  status: ('A' for Active; 'I' for Inactive)
REMARK    1  A    between atoms: C_1  and  N_2
REMARK    2  A    between atoms: N_2  and  C_3
REMARK    3  A    between atoms: C_3  and  C_4
REMARK    4  A    between atoms: C_4  and  S_5
REMARK    5  A    between atoms: S_5  and  C_6
REMARK                            x       y       z     vdW  Elec       q    Type
REMARK                         _______ _______ _______ _____ _____    ______ ____
ROOT
ATOM      1  C   UNL     1       5.748   5.651  18.424  0.00  0.00    +0.000 C 
ATOM      2  C   UNL     1       6.756   4.645  17.805  0.00  0.00    +0.000 C 
ATOM      3  C   UNL     1       6.531   4.344  16.344  0.00  0.00    +0.000 A 
ATOM      4  C   UNL     1       7.445   4.814  15.383  0.00  0.00    +0.000 A 
ATOM      5  C   UNL     1       7.125   4.771  14.023  0.00  0.00    +0.000 A 
ATOM      6  C   UNL     1       5.902   4.246  13.614  0.00  0.00    +0.000 A 
ATOM      7  C   UNL     1       5.032   3.696  14.557  0.00  0.00    +0.000 A 
ATOM      8  C   UNL     1       5.349   3.722  15.921  0.00  0.00    +0.000 A 
ATOM      9  S   UNL     1       4.289   2.873  17.055  0.00  0.00    +0.000 S 
ATOM     10  C   UNL     1       3.617   4.148  18.104  0.00  0.00    +0.000 A 
ATOM     11  C   UNL     1       2.260   3.921  18.440  0.00  0.00    +0.000 A 
ATOM     12  C   UNL     1       1.576   4.739  19.337  0.00  0.00    +0.000 A 
ATOM     13  C   UNL     1       2.249   5.792  19.921  0.00  0.00    +0.000 A 
ATOM     14  F   UNL     1       1.617   6.573  20.807  0.00  0.00    +0.000 F 
ATOM     15  C   UNL     1       3.578   6.042  19.605  0.00  0.00    +0.000 A 
ATOM     16  C   UNL     1       4.298   5.241  18.675  0.00  0.00    +0.000 A 
ENDROOT
BRANCH   1  17
ATOM     17  S   UNL     1       5.853   7.383  17.694  0.00  0.00    +0.000 S 
BRANCH  17  18
ATOM     18  C   UNL     1       7.658   7.654  17.637  0.00  0.00    +0.000 C 
BRANCH  18  19
ATOM     19  C   UNL     1       8.074   9.103  17.910  0.00  0.00    +0.000 C 
BRANCH  19  21
ATOM     20  C   UNL     1       9.346  10.489  19.436  0.00  0.00    +0.000 C 
ATOM     21  N   UNL     1       8.970   9.129  19.078  0.00  0.00    +0.000 NA
ATOM     22  H   UNL     1       8.493   8.693  19.874  0.00  0.00    +0.000 HD
ENDBRANCH  19  21
ENDBRANCH  18  19
ENDBRANCH  17  18
ENDBRANCH   1  17
TORSDOF 4
ENDMDL
