MODEL 1
REMARK VINA RESULT:      -8.6      0.000      0.000
REMARK  Name = 
REMARK  9 active torsions:
REMARK  status: ('A' for Active; 'I' for Inactive)
REMARK    1  A    between atoms: C_1  and  C_2
REMARK    2  A    between atoms: C_2  and  C_3
REMARK    3  A    between atoms: C_3  and  C_4
REMARK    4  A    between atoms: C_3  and  N_10
REMARK    5  A    between atoms: C_19  and  C_20
REMARK    6  A    between atoms: C_21  and  C_22
REMARK    7  A    between atoms: C_25  and  C_26
REMARK    8  A    between atoms: C_27  and  O_28
REMARK    9  A    between atoms: O_28  and  C_29
REMARK                            x       y       z     vdW  Elec       q    Type
REMARK                         _______ _______ _______ _____ _____    ______ ____
ROOT
ATOM      1  N   UNL     1      -0.748  10.775  20.234  0.00  0.00    +0.000 N 
ATOM      2  C   UNL     1      -1.393  10.836  18.904  0.00  0.00    +0.000 A 
ATOM      3  O   UNL     1      -2.574  10.864  18.654  0.00  0.00    +0.000 OA
ATOM      4  N   UNL     1      -0.358  11.139  18.024  0.00  0.00    +0.000 N 
ATOM      5  C   UNL     1       0.884  11.098  18.689  0.00  0.00    +0.000 A 
ATOM      6  C   UNL     1       2.017  10.920  17.977  0.00  0.00    +0.000 A 
ATOM      7  N   UNL     1       2.349   9.678  17.657  0.00  0.00    +0.000 NA
ATOM      8  C   UNL     1       2.021   8.718  18.503  0.00  0.00    +0.000 A 
ATOM      9  C   UNL     1       2.564   7.570  17.977  0.00  0.00    +0.000 A 
ATOM     10  C   UNL     1       2.848   6.411  18.678  0.00  0.00    +0.000 A 
ATOM     11  C   UNL     1       2.354   6.365  19.992  0.00  0.00    +0.000 A 
ATOM     12  C   UNL     1       1.587   7.516  20.514  0.00  0.00    +0.000 A 
ATOM     13  C   UNL     1       1.350   8.871  19.762  0.00  0.00    +0.000 A 
ATOM     14  C   UNL     1       0.681  10.346  19.839  0.00  0.00    +0.000 A 
ATOM     15  H   UNL     1      -0.493  11.175  17.022  0.00  0.00    +0.000 HD
ENDROOT
BRANCH  10  16
ATOM     16  C   UNL     1       3.736   5.420  18.021  0.00  0.00    +0.000 A 
ATOM     17  C   UNL     1       5.130   5.331  17.701  0.00  0.00    +0.000 A 
ATOM     18  C   UNL     1       6.286   6.242  17.939  0.00  0.00    +0.000 C 
ATOM     19  N   UNL     1       5.436   4.185  17.085  0.00  0.00    +0.000 NA
ATOM     20  O   UNL     1       4.274   3.473  17.000  0.00  0.00    +0.000 OA
ATOM     21  C   UNL     1       3.254   4.195  17.531  0.00  0.00    +0.000 A 
ATOM     22  C   UNL     1       1.953   3.504  17.452  0.00  0.00    +0.000 C 
ENDBRANCH  10  16
BRANCH  11  23
ATOM     23  O   UNL     1       2.691   5.162  20.525  0.00  0.00    +0.000 OA
ATOM     24  C   UNL     1       1.965   4.133  21.146  0.00  0.00    +0.000 C 
ENDBRANCH  11  23
BRANCH   1  25
ATOM     25  C   UNL     1      -1.101  12.217  20.783  0.00  0.00    +0.000 C 
BRANCH  25  26
ATOM     26  C   UNL     1      -2.331  12.340  21.690  0.00  0.00    +0.000 A 
ATOM     27  C   UNL     1      -2.280  12.027  23.054  0.00  0.00    +0.000 A 
ATOM     28  C   UNL     1      -3.380  12.283  23.884  0.00  0.00    +0.000 A 
ATOM     29  C   UNL     1      -4.537  12.868  23.370  0.00  0.00    +0.000 A 
ATOM     30  C   UNL     1      -4.582  13.248  22.034  0.00  0.00    +0.000 A 
ATOM     31  C   UNL     1      -3.485  12.998  21.205  0.00  0.00    +0.000 A 
ENDBRANCH  25  26
BRANCH  25  33
ATOM     32  C   UNL     1       0.425  14.415  20.374  0.00  0.00    +0.000 C 
ATOM     33  C   UNL     1      -0.003  13.264  21.307  0.00  0.00    +0.000 C 
ENDBRANCH  25  33
ENDBRANCH   1  25
TORSDOF 5
ENDMDL
MODEL 2
REMARK VINA RESULT:      -8.6      0.415      1.437
REMARK  Name = 
REMARK  9 active torsions:
REMARK  status: ('A' for Active; 'I' for Inactive)
REMARK    1  A    between atoms: C_1  and  C_2
REMARK    2  A    between atoms: C_2  and  C_3
REMARK    3  A    between atoms: C_3  and  C_4
REMARK    4  A    between atoms: C_3  and  N_10
REMARK    5  A    between atoms: C_19  and  C_20
REMARK    6  A    between atoms: C_21  and  C_22
REMARK    7  A    between atoms: C_25  and  C_26
REMARK    8  A    between atoms: C_27  and  O_28
REMARK    9  A    between atoms: O_28  and  C_29
REMARK                            x       y       z     vdW  Elec       q    Type
REMARK                         _______ _______ _______ _____ _____    ______ ____
ROOT
ATOM      1  N   UNL     1      -0.663  10.742  20.282  0.00  0.00    +0.000 N 
ATOM      2  C   UNL     1      -1.351  10.823  18.975  0.00  0.00    +0.000 A 
ATOM      3  O   UNL     1      -2.539  10.875  18.765  0.00  0.00    +0.000 OA
ATOM      4  N   UNL     1      -0.341  11.113  18.062  0.00  0.00    +0.000 N 
ATOM      5  C   UNL     1       0.922  11.044  18.685  0.00  0.00    +0.000 A 
ATOM      6  C   UNL     1       2.027  10.849  17.935  0.00  0.00    +0.000 A 
ATOM      7  N   UNL     1       2.325   9.603  17.596  0.00  0.00    +0.000 NA
ATOM      8  C   UNL     1       2.007   8.645  18.448  0.00  0.00    +0.000 A 
ATOM      9  C   UNL     1       2.511   7.490  17.897  0.00  0.00    +0.000 A 
ATOM     10  C   UNL     1       2.795   6.322  18.582  0.00  0.00    +0.000 A 
ATOM     11  C   UNL     1       2.345   6.276  19.911  0.00  0.00    +0.000 A 
ATOM     12  C   UNL     1       1.618   7.439  20.466  0.00  0.00    +0.000 A 
ATOM     13  C   UNL     1       1.381   8.802  19.730  0.00  0.00    +0.000 A 
ATOM     14  C   UNL     1       0.743  10.289  19.837  0.00  0.00    +0.000 A 
ATOM     15  H   UNL     1      -0.508  11.157  17.065  0.00  0.00    +0.000 HD
ENDROOT
BRANCH  10  16
ATOM     16  C   UNL     1       3.642   5.319  17.890  0.00  0.00    +0.000 A 
ATOM     17  C   UNL     1       3.487   3.967  17.439  0.00  0.00    +0.000 A 
ATOM     18  C   UNL     1       2.345   3.009  17.478  0.00  0.00    +0.000 C 
ATOM     19  N   UNL     1       4.593   3.499  16.850  0.00  0.00    +0.000 NA
ATOM     20  O   UNL     1       5.498   4.522  16.868  0.00  0.00    +0.000 OA
ATOM     21  C   UNL     1       4.961   5.599  17.495  0.00  0.00    +0.000 A 
ATOM     22  C   UNL     1       5.890   6.742  17.581  0.00  0.00    +0.000 C 
ENDBRANCH  10  16
BRANCH  11  23
ATOM     23  O   UNL     1       2.676   5.064  20.426  0.00  0.00    +0.000 OA
ATOM     24  C   UNL     1       1.967   4.075  21.125  0.00  0.00    +0.000 C 
ENDBRANCH  11  23
BRANCH   1  25
ATOM     25  C   UNL     1      -0.971  12.188  20.850  0.00  0.00    +0.000 C 
BRANCH  25  26
ATOM     26  C   UNL     1      -2.227  12.348  21.714  0.00  0.00    +0.000 A 
ATOM     27  C   UNL     1      -2.256  11.963  23.060  0.00  0.00    +0.000 A 
ATOM     28  C   UNL     1      -3.370  12.252  23.859  0.00  0.00    +0.000 A 
ATOM     29  C   UNL     1      -4.463  12.941  23.332  0.00  0.00    +0.000 A 
ATOM     30  C   UNL     1      -4.426  13.391  22.018  0.00  0.00    +0.000 A 
ATOM     31  C   UNL     1      -3.313  13.108  21.221  0.00  0.00    +0.000 A 
ENDBRANCH  25  26
BRANCH  25  33
ATOM     32  C   UNL     1       0.660  14.327  20.553  0.00  0.00    +0.000 C 
ATOM     33  C   UNL     1       0.153  13.171  21.439  0.00  0.00    +0.000 C 
ENDBRANCH  25  33
ENDBRANCH   1  25
TORSDOF 5
ENDMDL
MODEL 3
REMARK VINA RESULT:      -8.1      2.378      3.621
REMARK  Name = 
REMARK  9 active torsions:
REMARK  status: ('A' for Active; 'I' for Inactive)
REMARK    1  A    between atoms: C_1  and  C_2
REMARK    2  A    between atoms: C_2  and  C_3
REMARK    3  A    between atoms: C_3  and  C_4
REMARK    4  A    between atoms: C_3  and  N_10
REMARK    5  A    between atoms: C_19  and  C_20
REMARK    6  A    between atoms: C_21  and  C_22
REMARK    7  A    between atoms: C_25  and  C_26
REMARK    8  A    between atoms: C_27  and  O_28
REMARK    9  A    between atoms: O_28  and  C_29
REMARK                            x       y       z     vdW  Elec       q    Type
REMARK                         _______ _______ _______ _____ _____    ______ ____
ROOT
ATOM      1  N   UNL     1       0.753  11.551  19.322  0.00  0.00    +0.000 N 
ATOM      2  C   UNL     1       1.303  11.850  20.663  0.00  0.00    +0.000 A 
ATOM      3  O   UNL     1       1.880  12.848  21.022  0.00  0.00    +0.000 OA
ATOM      4  N   UNL     1       0.769  10.866  21.490  0.00  0.00    +0.000 N 
ATOM      5  C   UNL     1       0.080   9.900  20.728  0.00  0.00    +0.000 A 
ATOM      6  C   UNL     1      -0.125   8.668  21.239  0.00  0.00    +0.000 A 
ATOM      7  N   UNL     1       0.861   7.789  21.132  0.00  0.00    +0.000 NA
ATOM      8  C   UNL     1       1.640   7.871  20.068  0.00  0.00    +0.000 A 
ATOM      9  C   UNL     1       2.496   6.799  20.164  0.00  0.00    +0.000 A 
ATOM     10  C   UNL     1       3.199   6.225  19.118  0.00  0.00    +0.000 A 
ATOM     11  C   UNL     1       3.164   6.935  17.907  0.00  0.00    +0.000 A 
ATOM     12  C   UNL     1       2.409   8.205  17.837  0.00  0.00    +0.000 A 
ATOM     13  C   UNL     1       1.529   8.807  18.986  0.00  0.00    +0.000 A 
ATOM     14  C   UNL     1       0.554  10.024  19.428  0.00  0.00    +0.000 A 
ATOM     15  H   UNL     1       1.030  10.776  22.463  0.00  0.00    +0.000 HD
ENDROOT
BRANCH  10  16
ATOM     16  C   UNL     1       3.791   4.885  19.353  0.00  0.00    +0.000 A 
ATOM     17  C   UNL     1       3.296   3.557  19.566  0.00  0.00    +0.000 A 
ATOM     18  C   UNL     1       1.921   2.983  19.614  0.00  0.00    +0.000 C 
ATOM     19  N   UNL     1       4.281   2.669  19.732  0.00  0.00    +0.000 NA
ATOM     20  O   UNL     1       5.449   3.366  19.610  0.00  0.00    +0.000 OA
ATOM     21  C   UNL     1       5.180   4.681  19.404  0.00  0.00    +0.000 A 
ATOM     22  C   UNL     1       6.395   5.510  19.290  0.00  0.00    +0.000 C 
ENDBRANCH  10  16
BRANCH  11  23
ATOM     23  O   UNL     1       3.918   6.258  17.002  0.00  0.00    +0.000 OA
ATOM     24  C   UNL     1       4.962   6.622  16.138  0.00  0.00    +0.000 C 
ENDBRANCH  11  23
BRANCH   1  25
ATOM     25  C   UNL     1      -0.448  12.582  19.277  0.00  0.00    +0.000 C 
BRANCH  25  26
ATOM     26  C   UNL     1      -1.797  12.064  18.765  0.00  0.00    +0.000 A 
ATOM     27  C   UNL     1      -2.983  12.245  19.488  0.00  0.00    +0.000 A 
ATOM     28  C   UNL     1      -4.218  11.887  18.930  0.00  0.00    +0.000 A 
ATOM     29  C   UNL     1      -4.289  11.358  17.641  0.00  0.00    +0.000 A 
ATOM     30  C   UNL     1      -3.131  11.234  16.882  0.00  0.00    +0.000 A 
ATOM     31  C   UNL     1      -1.899  11.596  17.435  0.00  0.00    +0.000 A 
ENDBRANCH  25  26
BRANCH  25  33
ATOM     32  C   UNL     1      -0.732  15.153  20.074  0.00  0.00    +0.000 C 
ATOM     33  C   UNL     1      -0.746  13.654  20.435  0.00  0.00    +0.000 C 
ENDBRANCH  25  33
ENDBRANCH   1  25
TORSDOF 5
ENDMDL
MODEL 4
REMARK VINA RESULT:      -8.0      2.321      3.321
REMARK  Name = 
REMARK  9 active torsions:
REMARK  status: ('A' for Active; 'I' for Inactive)
REMARK    1  A    between atoms: C_1  and  C_2
REMARK    2  A    between atoms: C_2  and  C_3
REMARK    3  A    between atoms: C_3  and  C_4
REMARK    4  A    between atoms: C_3  and  N_10
REMARK    5  A    between atoms: C_19  and  C_20
REMARK    6  A    between atoms: C_21  and  C_22
REMARK    7  A    between atoms: C_25  and  C_26
REMARK    8  A    between atoms: C_27  and  O_28
REMARK    9  A    between atoms: O_28  and  C_29
REMARK                            x       y       z     vdW  Elec       q    Type
REMARK                         _______ _______ _______ _____ _____    ______ ____
ROOT
ATOM      1  N   UNL     1       0.593  11.661  19.338  0.00  0.00    +0.000 N 
ATOM      2  C   UNL     1       1.159  11.982  20.668  0.00  0.00    +0.000 A 
ATOM      3  O   UNL     1       1.715  12.997  21.011  0.00  0.00    +0.000 OA
ATOM      4  N   UNL     1       0.666  10.988  21.509  0.00  0.00    +0.000 N 
ATOM      5  C   UNL     1      -0.010  10.001  20.764  0.00  0.00    +0.000 A 
ATOM      6  C   UNL     1      -0.173   8.767  21.285  0.00  0.00    +0.000 A 
ATOM      7  N   UNL     1       0.834   7.914  21.165  0.00  0.00    +0.000 NA
ATOM      8  C   UNL     1       1.593   8.010  20.087  0.00  0.00    +0.000 A 
ATOM      9  C   UNL     1       2.478   6.962  20.174  0.00  0.00    +0.000 A 
ATOM     10  C   UNL     1       3.178   6.401  19.118  0.00  0.00    +0.000 A 
ATOM     11  C   UNL     1       3.102   7.103  17.904  0.00  0.00    +0.000 A 
ATOM     12  C   UNL     1       2.312   8.352  17.842  0.00  0.00    +0.000 A 
ATOM     13  C   UNL     1       1.437   8.937  19.003  0.00  0.00    +0.000 A 
ATOM     14  C   UNL     1       0.438  10.130  19.456  0.00  0.00    +0.000 A 
ATOM     15  H   UNL     1       0.947  10.911  22.478  0.00  0.00    +0.000 HD
ENDROOT
BRANCH  10  16
ATOM     16  C   UNL     1       3.809   5.079  19.350  0.00  0.00    +0.000 A 
ATOM     17  C   UNL     1       5.146   4.565  19.400  0.00  0.00    +0.000 A 
ATOM     18  C   UNL     1       6.485   5.204  19.252  0.00  0.00    +0.000 C 
ATOM     19  N   UNL     1       5.175   3.252  19.653  0.00  0.00    +0.000 NA
ATOM     20  O   UNL     1       3.875   2.862  19.802  0.00  0.00    +0.000 OA
ATOM     21  C   UNL     1       3.052   3.924  19.608  0.00  0.00    +0.000 A 
ATOM     22  C   UNL     1       1.622   3.578  19.725  0.00  0.00    +0.000 C 
ENDBRANCH  10  16
BRANCH  11  23
ATOM     23  O   UNL     1       3.858   6.442  16.990  0.00  0.00    +0.000 OA
ATOM     24  C   UNL     1       4.982   6.787  16.222  0.00  0.00    +0.000 C 
ENDBRANCH  11  23
BRANCH   1  25
ATOM     25  C   UNL     1      -0.635  12.660  19.309  0.00  0.00    +0.000 C 
BRANCH  25  26
ATOM     26  C   UNL     1      -1.970  12.112  18.791  0.00  0.00    +0.000 A 
ATOM     27  C   UNL     1      -3.164  12.270  19.506  0.00  0.00    +0.000 A 
ATOM     28  C   UNL     1      -4.388  11.885  18.942  0.00  0.00    +0.000 A 
ATOM     29  C   UNL     1      -4.440  11.352  17.653  0.00  0.00    +0.000 A 
ATOM     30  C   UNL     1      -3.275  11.250  16.902  0.00  0.00    +0.000 A 
ATOM     31  C   UNL     1      -2.054  11.638  17.461  0.00  0.00    +0.000 A 
ENDBRANCH  25  26
BRANCH  25  33
ATOM     32  C   UNL     1      -0.922  15.213  20.159  0.00  0.00    +0.000 C 
ATOM     33  C   UNL     1      -0.961  13.705  20.482  0.00  0.00    +0.000 C 
ENDBRANCH  25  33
ENDBRANCH   1  25
TORSDOF 5
ENDMDL
MODEL 5
REMARK VINA RESULT:      -7.9      2.394      4.332
REMARK  Name = 
REMARK  9 active torsions:
REMARK  status: ('A' for Active; 'I' for Inactive)
REMARK    1  A    between atoms: C_1  and  C_2
REMARK    2  A    between atoms: C_2  and  C_3
REMARK    3  A    between atoms: C_3  and  C_4
REMARK    4  A    between atoms: C_3  and  N_10
REMARK    5  A    between atoms: C_19  and  C_20
REMARK    6  A    between atoms: C_21  and  C_22
REMARK    7  A    between atoms: C_25  and  C_26
REMARK    8  A    between atoms: C_27  and  O_28
REMARK    9  A    between atoms: O_28  and  C_29
REMARK                            x       y       z     vdW  Elec       q    Type
REMARK                         _______ _______ _______ _____ _____    ______ ____
ROOT
ATOM      1  N   UNL     1       1.090  11.763  19.382  0.00  0.00    +0.000 N 
ATOM      2  C   UNL     1       1.577  11.956  20.766  0.00  0.00    +0.000 A 
ATOM      3  O   UNL     1       2.206  12.888  21.206  0.00  0.00    +0.000 OA
ATOM      4  N   UNL     1       0.916  10.984  21.510  0.00  0.00    +0.000 N 
ATOM      5  C   UNL     1       0.203  10.112  20.663  0.00  0.00    +0.000 A 
ATOM      6  C   UNL     1      -0.130   8.880  21.101  0.00  0.00    +0.000 A 
ATOM      7  N   UNL     1       0.788   7.929  21.009  0.00  0.00    +0.000 NA
ATOM      8  C   UNL     1       1.637   7.993  19.999  0.00  0.00    +0.000 A 
ATOM      9  C   UNL     1       2.398   6.852  20.094  0.00  0.00    +0.000 A 
ATOM     10  C   UNL     1       3.118   6.269  19.064  0.00  0.00    +0.000 A 
ATOM     11  C   UNL     1       3.215   7.031  17.889  0.00  0.00    +0.000 A 
ATOM     12  C   UNL     1       2.568   8.361  17.837  0.00  0.00    +0.000 A 
ATOM     13  C   UNL     1       1.668   8.982  18.959  0.00  0.00    +0.000 A 
ATOM     14  C   UNL     1       0.766  10.254  19.401  0.00  0.00    +0.000 A 
ATOM     15  H   UNL     1       1.107  10.831  22.492  0.00  0.00    +0.000 HD
ENDROOT
BRANCH  10  16
ATOM     16  C   UNL     1       3.587   4.876  19.269  0.00  0.00    +0.000 A 
ATOM     17  C   UNL     1       2.976   3.587  19.403  0.00  0.00    +0.000 A 
ATOM     18  C   UNL     1       1.557   3.128  19.366  0.00  0.00    +0.000 C 
ATOM     19  N   UNL     1       3.876   2.614  19.575  0.00  0.00    +0.000 NA
ATOM     20  O   UNL     1       5.102   3.216  19.534  0.00  0.00    +0.000 OA
ATOM     21  C   UNL     1       4.950   4.555  19.372  0.00  0.00    +0.000 A 
ATOM     22  C   UNL     1       6.233   5.284  19.347  0.00  0.00    +0.000 C 
ENDBRANCH  10  16
BRANCH  11  23
ATOM     23  O   UNL     1       3.969   6.336  16.999  0.00  0.00    +0.000 OA
ATOM     24  C   UNL     1       5.044   6.672  16.160  0.00  0.00    +0.000 C 
ENDBRANCH  11  23
BRANCH   1  25
ATOM     25  C   UNL     1      -0.021  12.889  19.316  0.00  0.00    +0.000 C 
BRANCH  25  26
ATOM     26  C   UNL     1       0.422  14.284  18.860  0.00  0.00    +0.000 A 
ATOM     27  C   UNL     1      -0.397  15.410  19.014  0.00  0.00    +0.000 A 
ATOM     28  C   UNL     1       0.090  16.690  18.718  0.00  0.00    +0.000 A 
ATOM     29  C   UNL     1       1.403  16.867  18.279  0.00  0.00    +0.000 A 
ATOM     30  C   UNL     1       2.251  15.771  18.183  0.00  0.00    +0.000 A 
ATOM     31  C   UNL     1       1.769  14.494  18.483  0.00  0.00    +0.000 A 
ENDBRANCH  25  26
BRANCH  25  33
ATOM     32  C   UNL     1      -2.643  12.395  19.770  0.00  0.00    +0.000 C 
ATOM     33  C   UNL     1      -1.506  12.644  18.758  0.00  0.00    +0.000 C 
ENDBRANCH  25  33
ENDBRANCH   1  25
TORSDOF 5
ENDMDL
MODEL 6
REMARK VINA RESULT:      -7.7      2.410      3.636
REMARK  Name = 
REMARK  9 active torsions:
REMARK  status: ('A' for Active; 'I' for Inactive)
REMARK    1  A    between atoms: C_1  and  C_2
REMARK    2  A    between atoms: C_2  and  C_3
REMARK    3  A    between atoms: C_3  and  C_4
REMARK    4  A    between atoms: C_3  and  N_10
REMARK    5  A    between atoms: C_19  and  C_20
REMARK    6  A    between atoms: C_21  and  C_22
REMARK    7  A    between atoms: C_25  and  C_26
REMARK    8  A    between atoms: C_27  and  O_28
REMARK    9  A    between atoms: O_28  and  C_29
REMARK                            x       y       z     vdW  Elec       q    Type
REMARK                         _______ _______ _______ _____ _____    ______ ____
ROOT
ATOM      1  N   UNL     1       0.260  11.552  19.752  0.00  0.00    +0.000 N 
ATOM      2  C   UNL     1       0.844  11.831  21.083  0.00  0.00    +0.000 A 
ATOM      3  O   UNL     1       1.353  12.857  21.468  0.00  0.00    +0.000 OA
ATOM      4  N   UNL     1       0.431  10.768  21.879  0.00  0.00    +0.000 N 
ATOM      5  C   UNL     1      -0.211   9.785  21.098  0.00  0.00    +0.000 A 
ATOM      6  C   UNL     1      -0.291   8.517  21.553  0.00  0.00    +0.000 A 
ATOM      7  N   UNL     1       0.758   7.730  21.360  0.00  0.00    +0.000 NA
ATOM      8  C   UNL     1       1.479   7.928  20.271  0.00  0.00    +0.000 A 
ATOM      9  C   UNL     1       2.423   6.928  20.276  0.00  0.00    +0.000 A 
ATOM     10  C   UNL     1       3.122   6.467  19.174  0.00  0.00    +0.000 A 
ATOM     11  C   UNL     1       2.974   7.228  18.003  0.00  0.00    +0.000 A 
ATOM     12  C   UNL     1       2.115   8.432  18.030  0.00  0.00    +0.000 A 
ATOM     13  C   UNL     1       1.242   8.902  19.244  0.00  0.00    +0.000 A 
ATOM     14  C   UNL     1       0.192  10.011  19.788  0.00  0.00    +0.000 A 
ATOM     15  H   UNL     1       0.742  10.654  22.835  0.00  0.00    +0.000 HD
ENDROOT
BRANCH  10  16
ATOM     16  C   UNL     1       3.832   5.171  19.315  0.00  0.00    +0.000 A 
ATOM     17  C   UNL     1       5.197   4.737  19.351  0.00  0.00    +0.000 A 
ATOM     18  C   UNL     1       6.496   5.467  19.277  0.00  0.00    +0.000 C 
ATOM     19  N   UNL     1       5.305   3.414  19.503  0.00  0.00    +0.000 NA
ATOM     20  O   UNL     1       4.030   2.934  19.598  0.00  0.00    +0.000 OA
ATOM     21  C   UNL     1       3.145   3.956  19.471  0.00  0.00    +0.000 A 
ATOM     22  C   UNL     1       1.738   3.515  19.534  0.00  0.00    +0.000 C 
ENDBRANCH  10  16
BRANCH  11  23
ATOM     23  O   UNL     1       3.739   6.661  17.035  0.00  0.00    +0.000 OA
ATOM     24  C   UNL     1       4.896   7.062  16.348  0.00  0.00    +0.000 C 
ENDBRANCH  11  23
BRANCH   1  25
ATOM     25  C   UNL     1      -1.022  12.480  19.810  0.00  0.00    +0.000 C 
BRANCH  25  26
ATOM     26  C   UNL     1      -0.801  13.990  19.673  0.00  0.00    +0.000 A 
ATOM     27  C   UNL     1      -0.030  14.536  18.639  0.00  0.00    +0.000 A 
ATOM     28  C   UNL     1       0.037  15.924  18.458  0.00  0.00    +0.000 A 
ATOM     29  C   UNL     1      -0.673  16.785  19.295  0.00  0.00    +0.000 A 
ATOM     30  C   UNL     1      -1.497  16.261  20.284  0.00  0.00    +0.000 A 
ATOM     31  C   UNL     1      -1.569  14.877  20.463  0.00  0.00    +0.000 A 
ENDBRANCH  25  26
BRANCH  25  33
ATOM     32  C   UNL     1      -2.376  11.585  17.644  0.00  0.00    +0.000 C 
ATOM     33  C   UNL     1      -2.411  12.125  19.088  0.00  0.00    +0.000 C 
ENDBRANCH  25  33
ENDBRANCH   1  25
TORSDOF 5
ENDMDL
MODEL 7
REMARK VINA RESULT:      -7.7      2.390      4.114
REMARK  Name = 
REMARK  9 active torsions:
REMARK  status: ('A' for Active; 'I' for Inactive)
REMARK    1  A    between atoms: C_1  and  C_2
REMARK    2  A    between atoms: C_2  and  C_3
REMARK    3  A    between atoms: C_3  and  C_4
REMARK    4  A    between atoms: C_3  and  N_10
REMARK    5  A    between atoms: C_19  and  C_20
REMARK    6  A    between atoms: C_21  and  C_22
REMARK    7  A    between atoms: C_25  and  C_26
REMARK    8  A    between atoms: C_27  and  O_28
REMARK    9  A    between atoms: O_28  and  C_29
REMARK                            x       y       z     vdW  Elec       q    Type
REMARK                         _______ _______ _______ _____ _____    ______ ____
ROOT
ATOM      1  N   UNL     1       1.048  11.807  19.391  0.00  0.00    +0.000 N 
ATOM      2  C   UNL     1       1.516  12.011  20.780  0.00  0.00    +0.000 A 
ATOM      3  O   UNL     1       2.137  12.947  21.223  0.00  0.00    +0.000 OA
ATOM      4  N   UNL     1       0.847  11.041  21.523  0.00  0.00    +0.000 N 
ATOM      5  C   UNL     1       0.147  10.163  20.672  0.00  0.00    +0.000 A 
ATOM      6  C   UNL     1      -0.190   8.933  21.112  0.00  0.00    +0.000 A 
ATOM      7  N   UNL     1       0.732   7.983  21.039  0.00  0.00    +0.000 NA
ATOM      8  C   UNL     1       1.594   8.043  20.040  0.00  0.00    +0.000 A 
ATOM      9  C   UNL     1       2.356   6.904  20.152  0.00  0.00    +0.000 A 
ATOM     10  C   UNL     1       3.091   6.316  19.136  0.00  0.00    +0.000 A 
ATOM     11  C   UNL     1       3.202   7.071  17.957  0.00  0.00    +0.000 A 
ATOM     12  C   UNL     1       2.553   8.399  17.888  0.00  0.00    +0.000 A 
ATOM     13  C   UNL     1       1.637   9.025  18.994  0.00  0.00    +0.000 A 
ATOM     14  C   UNL     1       0.726  10.298  19.416  0.00  0.00    +0.000 A 
ATOM     15  H   UNL     1       1.026  10.895  22.507  0.00  0.00    +0.000 HD
ENDROOT
BRANCH  10  16
ATOM     16  C   UNL     1       3.560   4.926  19.355  0.00  0.00    +0.000 A 
ATOM     17  C   UNL     1       4.822   4.248  19.362  0.00  0.00    +0.000 A 
ATOM     18  C   UNL     1       6.225   4.713  19.161  0.00  0.00    +0.000 C 
ATOM     19  N   UNL     1       4.696   2.943  19.624  0.00  0.00    +0.000 NA
ATOM     20  O   UNL     1       3.363   2.720  19.823  0.00  0.00    +0.000 OA
ATOM     21  C   UNL     1       2.674   3.876  19.650  0.00  0.00    +0.000 A 
ATOM     22  C   UNL     1       1.217   3.713  19.821  0.00  0.00    +0.000 C 
ENDBRANCH  10  16
BRANCH  11  23
ATOM     23  O   UNL     1       3.970   6.372  17.082  0.00  0.00    +0.000 OA
ATOM     24  C   UNL     1       5.046   6.708  16.245  0.00  0.00    +0.000 C 
ENDBRANCH  11  23
BRANCH   1  25
ATOM     25  C   UNL     1      -0.064  12.931  19.303  0.00  0.00    +0.000 C 
BRANCH  25  26
ATOM     26  C   UNL     1       0.385  14.328  18.861  0.00  0.00    +0.000 A 
ATOM     27  C   UNL     1      -0.424  15.458  19.038  0.00  0.00    +0.000 A 
ATOM     28  C   UNL     1       0.070  16.738  18.753  0.00  0.00    +0.000 A 
ATOM     29  C   UNL     1       1.380  16.911  18.305  0.00  0.00    +0.000 A 
ATOM     30  C   UNL     1       2.219  15.810  18.188  0.00  0.00    +0.000 A 
ATOM     31  C   UNL     1       1.730  14.533  18.475  0.00  0.00    +0.000 A 
ENDBRANCH  25  26
BRANCH  25  33
ATOM     32  C   UNL     1      -2.678  12.347  19.691  0.00  0.00    +0.000 C 
ATOM     33  C   UNL     1      -1.535  12.684  18.712  0.00  0.00    +0.000 C 
ENDBRANCH  25  33
ENDBRANCH   1  25
TORSDOF 5
ENDMDL
MODEL 8
REMARK VINA RESULT:      -7.4      1.167      1.558
REMARK  Name = 
REMARK  9 active torsions:
REMARK  status: ('A' for Active; 'I' for Inactive)
REMARK    1  A    between atoms: C_1  and  C_2
REMARK    2  A    between atoms: C_2  and  C_3
REMARK    3  A    between atoms: C_3  and  C_4
REMARK    4  A    between atoms: C_3  and  N_10
REMARK    5  A    between atoms: C_19  and  C_20
REMARK    6  A    between atoms: C_21  and  C_22
REMARK    7  A    between atoms: C_25  and  C_26
REMARK    8  A    between atoms: C_27  and  O_28
REMARK    9  A    between atoms: O_28  and  C_29
REMARK                            x       y       z     vdW  Elec       q    Type
REMARK                         _______ _______ _______ _____ _____    ______ ____
ROOT
ATOM      1  N   UNL     1      -0.340  10.373  20.115  0.00  0.00    +0.000 N 
ATOM      2  C   UNL     1      -0.933  10.465  18.763  0.00  0.00    +0.000 A 
ATOM      3  O   UNL     1      -2.074  10.734  18.471  0.00  0.00    +0.000 OA
ATOM      4  N   UNL     1       0.158  10.458  17.898  0.00  0.00    +0.000 N 
ATOM      5  C   UNL     1       1.348  10.197  18.607  0.00  0.00    +0.000 A 
ATOM      6  C   UNL     1       2.424   9.715  17.950  0.00  0.00    +0.000 A 
ATOM      7  N   UNL     1       2.475   8.408  17.738  0.00  0.00    +0.000 NA
ATOM      8  C   UNL     1       1.927   7.618  18.643  0.00  0.00    +0.000 A 
ATOM      9  C   UNL     1       2.208   6.339  18.225  0.00  0.00    +0.000 A 
ATOM     10  C   UNL     1       2.214   5.208  19.023  0.00  0.00    +0.000 A 
ATOM     11  C   UNL     1       1.701   5.380  20.319  0.00  0.00    +0.000 A 
ATOM     12  C   UNL     1       1.202   6.712  20.725  0.00  0.00    +0.000 A 
ATOM     13  C   UNL     1       1.286   8.019  19.863  0.00  0.00    +0.000 A 
ATOM     14  C   UNL     1       0.963   9.607  19.804  0.00  0.00    +0.000 A 
ATOM     15  H   UNL     1       0.051  10.440  16.893  0.00  0.00    +0.000 HD
ENDROOT
BRANCH  10  16
ATOM     16  C   UNL     1       2.868   3.994  18.475  0.00  0.00    +0.000 A 
ATOM     17  C   UNL     1       4.176   3.647  18.002  0.00  0.00    +0.000 A 
ATOM     18  C   UNL     1       5.452   4.411  17.895  0.00  0.00    +0.000 C 
ATOM     19  N   UNL     1       4.249   2.374  17.601  0.00  0.00    +0.000 NA
ATOM     20  O   UNL     1       3.013   1.833  17.816  0.00  0.00    +0.000 OA
ATOM     21  C   UNL     1       2.179   2.781  18.315  0.00  0.00    +0.000 A 
ATOM     22  C   UNL     1       0.810   2.281  18.550  0.00  0.00    +0.000 C 
ENDBRANCH  10  16
BRANCH  11  23
ATOM     23  O   UNL     1       1.751   4.181  20.954  0.00  0.00    +0.000 OA
ATOM     24  C   UNL     1       2.583   3.636  21.945  0.00  0.00    +0.000 C 
ENDBRANCH  11  23
BRANCH   1  25
ATOM     25  C   UNL     1      -0.371  11.898  20.539  0.00  0.00    +0.000 C 
BRANCH  25  26
ATOM     26  C   UNL     1      -1.527  12.352  21.437  0.00  0.00    +0.000 A 
ATOM     27  C   UNL     1      -2.581  13.135  20.950  0.00  0.00    +0.000 A 
ATOM     28  C   UNL     1      -3.691  13.415  21.758  0.00  0.00    +0.000 A 
ATOM     29  C   UNL     1      -3.773  12.908  23.055  0.00  0.00    +0.000 A 
ATOM     30  C   UNL     1      -2.769  12.074  23.533  0.00  0.00    +0.000 A 
ATOM     31  C   UNL     1      -1.663  11.789  22.727  0.00  0.00    +0.000 A 
ENDBRANCH  25  26
BRANCH  25  33
ATOM     32  C   UNL     1       1.584  13.668  19.930  0.00  0.00    +0.000 C 
ATOM     33  C   UNL     1       0.934  12.730  20.967  0.00  0.00    +0.000 C 
ENDBRANCH  25  33
ENDBRANCH   1  25
TORSDOF 5
ENDMDL
MODEL 9
REMARK VINA RESULT:      -7.4      0.799      2.583
REMARK  Name = 
REMARK  9 active torsions:
REMARK  status: ('A' for Active; 'I' for Inactive)
REMARK    1  A    between atoms: C_1  and  C_2
REMARK    2  A    between atoms: C_2  and  C_3
REMARK    3  A    between atoms: C_3  and  C_4
REMARK    4  A    between atoms: C_3  and  N_10
REMARK    5  A    between atoms: C_19  and  C_20
REMARK    6  A    between atoms: C_21  and  C_22
REMARK    7  A    between atoms: C_25  and  C_26
REMARK    8  A    between atoms: C_27  and  O_28
REMARK    9  A    between atoms: O_28  and  C_29
REMARK                            x       y       z     vdW  Elec       q    Type
REMARK                         _______ _______ _______ _____ _____    ______ ____
ROOT
ATOM      1  N   UNL     1      -0.725  10.520  20.077  0.00  0.00    +0.000 N 
ATOM      2  C   UNL     1      -1.348  10.564  18.736  0.00  0.00    +0.000 A 
ATOM      3  O   UNL     1      -2.525  10.546  18.465  0.00  0.00    +0.000 OA
ATOM      4  N   UNL     1      -0.311  10.918  17.877  0.00  0.00    +0.000 N 
ATOM      5  C   UNL     1       0.919  10.923  18.564  0.00  0.00    +0.000 A 
ATOM      6  C   UNL     1       2.071  10.798  17.872  0.00  0.00    +0.000 A 
ATOM      7  N   UNL     1       2.461   9.573  17.549  0.00  0.00    +0.000 NA
ATOM      8  C   UNL     1       2.157   8.594  18.383  0.00  0.00    +0.000 A 
ATOM      9  C   UNL     1       2.758   7.474  17.858  0.00  0.00    +0.000 A 
ATOM     10  C   UNL     1       3.077   6.322  18.557  0.00  0.00    +0.000 A 
ATOM     11  C   UNL     1       2.562   6.245  19.861  0.00  0.00    +0.000 A 
ATOM     12  C   UNL     1       1.738   7.360  20.377  0.00  0.00    +0.000 A 
ATOM     13  C   UNL     1       1.458   8.709  19.631  0.00  0.00    +0.000 A 
ATOM     14  C   UNL     1       0.727  10.154  19.705  0.00  0.00    +0.000 A 
ATOM     15  H   UNL     1      -0.429  10.956  16.873  0.00  0.00    +0.000 HD
ENDROOT
BRANCH  10  16
ATOM     16  C   UNL     1       4.017   5.375  17.909  0.00  0.00    +0.000 A 
ATOM     17  C   UNL     1       5.416   5.353  17.599  0.00  0.00    +0.000 A 
ATOM     18  C   UNL     1       6.524   6.321  17.842  0.00  0.00    +0.000 C 
ATOM     19  N   UNL     1       5.783   4.222  16.989  0.00  0.00    +0.000 NA
ATOM     20  O   UNL     1       4.658   3.453  16.898  0.00  0.00    +0.000 OA
ATOM     21  C   UNL     1       3.600   4.125  17.421  0.00  0.00    +0.000 A 
ATOM     22  C   UNL     1       2.335   3.370  17.335  0.00  0.00    +0.000 C 
ENDBRANCH  10  16
BRANCH  11  23
ATOM     23  O   UNL     1       2.939   5.053  20.392  0.00  0.00    +0.000 OA
ATOM     24  C   UNL     1       2.273   4.057  21.123  0.00  0.00    +0.000 C 
ENDBRANCH  11  23
BRANCH   1  25
ATOM     25  C   UNL     1      -1.148  11.943  20.629  0.00  0.00    +0.000 C 
BRANCH  25  26
ATOM     26  C   UNL     1      -0.189  13.109  20.368  0.00  0.00    +0.000 A 
ATOM     27  C   UNL     1      -0.448  14.079  19.391  0.00  0.00    +0.000 A 
ATOM     28  C   UNL     1       0.374  15.207  19.273  0.00  0.00    +0.000 A 
ATOM     29  C   UNL     1       1.456  15.392  20.135  0.00  0.00    +0.000 A 
ATOM     30  C   UNL     1       1.690  14.476  21.153  0.00  0.00    +0.000 A 
ATOM     31  C   UNL     1       0.868  13.353  21.276  0.00  0.00    +0.000 A 
ENDBRANCH  25  26
BRANCH  25  33
ATOM     32  C   UNL     1      -3.302  13.037  21.849  0.00  0.00    +0.000 C 
ATOM     33  C   UNL     1      -2.645  12.518  20.554  0.00  0.00    +0.000 C 
ENDBRANCH  25  33
ENDBRANCH   1  25
TORSDOF 5
ENDMDL
