MODEL 1
REMARK VINA RESULT:      -8.5      0.000      0.000
REMARK  Name = 
REMARK  9 active torsions:
REMARK  status: ('A' for Active; 'I' for Inactive)
REMARK    1  A    between atoms: C_1  and  N_2
REMARK    2  A    between atoms: C_7  and  C_8
REMARK    3  A    between atoms: C_10  and  N_11
REMARK    4  A    between atoms: C_12  and  C_14
REMARK    5  A    between atoms: C_19  and  C_20
REMARK    6  A    between atoms: C_27  and  O_28
REMARK    7  A    between atoms: O_28  and  C_29
REMARK    8  A    between atoms: C_29  and  C_30
REMARK    9  A    between atoms: C_30  and  N_31
REMARK                            x       y       z     vdW  Elec       q    Type
REMARK                         _______ _______ _______ _____ _____    ______ ____
ROOT
ATOM      1  C   UNL     1      -0.007  11.645  21.269  0.00  0.00    +0.000 A 
ATOM      2  C   UNL     1       0.790  10.508  21.024  0.00  0.00    +0.000 A 
ATOM      3  C   UNL     1       0.718   9.315  21.748  0.00  0.00    +0.000 A 
ATOM      4  C   UNL     1      -0.088   9.299  22.878  0.00  0.00    +0.000 A 
ATOM      5  C   UNL     1      -0.834  10.439  23.208  0.00  0.00    +0.000 A 
ATOM      6  C   UNL     1      -0.849  11.596  22.394  0.00  0.00    +0.000 A 
ENDROOT
BRANCH   1  13
ATOM      7  C   UNL     1      -1.530  12.173  18.493  0.00  0.00    +0.000 C 
ATOM      8  N   UNL     1      -0.550  13.005  19.161  0.00  0.00    +0.000 N 
ATOM      9  N   UNL     1      -0.256  14.183  18.556  0.00  0.00    +0.000 NA
ATOM     10  C   UNL     1       0.786  14.633  19.240  0.00  0.00    +0.000 A 
ATOM     11  C   UNL     1       1.135  13.788  20.306  0.00  0.00    +0.000 A 
ATOM     12 CL   UNL     1       2.485  14.036  21.304  0.00  0.00    +0.000 Cl
ATOM     13  C   UNL     1       0.178  12.783  20.333  0.00  0.00    +0.000 A 
ENDBRANCH   1  13
BRANCH   3  14
ATOM     14  N   UNL     1       1.411   8.135  21.356  0.00  0.00    +0.000 N 
ATOM     15  C   UNL     1       1.806   7.837  20.060  0.00  0.00    +0.000 C 
ATOM     16  O   UNL     1       1.727   8.573  19.084  0.00  0.00    +0.000 OA
ATOM     17  H   UNL     1       1.630   7.475  22.090  0.00  0.00    +0.000 HD
BRANCH  15  18
ATOM     18  C   UNL     1       2.398   6.503  19.794  0.00  0.00    +0.000 A 
ATOM     19  C   UNL     1       3.181   6.380  18.635  0.00  0.00    +0.000 A 
ATOM     20  C   UNL     1       3.657   5.136  18.236  0.00  0.00    +0.000 A 
ATOM     21  C   UNL     1       3.339   4.008  18.984  0.00  0.00    +0.000 A 
ATOM     22  F   UNL     1       3.791   2.823  18.559  0.00  0.00    +0.000 F 
ATOM     23  C   UNL     1       2.550   4.096  20.134  0.00  0.00    +0.000 A 
ATOM     24  C   UNL     1       2.079   5.364  20.543  0.00  0.00    +0.000 A 
BRANCH  23  25
ATOM     25  C   UNL     1       2.171   2.861  20.897  0.00  0.00    +0.000 C 
ATOM     26  F   UNL     1       1.644   1.853  20.149  0.00  0.00    +0.000 F 
ATOM     27  F   UNL     1       3.239   2.322  21.549  0.00  0.00    +0.000 F 
ATOM     28  F   UNL     1       1.244   3.126  21.864  0.00  0.00    +0.000 F 
ENDBRANCH  23  25
ENDBRANCH  15  18
ENDBRANCH   3  14
BRANCH   6  29
ATOM     29  O   UNL     1      -1.696  12.545  22.903  0.00  0.00    +0.000 OA
BRANCH  29  30
ATOM     30  C   UNL     1      -3.102  12.314  22.910  0.00  0.00    +0.000 C 
BRANCH  30  31
ATOM     31  C   UNL     1      -3.730  12.866  24.196  0.00  0.00    +0.000 C 
BRANCH  31  32
ATOM     32  N   UNL     1      -4.610  11.871  24.815  0.00  0.00    +0.000 NA
ATOM     33  H   UNL     1      -5.556  11.971  24.447  0.00  0.00    +0.000 HD
ATOM     34  H   UNL     1      -4.672  12.041  25.817  0.00  0.00    +0.000 HD
ENDBRANCH  31  32
ENDBRANCH  30  31
ENDBRANCH  29  30
ENDBRANCH   6  29
TORSDOF 8
ENDMDL
MODEL 2
REMARK VINA RESULT:      -8.4      1.194      1.643
REMARK  Name = 
REMARK  9 active torsions:
REMARK  status: ('A' for Active; 'I' for Inactive)
REMARK    1  A    between atoms: C_1  and  N_2
REMARK    2  A    between atoms: C_7  and  C_8
REMARK    3  A    between atoms: C_10  and  N_11
REMARK    4  A    between atoms: C_12  and  C_14
REMARK    5  A    between atoms: C_19  and  C_20
REMARK    6  A    between atoms: C_27  and  O_28
REMARK    7  A    between atoms: O_28  and  C_29
REMARK    8  A    between atoms: C_29  and  C_30
REMARK    9  A    between atoms: C_30  and  N_31
REMARK                            x       y       z     vdW  Elec       q    Type
REMARK                         _______ _______ _______ _____ _____    ______ ____
ROOT
ATOM      1  C   UNL     1      -0.186  11.640  21.255  0.00  0.00    +0.000 A 
ATOM      2  C   UNL     1       0.625  10.515  21.004  0.00  0.00    +0.000 A 
ATOM      3  C   UNL     1       0.616   9.342  21.763  0.00  0.00    +0.000 A 
ATOM      4  C   UNL     1      -0.135   9.340  22.930  0.00  0.00    +0.000 A 
ATOM      5  C   UNL     1      -0.892  10.472  23.264  0.00  0.00    +0.000 A 
ATOM      6  C   UNL     1      -0.973  11.604  22.421  0.00  0.00    +0.000 A 
ENDROOT
BRANCH   1  13
ATOM      7  C   UNL     1       1.209  14.498  21.693  0.00  0.00    +0.000 C 
ATOM      8  N   UNL     1       0.596  13.963  20.494  0.00  0.00    +0.000 N 
ATOM      9  N   UNL     1       0.642  14.757  19.395  0.00  0.00    +0.000 NA
ATOM     10  C   UNL     1      -0.149  14.139  18.530  0.00  0.00    +0.000 A 
ATOM     11  C   UNL     1      -0.664  12.935  19.038  0.00  0.00    +0.000 A 
ATOM     12 CL   UNL     1      -1.787  11.966  18.212  0.00  0.00    +0.000 Cl
ATOM     13  C   UNL     1      -0.073  12.755  20.281  0.00  0.00    +0.000 A 
ENDBRANCH   1  13
BRANCH   3  14
ATOM     14  N   UNL     1       1.317   8.167  21.371  0.00  0.00    +0.000 N 
ATOM     15  C   UNL     1       1.747   7.889  20.081  0.00  0.00    +0.000 C 
ATOM     16  O   UNL     1       1.696   8.641  19.116  0.00  0.00    +0.000 OA
ATOM     17  H   UNL     1       1.515   7.495  22.100  0.00  0.00    +0.000 HD
BRANCH  15  18
ATOM     18  C   UNL     1       2.345   6.559  19.810  0.00  0.00    +0.000 A 
ATOM     19  C   UNL     1       3.150   6.451  18.665  0.00  0.00    +0.000 A 
ATOM     20  C   UNL     1       3.633   5.211  18.259  0.00  0.00    +0.000 A 
ATOM     21  C   UNL     1       3.301   4.074  18.987  0.00  0.00    +0.000 A 
ATOM     22  F   UNL     1       3.761   2.894  18.556  0.00  0.00    +0.000 F 
ATOM     23  C   UNL     1       2.491   4.147  20.123  0.00  0.00    +0.000 A 
ATOM     24  C   UNL     1       2.012   5.411  20.539  0.00  0.00    +0.000 A 
BRANCH  23  25
ATOM     25  C   UNL     1       2.097   2.904  20.864  0.00  0.00    +0.000 C 
ATOM     26  F   UNL     1       3.083   2.337  21.614  0.00  0.00    +0.000 F 
ATOM     27  F   UNL     1       1.063   3.132  21.721  0.00  0.00    +0.000 F 
ATOM     28  F   UNL     1       1.666   1.922  20.019  0.00  0.00    +0.000 F 
ENDBRANCH  23  25
ENDBRANCH  15  18
ENDBRANCH   3  14
BRANCH   6  29
ATOM     29  O   UNL     1      -1.817  12.548  22.943  0.00  0.00    +0.000 OA
BRANCH  29  30
ATOM     30  C   UNL     1      -3.223  12.316  22.956  0.00  0.00    +0.000 C 
BRANCH  30  31
ATOM     31  C   UNL     1      -3.826  12.747  24.299  0.00  0.00    +0.000 C 
BRANCH  31  32
ATOM     32  N   UNL     1      -4.945  11.877  24.671  0.00  0.00    +0.000 NA
ATOM     33  H   UNL     1      -5.002  11.092  24.022  0.00  0.00    +0.000 HD
ATOM     34  H   UNL     1      -5.823  12.387  24.583  0.00  0.00    +0.000 HD
ENDBRANCH  31  32
ENDBRANCH  30  31
ENDBRANCH  29  30
ENDBRANCH   6  29
TORSDOF 8
ENDMDL
MODEL 3
REMARK VINA RESULT:      -8.2      5.227      9.596
REMARK  Name = 
REMARK  9 active torsions:
REMARK  status: ('A' for Active; 'I' for Inactive)
REMARK    1  A    between atoms: C_1  and  N_2
REMARK    2  A    between atoms: C_7  and  C_8
REMARK    3  A    between atoms: C_10  and  N_11
REMARK    4  A    between atoms: C_12  and  C_14
REMARK    5  A    between atoms: C_19  and  C_20
REMARK    6  A    between atoms: C_27  and  O_28
REMARK    7  A    between atoms: O_28  and  C_29
REMARK    8  A    between atoms: C_29  and  C_30
REMARK    9  A    between atoms: C_30  and  N_31
REMARK                            x       y       z     vdW  Elec       q    Type
REMARK                         _______ _______ _______ _____ _____    ______ ____
ROOT
ATOM      1  C   UNL     1       4.123   4.871  17.480  0.00  0.00    +0.000 A 
ATOM      2  C   UNL     1       3.617   6.180  17.605  0.00  0.00    +0.000 A 
ATOM      3  C   UNL     1       2.313   6.496  17.997  0.00  0.00    +0.000 A 
ATOM      4  C   UNL     1       1.413   5.448  18.130  0.00  0.00    +0.000 A 
ATOM      5  C   UNL     1       1.853   4.132  17.931  0.00  0.00    +0.000 A 
ATOM      6  C   UNL     1       3.205   3.820  17.659  0.00  0.00    +0.000 A 
ENDROOT
BRANCH   1  13
ATOM      7  C   UNL     1       6.664   5.395  19.370  0.00  0.00    +0.000 C 
ATOM      8  N   UNL     1       6.636   4.940  17.995  0.00  0.00    +0.000 N 
ATOM      9  N   UNL     1       7.840   4.664  17.433  0.00  0.00    +0.000 NA
ATOM     10  C   UNL     1       7.551   4.479  16.153  0.00  0.00    +0.000 A 
ATOM     11  C   UNL     1       6.175   4.583  15.892  0.00  0.00    +0.000 A 
ATOM     12 CL   UNL     1       5.502   4.498  14.336  0.00  0.00    +0.000 Cl
ATOM     13  C   UNL     1       5.559   4.759  17.123  0.00  0.00    +0.000 A 
ENDBRANCH   1  13
BRANCH   3  14
ATOM     14  N   UNL     1       1.897   7.827  18.282  0.00  0.00    +0.000 N 
ATOM     15  C   UNL     1       1.616   8.319  19.549  0.00  0.00    +0.000 C 
ATOM     16  O   UNL     1       1.785   7.737  20.613  0.00  0.00    +0.000 OA
ATOM     17  H   UNL     1       1.809   8.452  17.493  0.00  0.00    +0.000 HD
BRANCH  15  18
ATOM     18  C   UNL     1       1.063   9.690  19.664  0.00  0.00    +0.000 A 
ATOM     19  C   UNL     1       1.471  10.619  18.693  0.00  0.00    +0.000 A 
ATOM     20  C   UNL     1       1.114  11.958  18.806  0.00  0.00    +0.000 A 
ATOM     21  C   UNL     1       0.360  12.378  19.897  0.00  0.00    +0.000 A 
ATOM     22  F   UNL     1       0.055  13.677  19.988  0.00  0.00    +0.000 F 
ATOM     23  C   UNL     1      -0.049  11.481  20.887  0.00  0.00    +0.000 A 
ATOM     24  C   UNL     1       0.306  10.118  20.762  0.00  0.00    +0.000 A 
BRANCH  23  25
ATOM     25  C   UNL     1      -0.813  11.961  22.085  0.00  0.00    +0.000 C 
ATOM     26  F   UNL     1      -0.301  13.064  22.699  0.00  0.00    +0.000 F 
ATOM     27  F   UNL     1      -2.101  12.275  21.771  0.00  0.00    +0.000 F 
ATOM     28  F   UNL     1      -0.894  11.003  23.054  0.00  0.00    +0.000 F 
ENDBRANCH  23  25
ENDBRANCH  15  18
ENDBRANCH   3  14
BRANCH   6  29
ATOM     29  O   UNL     1       3.388   2.465  17.562  0.00  0.00    +0.000 OA
BRANCH  29  30
ATOM     30  C   UNL     1       3.288   1.649  18.726  0.00  0.00    +0.000 C 
BRANCH  30  31
ATOM     31  C   UNL     1       4.056   2.282  19.893  0.00  0.00    +0.000 C 
BRANCH  31  32
ATOM     32  N   UNL     1       5.248   1.496  20.220  0.00  0.00    +0.000 NA
ATOM     33  H   UNL     1       5.798   1.982  20.928  0.00  0.00    +0.000 HD
ATOM     34  H   UNL     1       5.845   1.414  19.398  0.00  0.00    +0.000 HD
ENDBRANCH  31  32
ENDBRANCH  30  31
ENDBRANCH  29  30
ENDBRANCH   6  29
TORSDOF 8
ENDMDL
MODEL 4
REMARK VINA RESULT:      -8.1      5.312      9.854
REMARK  Name = 
REMARK  9 active torsions:
REMARK  status: ('A' for Active; 'I' for Inactive)
REMARK    1  A    between atoms: C_1  and  N_2
REMARK    2  A    between atoms: C_7  and  C_8
REMARK    3  A    between atoms: C_10  and  N_11
REMARK    4  A    between atoms: C_12  and  C_14
REMARK    5  A    between atoms: C_19  and  C_20
REMARK    6  A    between atoms: C_27  and  O_28
REMARK    7  A    between atoms: O_28  and  C_29
REMARK    8  A    between atoms: C_29  and  C_30
REMARK    9  A    between atoms: C_30  and  N_31
REMARK                            x       y       z     vdW  Elec       q    Type
REMARK                         _______ _______ _______ _____ _____    ______ ____
ROOT
ATOM      1  C   UNL     1       2.989   5.223  18.382  0.00  0.00    +0.000 A 
ATOM      2  C   UNL     1       2.138   6.331  18.565  0.00  0.00    +0.000 A 
ATOM      3  C   UNL     1       2.383   7.615  18.068  0.00  0.00    +0.000 A 
ATOM      4  C   UNL     1       3.620   7.848  17.482  0.00  0.00    +0.000 A 
ATOM      5  C   UNL     1       4.533   6.792  17.356  0.00  0.00    +0.000 A 
ATOM      6  C   UNL     1       4.220   5.470  17.749  0.00  0.00    +0.000 A 
ENDROOT
BRANCH   1  13
ATOM      7  C   UNL     1       2.313   4.515  21.439  0.00  0.00    +0.000 C 
ATOM      8  N   UNL     1       2.164   3.683  20.263  0.00  0.00    +0.000 N 
ATOM      9  N   UNL     1       1.638   2.449  20.466  0.00  0.00    +0.000 NA
ATOM     10  C   UNL     1       1.803   1.843  19.300  0.00  0.00    +0.000 A 
ATOM     11  C   UNL     1       2.383   2.683  18.335  0.00  0.00    +0.000 A 
ATOM     12 CL   UNL     1       2.816   2.171  16.776  0.00  0.00    +0.000 Cl
ATOM     13  C   UNL     1       2.503   3.932  18.929  0.00  0.00    +0.000 A 
ENDBRANCH   1  13
BRANCH   3  14
ATOM     14  N   UNL     1       1.417   8.658  18.121  0.00  0.00    +0.000 N 
ATOM     15  C   UNL     1       0.927   9.231  19.286  0.00  0.00    +0.000 C 
ATOM     16  O   UNL     1       1.319   9.018  20.426  0.00  0.00    +0.000 OA
ATOM     17  H   UNL     1       1.074   9.001  17.234  0.00  0.00    +0.000 HD
BRANCH  15  18
ATOM     18  C   UNL     1      -0.178  10.214  19.175  0.00  0.00    +0.000 A 
ATOM     19  C   UNL     1      -0.193  11.256  20.116  0.00  0.00    +0.000 A 
ATOM     20  C   UNL     1      -1.267  12.138  20.174  0.00  0.00    +0.000 A 
ATOM     21  C   UNL     1      -2.336  11.974  19.300  0.00  0.00    +0.000 A 
ATOM     22  F   UNL     1      -3.364  12.824  19.398  0.00  0.00    +0.000 F 
ATOM     23  C   UNL     1      -2.358  10.939  18.362  0.00  0.00    +0.000 A 
ATOM     24  C   UNL     1      -1.258  10.052  18.299  0.00  0.00    +0.000 A 
BRANCH  23  25
ATOM     25  C   UNL     1      -3.544  10.743  17.465  0.00  0.00    +0.000 C 
ATOM     26  F   UNL     1      -3.867  11.812  16.685  0.00  0.00    +0.000 F 
ATOM     27  F   UNL     1      -3.365   9.698  16.609  0.00  0.00    +0.000 F 
ATOM     28  F   UNL     1      -4.674  10.449  18.173  0.00  0.00    +0.000 F 
ENDBRANCH  23  25
ENDBRANCH  15  18
ENDBRANCH   3  14
BRANCH   6  29
ATOM     29  O   UNL     1       5.255   4.616  17.472  0.00  0.00    +0.000 OA
BRANCH  29  30
ATOM     30  C   UNL     1       5.618   4.352  16.119  0.00  0.00    +0.000 C 
BRANCH  30  31
ATOM     31  C   UNL     1       7.133   4.503  15.931  0.00  0.00    +0.000 C 
BRANCH  31  32
ATOM     32  N   UNL     1       7.841   4.261  17.190  0.00  0.00    +0.000 NA
ATOM     33  H   UNL     1       8.347   3.376  17.136  0.00  0.00    +0.000 HD
ATOM     34  H   UNL     1       7.170   4.162  17.950  0.00  0.00    +0.000 HD
ENDBRANCH  31  32
ENDBRANCH  30  31
ENDBRANCH  29  30
ENDBRANCH   6  29
TORSDOF 8
ENDMDL
MODEL 5
REMARK VINA RESULT:      -8.1      2.924      4.080
REMARK  Name = 
REMARK  9 active torsions:
REMARK  status: ('A' for Active; 'I' for Inactive)
REMARK    1  A    between atoms: C_1  and  N_2
REMARK    2  A    between atoms: C_7  and  C_8
REMARK    3  A    between atoms: C_10  and  N_11
REMARK    4  A    between atoms: C_12  and  C_14
REMARK    5  A    between atoms: C_19  and  C_20
REMARK    6  A    between atoms: C_27  and  O_28
REMARK    7  A    between atoms: O_28  and  C_29
REMARK    8  A    between atoms: C_29  and  C_30
REMARK    9  A    between atoms: C_30  and  N_31
REMARK                            x       y       z     vdW  Elec       q    Type
REMARK                         _______ _______ _______ _____ _____    ______ ____
ROOT
ATOM      1  C   UNL     1      -1.055  11.466  18.231  0.00  0.00    +0.000 A 
ATOM      2  C   UNL     1      -0.437  10.202  18.146  0.00  0.00    +0.000 A 
ATOM      3  C   UNL     1       0.911   9.955  18.421  0.00  0.00    +0.000 A 
ATOM      4  C   UNL     1       1.729  11.052  18.651  0.00  0.00    +0.000 A 
ATOM      5  C   UNL     1       1.171  12.338  18.660  0.00  0.00    +0.000 A 
ATOM      6  C   UNL     1      -0.217  12.562  18.505  0.00  0.00    +0.000 A 
ENDROOT
BRANCH   1  13
ATOM      7  C   UNL     1      -3.389  12.422  20.216  0.00  0.00    +0.000 C 
ATOM      8  N   UNL     1      -3.495  11.976  18.842  0.00  0.00    +0.000 N 
ATOM      9  N   UNL     1      -4.740  11.992  18.304  0.00  0.00    +0.000 NA
ATOM     10  C   UNL     1      -4.589  11.358  17.150  0.00  0.00    +0.000 A 
ATOM     11  C   UNL     1      -3.258  10.977  16.916  0.00  0.00    +0.000 A 
ATOM     12 CL   UNL     1      -2.760  10.060  15.577  0.00  0.00    +0.000 Cl
ATOM     13  C   UNL     1      -2.516  11.496  17.968  0.00  0.00    +0.000 A 
ENDBRANCH   1  13
BRANCH   3  14
ATOM     14  N   UNL     1       1.451   8.641  18.497  0.00  0.00    +0.000 N 
ATOM     15  C   UNL     1       1.748   7.968  19.674  0.00  0.00    +0.000 C 
ATOM     16  O   UNL     1       1.494   8.341  20.813  0.00  0.00    +0.000 OA
ATOM     17  H   UNL     1       1.622   8.171  17.618  0.00  0.00    +0.000 HD
BRANCH  15  18
ATOM     18  C   UNL     1       2.434   6.657  19.581  0.00  0.00    +0.000 A 
ATOM     19  C   UNL     1       3.427   6.533  18.596  0.00  0.00    +0.000 A 
ATOM     20  C   UNL     1       4.020   5.300  18.345  0.00  0.00    +0.000 A 
ATOM     21  C   UNL     1       3.612   4.183  19.068  0.00  0.00    +0.000 A 
ATOM     22  F   UNL     1       4.185   3.008  18.785  0.00  0.00    +0.000 F 
ATOM     23  C   UNL     1       2.617   4.272  20.044  0.00  0.00    +0.000 A 
ATOM     24  C   UNL     1       2.026   5.529  20.304  0.00  0.00    +0.000 A 
BRANCH  23  25
ATOM     25  C   UNL     1       2.151   3.047  20.774  0.00  0.00    +0.000 C 
ATOM     26  F   UNL     1       1.731   2.022  19.982  0.00  0.00    +0.000 F 
ATOM     27  F   UNL     1       3.130   2.527  21.566  0.00  0.00    +0.000 F 
ATOM     28  F   UNL     1       1.107   3.319  21.610  0.00  0.00    +0.000 F 
ENDBRANCH  23  25
ENDBRANCH  15  18
ENDBRANCH   3  14
BRANCH   6  29
ATOM     29  O   UNL     1      -0.515  13.895  18.607  0.00  0.00    +0.000 OA
BRANCH  29  30
ATOM     30  C   UNL     1       0.504  14.828  18.956  0.00  0.00    +0.000 C 
BRANCH  30  31
ATOM     31  C   UNL     1      -0.110  16.190  19.303  0.00  0.00    +0.000 C 
BRANCH  31  32
ATOM     32  N   UNL     1      -0.788  16.767  18.139  0.00  0.00    +0.000 NA
ATOM     33  H   UNL     1      -1.156  17.688  18.377  0.00  0.00    +0.000 HD
ATOM     34  H   UNL     1      -1.592  16.193  17.888  0.00  0.00    +0.000 HD
ENDBRANCH  31  32
ENDBRANCH  30  31
ENDBRANCH  29  30
ENDBRANCH   6  29
TORSDOF 8
ENDMDL
MODEL 6
REMARK VINA RESULT:      -8.1      3.046      3.987
REMARK  Name = 
REMARK  9 active torsions:
REMARK  status: ('A' for Active; 'I' for Inactive)
REMARK    1  A    between atoms: C_1  and  N_2
REMARK    2  A    between atoms: C_7  and  C_8
REMARK    3  A    between atoms: C_10  and  N_11
REMARK    4  A    between atoms: C_12  and  C_14
REMARK    5  A    between atoms: C_19  and  C_20
REMARK    6  A    between atoms: C_27  and  O_28
REMARK    7  A    between atoms: O_28  and  C_29
REMARK    8  A    between atoms: C_29  and  C_30
REMARK    9  A    between atoms: C_30  and  N_31
REMARK                            x       y       z     vdW  Elec       q    Type
REMARK                         _______ _______ _______ _____ _____    ______ ____
ROOT
ATOM      1  C   UNL     1      -1.081  11.427  18.312  0.00  0.00    +0.000 A 
ATOM      2  C   UNL     1      -0.461  10.168  18.188  0.00  0.00    +0.000 A 
ATOM      3  C   UNL     1       0.898   9.924  18.406  0.00  0.00    +0.000 A 
ATOM      4  C   UNL     1       1.720  11.023  18.614  0.00  0.00    +0.000 A 
ATOM      5  C   UNL     1       1.157  12.306  18.659  0.00  0.00    +0.000 A 
ATOM      6  C   UNL     1      -0.237  12.524  18.563  0.00  0.00    +0.000 A 
ENDROOT
BRANCH   1  13
ATOM      7  C   UNL     1      -2.703  10.775  15.619  0.00  0.00    +0.000 C 
ATOM      8  N   UNL     1      -3.221  11.103  16.932  0.00  0.00    +0.000 N 
ATOM      9  N   UNL     1      -4.572  11.105  17.058  0.00  0.00    +0.000 NA
ATOM     10  C   UNL     1      -4.773  11.626  18.259  0.00  0.00    +0.000 A 
ATOM     11  C   UNL     1      -3.571  11.913  18.928  0.00  0.00    +0.000 A 
ATOM     12 CL   UNL     1      -3.494  12.681  20.440  0.00  0.00    +0.000 Cl
ATOM     13  C   UNL     1      -2.551  11.452  18.109  0.00  0.00    +0.000 A 
ENDBRANCH   1  13
BRANCH   3  14
ATOM     14  N   UNL     1       1.447   8.612  18.446  0.00  0.00    +0.000 N 
ATOM     15  C   UNL     1       1.760   7.915  19.605  0.00  0.00    +0.000 C 
ATOM     16  O   UNL     1       1.515   8.260  20.754  0.00  0.00    +0.000 OA
ATOM     17  H   UNL     1       1.612   8.163  17.556  0.00  0.00    +0.000 HD
BRANCH  15  18
ATOM     18  C   UNL     1       2.453   6.610  19.475  0.00  0.00    +0.000 A 
ATOM     19  C   UNL     1       3.324   6.464  18.383  0.00  0.00    +0.000 A 
ATOM     20  C   UNL     1       3.904   5.231  18.105  0.00  0.00    +0.000 A 
ATOM     21  C   UNL     1       3.605   4.135  18.909  0.00  0.00    +0.000 A 
ATOM     22  F   UNL     1       4.161   2.959  18.599  0.00  0.00    +0.000 F 
ATOM     23  C   UNL     1       2.732   4.245  19.993  0.00  0.00    +0.000 A 
ATOM     24  C   UNL     1       2.154   5.503  20.279  0.00  0.00    +0.000 A 
BRANCH  23  25
ATOM     25  C   UNL     1       2.377   3.041  20.814  0.00  0.00    +0.000 C 
ATOM     26  F   UNL     1       3.427   2.422  21.423  0.00  0.00    +0.000 F 
ATOM     27  F   UNL     1       1.500   3.349  21.811  0.00  0.00    +0.000 F 
ATOM     28  F   UNL     1       1.763   2.078  20.068  0.00  0.00    +0.000 F 
ENDBRANCH  23  25
ENDBRANCH  15  18
ENDBRANCH   3  14
BRANCH   6  29
ATOM     29  O   UNL     1      -0.537  13.855  18.691  0.00  0.00    +0.000 OA
BRANCH  29  30
ATOM     30  C   UNL     1       0.506  14.803  18.902  0.00  0.00    +0.000 C 
BRANCH  30  31
ATOM     31  C   UNL     1      -0.079  16.170  19.278  0.00  0.00    +0.000 C 
BRANCH  31  32
ATOM     32  N   UNL     1      -0.765  16.775  18.133  0.00  0.00    +0.000 NA
ATOM     33  H   UNL     1      -1.672  16.328  17.999  0.00  0.00    +0.000 HD
ATOM     34  H   UNL     1      -0.232  16.605  17.282  0.00  0.00    +0.000 HD
ENDBRANCH  31  32
ENDBRANCH  30  31
ENDBRANCH  29  30
ENDBRANCH   6  29
TORSDOF 8
ENDMDL
MODEL 7
REMARK VINA RESULT:      -8.0      3.051      4.053
REMARK  Name = 
REMARK  9 active torsions:
REMARK  status: ('A' for Active; 'I' for Inactive)
REMARK    1  A    between atoms: C_1  and  N_2
REMARK    2  A    between atoms: C_7  and  C_8
REMARK    3  A    between atoms: C_10  and  N_11
REMARK    4  A    between atoms: C_12  and  C_14
REMARK    5  A    between atoms: C_19  and  C_20
REMARK    6  A    between atoms: C_27  and  O_28
REMARK    7  A    between atoms: O_28  and  C_29
REMARK    8  A    between atoms: C_29  and  C_30
REMARK    9  A    between atoms: C_30  and  N_31
REMARK                            x       y       z     vdW  Elec       q    Type
REMARK                         _______ _______ _______ _____ _____    ______ ____
ROOT
ATOM      1  C   UNL     1      -1.081  11.582  18.353  0.00  0.00    +0.000 A 
ATOM      2  C   UNL     1      -0.425  10.336  18.394  0.00  0.00    +0.000 A 
ATOM      3  C   UNL     1       0.929  10.157  18.690  0.00  0.00    +0.000 A 
ATOM      4  C   UNL     1       1.713  11.296  18.807  0.00  0.00    +0.000 A 
ATOM      5  C   UNL     1       1.117  12.560  18.688  0.00  0.00    +0.000 A 
ATOM      6  C   UNL     1      -0.277  12.725  18.515  0.00  0.00    +0.000 A 
ENDROOT
BRANCH   1  13
ATOM      7  C   UNL     1      -3.452  12.551  20.289  0.00  0.00    +0.000 C 
ATOM      8  N   UNL     1      -3.540  12.029  18.941  0.00  0.00    +0.000 N 
ATOM      9  N   UNL     1      -4.784  11.969  18.404  0.00  0.00    +0.000 NA
ATOM     10  C   UNL     1      -4.608  11.281  17.285  0.00  0.00    +0.000 A 
ATOM     11  C   UNL     1      -3.263  10.940  17.069  0.00  0.00    +0.000 A 
ATOM     12 CL   UNL     1      -2.730   9.974  15.779  0.00  0.00    +0.000 Cl
ATOM     13  C   UNL     1      -2.542  11.541  18.092  0.00  0.00    +0.000 A 
ENDBRANCH   1  13
BRANCH   3  14
ATOM     14  N   UNL     1       1.509   8.874  18.896  0.00  0.00    +0.000 N 
ATOM     15  C   UNL     1       2.346   8.225  18.000  0.00  0.00    +0.000 C 
ATOM     16  O   UNL     1       2.803   8.687  16.961  0.00  0.00    +0.000 OA
ATOM     17  H   UNL     1       1.290   8.415  19.770  0.00  0.00    +0.000 HD
BRANCH  15  18
ATOM     18  C   UNL     1       2.758   6.833  18.304  0.00  0.00    +0.000 A 
ATOM     19  C   UNL     1       3.926   6.370  17.677  0.00  0.00    +0.000 A 
ATOM     20  C   UNL     1       4.306   5.037  17.793  0.00  0.00    +0.000 A 
ATOM     21  C   UNL     1       3.513   4.159  18.525  0.00  0.00    +0.000 A 
ATOM     22  F   UNL     1       3.893   2.879  18.597  0.00  0.00    +0.000 F 
ATOM     23  C   UNL     1       2.338   4.587  19.148  0.00  0.00    +0.000 A 
ATOM     24  C   UNL     1       1.962   5.945  19.037  0.00  0.00    +0.000 A 
BRANCH  23  25
ATOM     25  C   UNL     1       1.466   3.614  19.886  0.00  0.00    +0.000 C 
ATOM     26  F   UNL     1       2.091   2.894  20.859  0.00  0.00    +0.000 F 
ATOM     27  F   UNL     1       0.420   4.237  20.498  0.00  0.00    +0.000 F 
ATOM     28  F   UNL     1       0.907   2.694  19.047  0.00  0.00    +0.000 F 
ENDBRANCH  23  25
ENDBRANCH  15  18
ENDBRANCH   3  14
BRANCH   6  29
ATOM     29  O   UNL     1      -0.615  14.052  18.483  0.00  0.00    +0.000 OA
BRANCH  29  30
ATOM     30  C   UNL     1       0.138  14.997  19.239  0.00  0.00    +0.000 C 
BRANCH  30  31
ATOM     31  C   UNL     1      -0.626  16.322  19.356  0.00  0.00    +0.000 C 
BRANCH  31  32
ATOM     32  N   UNL     1      -1.997  16.094  19.820  0.00  0.00    +0.000 NA
ATOM     33  H   UNL     1      -2.617  15.980  19.019  0.00  0.00    +0.000 HD
ATOM     34  H   UNL     1      -2.330  16.913  20.328  0.00  0.00    +0.000 HD
ENDBRANCH  31  32
ENDBRANCH  30  31
ENDBRANCH  29  30
ENDBRANCH   6  29
TORSDOF 8
ENDMDL
MODEL 8
REMARK VINA RESULT:      -8.0      5.291      9.869
REMARK  Name = 
REMARK  9 active torsions:
REMARK  status: ('A' for Active; 'I' for Inactive)
REMARK    1  A    between atoms: C_1  and  N_2
REMARK    2  A    between atoms: C_7  and  C_8
REMARK    3  A    between atoms: C_10  and  N_11
REMARK    4  A    between atoms: C_12  and  C_14
REMARK    5  A    between atoms: C_19  and  C_20
REMARK    6  A    between atoms: C_27  and  O_28
REMARK    7  A    between atoms: O_28  and  C_29
REMARK    8  A    between atoms: C_29  and  C_30
REMARK    9  A    between atoms: C_30  and  N_31
REMARK                            x       y       z     vdW  Elec       q    Type
REMARK                         _______ _______ _______ _____ _____    ______ ____
ROOT
ATOM      1  C   UNL     1       3.340   5.322  18.357  0.00  0.00    +0.000 A 
ATOM      2  C   UNL     1       2.380   6.353  18.396  0.00  0.00    +0.000 A 
ATOM      3  C   UNL     1       2.557   7.628  17.850  0.00  0.00    +0.000 A 
ATOM      4  C   UNL     1       3.819   7.947  17.368  0.00  0.00    +0.000 A 
ATOM      5  C   UNL     1       4.831   6.977  17.388  0.00  0.00    +0.000 A 
ATOM      6  C   UNL     1       4.600   5.653  17.827  0.00  0.00    +0.000 A 
ENDROOT
BRANCH   1  13
ATOM      7  C   UNL     1       2.841   2.559  16.801  0.00  0.00    +0.000 C 
ATOM      8  N   UNL     1       2.771   2.823  18.224  0.00  0.00    +0.000 N 
ATOM      9  N   UNL     1       2.489   1.758  19.015  0.00  0.00    +0.000 NA
ATOM     10  C   UNL     1       2.282   2.300  20.206  0.00  0.00    +0.000 A 
ATOM     11  C   UNL     1       2.474   3.691  20.204  0.00  0.00    +0.000 A 
ATOM     12 CL   UNL     1       2.186   4.686  21.549  0.00  0.00    +0.000 Cl
ATOM     13  C   UNL     1       2.920   4.019  18.931  0.00  0.00    +0.000 A 
ENDBRANCH   1  13
BRANCH   3  14
ATOM     14  N   UNL     1       1.501   8.576  17.753  0.00  0.00    +0.000 N 
ATOM     15  C   UNL     1       0.934   9.249  18.826  0.00  0.00    +0.000 C 
ATOM     16  O   UNL     1       1.316   9.223  19.990  0.00  0.00    +0.000 OA
ATOM     17  H   UNL     1       1.151   8.769  16.825  0.00  0.00    +0.000 HD
BRANCH  15  18
ATOM     18  C   UNL     1      -0.251  10.105  18.573  0.00  0.00    +0.000 A 
ATOM     19  C   UNL     1      -0.631  10.978  19.605  0.00  0.00    +0.000 A 
ATOM     20  C   UNL     1      -1.808  11.711  19.509  0.00  0.00    +0.000 A 
ATOM     21  C   UNL     1      -2.618  11.565  18.387  0.00  0.00    +0.000 A 
ATOM     22  F   UNL     1      -3.756  12.266  18.337  0.00  0.00    +0.000 F 
ATOM     23  C   UNL     1      -2.275  10.693  17.351  0.00  0.00    +0.000 A 
ATOM     24  C   UNL     1      -1.071   9.959  17.447  0.00  0.00    +0.000 A 
BRANCH  23  25
ATOM     25  C   UNL     1      -3.187  10.506  16.175  0.00  0.00    +0.000 C 
ATOM     26  F   UNL     1      -4.519  10.544  16.460  0.00  0.00    +0.000 F 
ATOM     27  F   UNL     1      -2.984  11.457  15.220  0.00  0.00    +0.000 F 
ATOM     28  F   UNL     1      -2.977   9.309  15.554  0.00  0.00    +0.000 F 
ENDBRANCH  23  25
ENDBRANCH  15  18
ENDBRANCH   3  14
BRANCH   6  29
ATOM     29  O   UNL     1       5.729   4.887  17.696  0.00  0.00    +0.000 OA
BRANCH  29  30
ATOM     30  C   UNL     1       6.790   5.322  16.850  0.00  0.00    +0.000 C 
BRANCH  30  31
ATOM     31  C   UNL     1       6.730   4.600  15.498  0.00  0.00    +0.000 C 
BRANCH  31  32
ATOM     32  N   UNL     1       7.519   5.313  14.491  0.00  0.00    +0.000 NA
ATOM     33  H   UNL     1       7.816   4.663  13.763  0.00  0.00    +0.000 HD
ATOM     34  H   UNL     1       8.370   5.679  14.914  0.00  0.00    +0.000 HD
ENDBRANCH  31  32
ENDBRANCH  30  31
ENDBRANCH  29  30
ENDBRANCH   6  29
TORSDOF 8
ENDMDL
MODEL 9
REMARK VINA RESULT:      -8.0      1.059      2.220
REMARK  Name = 
REMARK  9 active torsions:
REMARK  status: ('A' for Active; 'I' for Inactive)
REMARK    1  A    between atoms: C_1  and  N_2
REMARK    2  A    between atoms: C_7  and  C_8
REMARK    3  A    between atoms: C_10  and  N_11
REMARK    4  A    between atoms: C_12  and  C_14
REMARK    5  A    between atoms: C_19  and  C_20
REMARK    6  A    between atoms: C_27  and  O_28
REMARK    7  A    between atoms: O_28  and  C_29
REMARK    8  A    between atoms: C_29  and  C_30
REMARK    9  A    between atoms: C_30  and  N_31
REMARK                            x       y       z     vdW  Elec       q    Type
REMARK                         _______ _______ _______ _____ _____    ______ ____
ROOT
ATOM      1  C   UNL     1       0.047  11.432  21.162  0.00  0.00    +0.000 A 
ATOM      2  C   UNL     1       0.830  10.286  20.915  0.00  0.00    +0.000 A 
ATOM      3  C   UNL     1       0.774   9.107  21.665  0.00  0.00    +0.000 A 
ATOM      4  C   UNL     1       0.002   9.119  22.818  0.00  0.00    +0.000 A 
ATOM      5  C   UNL     1      -0.728  10.269  23.148  0.00  0.00    +0.000 A 
ATOM      6  C   UNL     1      -0.761  11.410  22.313  0.00  0.00    +0.000 A 
ENDROOT
BRANCH   1  13
ATOM      7  C   UNL     1      -1.759  12.088  18.590  0.00  0.00    +0.000 C 
ATOM      8  N   UNL     1      -0.637  12.834  19.123  0.00  0.00    +0.000 N 
ATOM      9  N   UNL     1      -0.322  13.982  18.474  0.00  0.00    +0.000 NA
ATOM     10  C   UNL     1       0.830  14.343  19.020  0.00  0.00    +0.000 A 
ATOM     11  C   UNL     1       1.236  13.470  20.044  0.00  0.00    +0.000 A 
ATOM     12 CL   UNL     1       2.716  13.603  20.865  0.00  0.00    +0.000 Cl
ATOM     13  C   UNL     1       0.209  12.550  20.199  0.00  0.00    +0.000 A 
ENDBRANCH   1  13
BRANCH   3  14
ATOM     14  N   UNL     1       1.448   7.916  21.275  0.00  0.00    +0.000 N 
ATOM     15  C   UNL     1       1.886   7.633  19.989  0.00  0.00    +0.000 C 
ATOM     16  O   UNL     1       1.868   8.391  19.028  0.00  0.00    +0.000 OA
ATOM     17  H   UNL     1       1.618   7.235  22.002  0.00  0.00    +0.000 HD
BRANCH  15  18
ATOM     18  C   UNL     1       2.451   6.289  19.719  0.00  0.00    +0.000 A 
ATOM     19  C   UNL     1       2.083   5.261  20.602  0.00  0.00    +0.000 A 
ATOM     20  C   UNL     1       2.675   4.006  20.507  0.00  0.00    +0.000 A 
ATOM     21  C   UNL     1       3.647   3.777  19.539  0.00  0.00    +0.000 A 
ATOM     22  F   UNL     1       4.214   2.567  19.490  0.00  0.00    +0.000 F 
ATOM     23  C   UNL     1       4.044   4.783  18.655  0.00  0.00    +0.000 A 
ATOM     24  C   UNL     1       3.431   6.054  18.747  0.00  0.00    +0.000 A 
BRANCH  23  25
ATOM     25  C   UNL     1       5.133   4.536  17.654  0.00  0.00    +0.000 C 
ATOM     26  F   UNL     1       4.900   3.516  16.781  0.00  0.00    +0.000 F 
ATOM     27  F   UNL     1       5.373   5.635  16.885  0.00  0.00    +0.000 F 
ATOM     28  F   UNL     1       6.322   4.241  18.257  0.00  0.00    +0.000 F 
ENDBRANCH  23  25
ENDBRANCH  15  18
ENDBRANCH   3  14
BRANCH   6  29
ATOM     29  O   UNL     1      -1.587  12.374  22.828  0.00  0.00    +0.000 OA
BRANCH  29  30
ATOM     30  C   UNL     1      -2.853  12.010  23.373  0.00  0.00    +0.000 C 
BRANCH  30  31
ATOM     31  C   UNL     1      -3.474  13.193  24.125  0.00  0.00    +0.000 C 
BRANCH  31  32
ATOM     32  N   UNL     1      -4.553  12.741  25.007  0.00  0.00    +0.000 NA
ATOM     33  H   UNL     1      -4.785  13.477  25.674  0.00  0.00    +0.000 HD
ATOM     34  H   UNL     1      -4.238  11.943  25.557  0.00  0.00    +0.000 HD
ENDBRANCH  31  32
ENDBRANCH  30  31
ENDBRANCH  29  30
ENDBRANCH   6  29
TORSDOF 8
ENDMDL
