MODEL 1
REMARK VINA RESULT:      -8.1      0.000      0.000
REMARK  Name = 
REMARK  2 active torsions:
REMARK  status: ('A' for Active; 'I' for Inactive)
REMARK    1  A    between atoms: C_1  and  N_2
REMARK    2  A    between atoms: N_5  and  C_6
REMARK                            x       y       z     vdW  Elec       q    Type
REMARK                         _______ _______ _______ _____ _____    ______ ____
ROOT
ATOM      1  C   UNL     1       3.055   6.655  18.621  0.00  0.00    +0.000 C 
ATOM      2  C   UNL     1       3.941   6.918  17.638  0.00  0.00    +0.000 C 
ATOM      3  C   UNL     1       4.902   6.011  16.987  0.00  0.00    +0.000 A 
ATOM      4  C   UNL     1       5.203   6.234  15.633  0.00  0.00    +0.000 A 
ATOM      5  C   UNL     1       6.128   5.432  14.962  0.00  0.00    +0.000 A 
ATOM      6  C   UNL     1       6.769   4.402  15.637  0.00  0.00    +0.000 A 
ATOM      7  C   UNL     1       6.499   4.181  16.987  0.00  0.00    +0.000 A 
ATOM      8  C   UNL     1       5.576   4.989  17.676  0.00  0.00    +0.000 A 
ATOM      9  C   UNL     1       5.342   4.768  19.150  0.00  0.00    +0.000 C 
ATOM     10  C   UNL     1       3.915   4.397  19.466  0.00  0.00    +0.000 A 
ATOM     11  C   UNL     1       3.640   3.133  20.024  0.00  0.00    +0.000 A 
ATOM     12  C   UNL     1       2.337   2.760  20.353  0.00  0.00    +0.000 A 
ATOM     13  C   UNL     1       1.293   3.647  20.130  0.00  0.00    +0.000 A 
ATOM     14  C   UNL     1       1.553   4.896  19.566  0.00  0.00    +0.000 A 
ATOM     15  C   UNL     1       2.861   5.297  19.219  0.00  0.00    +0.000 A 
ENDROOT
BRANCH   1  20
ATOM     16  C   UNL     1       0.726  11.299  20.690  0.00  0.00    +0.000 C 
ATOM     17  N   UNL     1       0.745   9.950  20.135  0.00  0.00    +0.000 NA
ATOM     18  C   UNL     1       1.502   9.030  21.017  0.00  0.00    +0.000 C 
ATOM     19  C   UNL     1       1.592   7.594  20.445  0.00  0.00    +0.000 C 
ATOM     20  N   UNL     1       2.180   7.634  19.096  0.00  0.00    +0.000 N 
ATOM     21  C   UNL     1       1.456   8.532  18.178  0.00  0.00    +0.000 C 
ATOM     22  C   UNL     1       1.361   9.949  18.787  0.00  0.00    +0.000 C 
ENDBRANCH   1  20
TORSDOF 1
ENDMDL
MODEL 2
REMARK VINA RESULT:      -8.0      0.753      1.282
REMARK  Name = 
REMARK  2 active torsions:
REMARK  status: ('A' for Active; 'I' for Inactive)
REMARK    1  A    between atoms: C_1  and  N_2
REMARK    2  A    between atoms: N_5  and  C_6
REMARK                            x       y       z     vdW  Elec       q    Type
REMARK                         _______ _______ _______ _____ _____    ______ ____
ROOT
ATOM      1  C   UNL     1       3.066   6.975  18.447  0.00  0.00    +0.000 C 
ATOM      2  C   UNL     1       3.956   7.077  17.439  0.00  0.00    +0.000 C 
ATOM      3  C   UNL     1       4.840   6.043  16.873  0.00  0.00    +0.000 A 
ATOM      4  C   UNL     1       5.140   6.113  15.503  0.00  0.00    +0.000 A 
ATOM      5  C   UNL     1       5.995   5.184  14.906  0.00  0.00    +0.000 A 
ATOM      6  C   UNL     1       6.566   4.177  15.673  0.00  0.00    +0.000 A 
ATOM      7  C   UNL     1       6.296   4.106  17.039  0.00  0.00    +0.000 A 
ATOM      8  C   UNL     1       5.444   5.043  17.653  0.00  0.00    +0.000 A 
ATOM      9  C   UNL     1       5.213   4.980  19.142  0.00  0.00    +0.000 C 
ATOM     10  C   UNL     1       3.766   4.750  19.500  0.00  0.00    +0.000 A 
ATOM     11  C   UNL     1       3.405   3.568  20.177  0.00  0.00    +0.000 A 
ATOM     12  C   UNL     1       2.083   3.327  20.547  0.00  0.00    +0.000 A 
ATOM     13  C   UNL     1       1.104   4.264  20.246  0.00  0.00    +0.000 A 
ATOM     14  C   UNL     1       1.450   5.431  19.565  0.00  0.00    +0.000 A 
ATOM     15  C   UNL     1       2.778   5.698  19.173  0.00  0.00    +0.000 A 
ENDROOT
BRANCH   1  20
ATOM     16  C   UNL     1      -1.151  10.434  19.686  0.00  0.00    +0.000 C 
ATOM     17  N   UNL     1       0.244  10.024  19.554  0.00  0.00    +0.000 NA
ATOM     18  C   UNL     1       0.567   9.706  18.143  0.00  0.00    +0.000 C 
ATOM     19  C   UNL     1       2.025   9.218  17.960  0.00  0.00    +0.000 C 
ATOM     20  N   UNL     1       2.272   8.058  18.832  0.00  0.00    +0.000 N 
ATOM     21  C   UNL     1       1.971   8.327  20.250  0.00  0.00    +0.000 C 
ATOM     22  C   UNL     1       0.519   8.836  20.397  0.00  0.00    +0.000 C 
ENDBRANCH   1  20
TORSDOF 1
ENDMDL
MODEL 3
REMARK VINA RESULT:      -7.9      3.106      4.937
REMARK  Name = 
REMARK  2 active torsions:
REMARK  status: ('A' for Active; 'I' for Inactive)
REMARK    1  A    between atoms: C_1  and  N_2
REMARK    2  A    between atoms: N_5  and  C_6
REMARK                            x       y       z     vdW  Elec       q    Type
REMARK                         _______ _______ _______ _____ _____    ______ ____
ROOT
ATOM      1  C   UNL     1       4.585   4.307  16.821  0.00  0.00    +0.000 C 
ATOM      2  C   UNL     1       4.592   3.966  15.516  0.00  0.00    +0.000 C 
ATOM      3  C   UNL     1       5.617   4.233  14.492  0.00  0.00    +0.000 A 
ATOM      4  C   UNL     1       5.790   3.283  13.472  0.00  0.00    +0.000 A 
ATOM      5  C   UNL     1       6.722   3.486  12.452  0.00  0.00    +0.000 A 
ATOM      6  C   UNL     1       7.487   4.643  12.435  0.00  0.00    +0.000 A 
ATOM      7  C   UNL     1       7.313   5.607  13.427  0.00  0.00    +0.000 A 
ATOM      8  C   UNL     1       6.369   5.418  14.454  0.00  0.00    +0.000 A 
ATOM      9  C   UNL     1       6.158   6.500  15.484  0.00  0.00    +0.000 C 
ATOM     10  C   UNL     1       6.467   6.041  16.887  0.00  0.00    +0.000 A 
ATOM     11  C   UNL     1       7.522   6.651  17.594  0.00  0.00    +0.000 A 
ATOM     12  C   UNL     1       7.825   6.273  18.901  0.00  0.00    +0.000 A 
ATOM     13  C   UNL     1       7.078   5.279  19.519  0.00  0.00    +0.000 A 
ATOM     14  C   UNL     1       6.040   4.660  18.822  0.00  0.00    +0.000 A 
ATOM     15  C   UNL     1       5.715   5.019  17.497  0.00  0.00    +0.000 A 
ENDROOT
BRANCH   1  20
ATOM     16  C   UNL     1       1.354   3.019  21.200  0.00  0.00    +0.000 C 
ATOM     17  N   UNL     1       1.667   3.237  19.792  0.00  0.00    +0.000 NA
ATOM     18  C   UNL     1       2.727   2.305  19.338  0.00  0.00    +0.000 C 
ATOM     19  C   UNL     1       3.128   2.532  17.860  0.00  0.00    +0.000 C 
ATOM     20  N   UNL     1       3.540   3.932  17.668  0.00  0.00    +0.000 N 
ATOM     21  C   UNL     1       2.513   4.900  18.098  0.00  0.00    +0.000 C 
ATOM     22  C   UNL     1       2.116   4.632  19.568  0.00  0.00    +0.000 C 
ENDBRANCH   1  20
TORSDOF 1
ENDMDL
MODEL 4
REMARK VINA RESULT:      -7.9      6.250      8.482
REMARK  Name = 
REMARK  2 active torsions:
REMARK  status: ('A' for Active; 'I' for Inactive)
REMARK    1  A    between atoms: C_1  and  N_2
REMARK    2  A    between atoms: N_5  and  C_6
REMARK                            x       y       z     vdW  Elec       q    Type
REMARK                         _______ _______ _______ _____ _____    ______ ____
ROOT
ATOM      1  C   UNL     1      -1.950  12.490  21.057  0.00  0.00    +0.000 C 
ATOM      2  C   UNL     1      -2.625  12.567  19.892  0.00  0.00    +0.000 C 
ATOM      3  C   UNL     1      -2.648  11.615  18.767  0.00  0.00    +0.000 A 
ATOM      4  C   UNL     1      -3.836  11.500  18.028  0.00  0.00    +0.000 A 
ATOM      5  C   UNL     1      -3.919  10.641  16.930  0.00  0.00    +0.000 A 
ATOM      6  C   UNL     1      -2.813   9.891  16.554  0.00  0.00    +0.000 A 
ATOM      7  C   UNL     1      -1.618  10.010  17.264  0.00  0.00    +0.000 A 
ATOM      8  C   UNL     1      -1.521  10.880  18.365  0.00  0.00    +0.000 A 
ATOM      9  C   UNL     1      -0.202  11.035  19.082  0.00  0.00    +0.000 C 
ATOM     10  C   UNL     1      -0.274  10.628  20.532  0.00  0.00    +0.000 A 
ATOM     11  C   UNL     1       0.495   9.535  20.979  0.00  0.00    +0.000 A 
ATOM     12  C   UNL     1       0.476   9.141  22.316  0.00  0.00    +0.000 A 
ATOM     13  C   UNL     1      -0.312   9.834  23.225  0.00  0.00    +0.000 A 
ATOM     14  C   UNL     1      -1.087  10.909  22.789  0.00  0.00    +0.000 A 
ATOM     15  C   UNL     1      -1.091  11.325  21.442  0.00  0.00    +0.000 A 
ENDROOT
BRANCH   1  20
ATOM     16  C   UNL     1      -1.921  15.434  25.812  0.00  0.00    +0.000 C 
ATOM     17  N   UNL     1      -2.142  15.201  24.388  0.00  0.00    +0.000 NA
ATOM     18  C   UNL     1      -3.131  14.117  24.180  0.00  0.00    +0.000 C 
ATOM     19  C   UNL     1      -3.362  13.800  22.682  0.00  0.00    +0.000 C 
ATOM     20  N   UNL     1      -2.078  13.472  22.041  0.00  0.00    +0.000 N 
ATOM     21  C   UNL     1      -1.061  14.526  22.215  0.00  0.00    +0.000 C 
ATOM     22  C   UNL     1      -0.871  14.838  23.716  0.00  0.00    +0.000 C 
ENDBRANCH   1  20
TORSDOF 1
ENDMDL
MODEL 5
REMARK VINA RESULT:      -7.4      6.014      8.404
REMARK  Name = 
REMARK  2 active torsions:
REMARK  status: ('A' for Active; 'I' for Inactive)
REMARK    1  A    between atoms: C_1  and  N_2
REMARK    2  A    between atoms: N_5  and  C_6
REMARK                            x       y       z     vdW  Elec       q    Type
REMARK                         _______ _______ _______ _____ _____    ______ ____
ROOT
ATOM      1  C   UNL     1      -1.758  12.288  21.262  0.00  0.00    +0.000 C 
ATOM      2  C   UNL     1      -2.478  12.431  20.131  0.00  0.00    +0.000 C 
ATOM      3  C   UNL     1      -2.539  11.550  18.951  0.00  0.00    +0.000 A 
ATOM      4  C   UNL     1      -3.754  11.471  18.251  0.00  0.00    +0.000 A 
ATOM      5  C   UNL     1      -3.873  10.680  17.107  0.00  0.00    +0.000 A 
ATOM      6  C   UNL     1      -2.778   9.964  16.643  0.00  0.00    +0.000 A 
ATOM      7  C   UNL     1      -1.558  10.049  17.313  0.00  0.00    +0.000 A 
ATOM      8  C   UNL     1      -1.423  10.851  18.461  0.00  0.00    +0.000 A 
ATOM      9  C   UNL     1      -0.079  10.972  19.135  0.00  0.00    +0.000 C 
ATOM     10  C   UNL     1      -0.092  10.476  20.560  0.00  0.00    +0.000 A 
ATOM     11  C   UNL     1       0.700   9.364  20.908  0.00  0.00    +0.000 A 
ATOM     12  C   UNL     1       0.735   8.889  22.218  0.00  0.00    +0.000 A 
ATOM     13  C   UNL     1      -0.021   9.518  23.197  0.00  0.00    +0.000 A 
ATOM     14  C   UNL     1      -0.820  10.611  22.859  0.00  0.00    +0.000 A 
ATOM     15  C   UNL     1      -0.878  11.110  21.541  0.00  0.00    +0.000 A 
ENDROOT
BRANCH   1  20
ATOM     16  C   UNL     1      -2.769  16.743  24.488  0.00  0.00    +0.000 C 
ATOM     17  N   UNL     1      -2.289  15.399  24.181  0.00  0.00    +0.000 NA
ATOM     18  C   UNL     1      -1.227  15.443  23.148  0.00  0.00    +0.000 C 
ATOM     19  C   UNL     1      -0.720  14.035  22.753  0.00  0.00    +0.000 C 
ATOM     20  N   UNL     1      -1.854  13.207  22.309  0.00  0.00    +0.000 N 
ATOM     21  C   UNL     1      -2.935  13.126  23.309  0.00  0.00    +0.000 C 
ATOM     22  C   UNL     1      -3.402  14.546  23.701  0.00  0.00    +0.000 C 
ENDBRANCH   1  20
TORSDOF 1
ENDMDL
MODEL 6
REMARK VINA RESULT:      -7.3      5.297      7.987
REMARK  Name = 
REMARK  2 active torsions:
REMARK  status: ('A' for Active; 'I' for Inactive)
REMARK    1  A    between atoms: C_1  and  N_2
REMARK    2  A    between atoms: N_5  and  C_6
REMARK                            x       y       z     vdW  Elec       q    Type
REMARK                         _______ _______ _______ _____ _____    ______ ____
ROOT
ATOM      1  C   UNL     1      -0.985  12.120  20.904  0.00  0.00    +0.000 C 
ATOM      2  C   UNL     1      -1.900  12.348  19.940  0.00  0.00    +0.000 C 
ATOM      3  C   UNL     1      -2.305  11.481  18.820  0.00  0.00    +0.000 A 
ATOM      4  C   UNL     1      -3.638  11.548  18.385  0.00  0.00    +0.000 A 
ATOM      5  C   UNL     1      -4.083  10.777  17.309  0.00  0.00    +0.000 A 
ATOM      6  C   UNL     1      -3.199   9.934  16.651  0.00  0.00    +0.000 A 
ATOM      7  C   UNL     1      -1.866   9.871  17.056  0.00  0.00    +0.000 A 
ATOM      8  C   UNL     1      -1.404  10.651  18.132  0.00  0.00    +0.000 A 
ATOM      9  C   UNL     1       0.054  10.609  18.515  0.00  0.00    +0.000 C 
ATOM     10  C   UNL     1       0.275  10.119  19.924  0.00  0.00    +0.000 A 
ATOM     11  C   UNL     1       0.985   8.920  20.132  0.00  0.00    +0.000 A 
ATOM     12  C   UNL     1       1.231   8.445  21.420  0.00  0.00    +0.000 A 
ATOM     13  C   UNL     1       0.771   9.162  22.516  0.00  0.00    +0.000 A 
ATOM     14  C   UNL     1       0.056  10.343  22.319  0.00  0.00    +0.000 A 
ATOM     15  C   UNL     1      -0.213  10.844  21.028  0.00  0.00    +0.000 A 
ENDROOT
BRANCH   1  20
ATOM     16  C   UNL     1      -1.005  16.567  24.296  0.00  0.00    +0.000 C 
ATOM     17  N   UNL     1      -0.610  15.238  23.841  0.00  0.00    +0.000 NA
ATOM     18  C   UNL     1       0.039  15.309  22.511  0.00  0.00    +0.000 C 
ATOM     19  C   UNL     1       0.433  13.915  21.964  0.00  0.00    +0.000 C 
ATOM     20  N   UNL     1      -0.755  13.045  21.926  0.00  0.00    +0.000 N 
ATOM     21  C   UNL     1      -1.432  12.936  23.231  0.00  0.00    +0.000 C 
ATOM     22  C   UNL     1      -1.790  14.343  23.761  0.00  0.00    +0.000 C 
ENDBRANCH   1  20
TORSDOF 1
ENDMDL
MODEL 7
REMARK VINA RESULT:      -7.2      1.388      4.300
REMARK  Name = 
REMARK  2 active torsions:
REMARK  status: ('A' for Active; 'I' for Inactive)
REMARK    1  A    between atoms: C_1  and  N_2
REMARK    2  A    between atoms: N_5  and  C_6
REMARK                            x       y       z     vdW  Elec       q    Type
REMARK                         _______ _______ _______ _____ _____    ______ ____
ROOT
ATOM      1  C   UNL     1       2.276   6.656  19.106  0.00  0.00    +0.000 C 
ATOM      2  C   UNL     1       1.704   5.804  19.981  0.00  0.00    +0.000 C 
ATOM      3  C   UNL     1       1.923   4.356  20.146  0.00  0.00    +0.000 A 
ATOM      4  C   UNL     1       1.808   3.816  21.438  0.00  0.00    +0.000 A 
ATOM      5  C   UNL     1       1.973   2.448  21.662  0.00  0.00    +0.000 A 
ATOM      6  C   UNL     1       2.247   1.601  20.597  0.00  0.00    +0.000 A 
ATOM      7  C   UNL     1       2.342   2.116  19.305  0.00  0.00    +0.000 A 
ATOM      8  C   UNL     1       2.168   3.492  19.066  0.00  0.00    +0.000 A 
ATOM      9  C   UNL     1       2.218   4.018  17.653  0.00  0.00    +0.000 C 
ATOM     10  C   UNL     1       3.326   5.020  17.441  0.00  0.00    +0.000 A 
ATOM     11  C   UNL     1       4.366   4.716  16.540  0.00  0.00    +0.000 A 
ATOM     12  C   UNL     1       5.395   5.624  16.298  0.00  0.00    +0.000 A 
ATOM     13  C   UNL     1       5.399   6.848  16.952  0.00  0.00    +0.000 A 
ATOM     14  C   UNL     1       4.382   7.153  17.856  0.00  0.00    +0.000 A 
ATOM     15  C   UNL     1       3.330   6.251  18.124  0.00  0.00    +0.000 A 
ENDROOT
BRANCH   1  20
ATOM     16  C   UNL     1      -0.212  11.663  18.975  0.00  0.00    +0.000 C 
ATOM     17  N   UNL     1       0.904  10.730  19.097  0.00  0.00    +0.000 NA
ATOM     18  C   UNL     1       1.064   9.936  17.856  0.00  0.00    +0.000 C 
ATOM     19  C   UNL     1       2.207   8.897  17.955  0.00  0.00    +0.000 C 
ATOM     20  N   UNL     1       1.979   8.020  19.116  0.00  0.00    +0.000 N 
ATOM     21  C   UNL     1       1.822   8.765  20.379  0.00  0.00    +0.000 C 
ATOM     22  C   UNL     1       0.693   9.811  20.241  0.00  0.00    +0.000 C 
ENDBRANCH   1  20
TORSDOF 1
ENDMDL
MODEL 8
REMARK VINA RESULT:      -7.0      3.240      6.831
REMARK  Name = 
REMARK  2 active torsions:
REMARK  status: ('A' for Active; 'I' for Inactive)
REMARK    1  A    between atoms: C_1  and  N_2
REMARK    2  A    between atoms: N_5  and  C_6
REMARK                            x       y       z     vdW  Elec       q    Type
REMARK                         _______ _______ _______ _____ _____    ______ ____
ROOT
ATOM      1  C   UNL     1       0.077  11.004  20.587  0.00  0.00    +0.000 C 
ATOM      2  C   UNL     1       0.123   9.658  20.674  0.00  0.00    +0.000 C 
ATOM      3  C   UNL     1       1.074   8.720  20.052  0.00  0.00    +0.000 A 
ATOM      4  C   UNL     1       1.393   7.546  20.753  0.00  0.00    +0.000 A 
ATOM      5  C   UNL     1       2.262   6.598  20.210  0.00  0.00    +0.000 A 
ATOM      6  C   UNL     1       2.818   6.808  18.956  0.00  0.00    +0.000 A 
ATOM      7  C   UNL     1       2.495   7.958  18.236  0.00  0.00    +0.000 A 
ATOM      8  C   UNL     1       1.612   8.915  18.769  0.00  0.00    +0.000 A 
ATOM      9  C   UNL     1       1.233  10.123  17.948  0.00  0.00    +0.000 C 
ATOM     10  C   UNL     1       1.635  11.422  18.600  0.00  0.00    +0.000 A 
ATOM     11  C   UNL     1       2.579  12.249  17.959  0.00  0.00    +0.000 A 
ATOM     12  C   UNL     1       2.961  13.469  18.515  0.00  0.00    +0.000 A 
ATOM     13  C   UNL     1       2.403  13.880  19.718  0.00  0.00    +0.000 A 
ATOM     14  C   UNL     1       1.477  13.062  20.367  0.00  0.00    +0.000 A 
ATOM     15  C   UNL     1       1.077  11.820  19.830  0.00  0.00    +0.000 A 
ENDROOT
BRANCH   1  20
ATOM     16  C   UNL     1      -2.850  15.022  23.148  0.00  0.00    +0.000 C 
ATOM     17  N   UNL     1      -2.583  13.676  22.653  0.00  0.00    +0.000 NA
ATOM     18  C   UNL     1      -1.362  13.117  23.281  0.00  0.00    +0.000 C 
ATOM     19  C   UNL     1      -1.011  11.706  22.749  0.00  0.00    +0.000 C 
ATOM     20  N   UNL     1      -0.877  11.748  21.284  0.00  0.00    +0.000 N 
ATOM     21  C   UNL     1      -2.072  12.291  20.611  0.00  0.00    +0.000 C 
ATOM     22  C   UNL     1      -2.413  13.687  21.180  0.00  0.00    +0.000 C 
ENDBRANCH   1  20
TORSDOF 1
ENDMDL
MODEL 9
REMARK VINA RESULT:      -7.0      3.144      5.109
REMARK  Name = 
REMARK  2 active torsions:
REMARK  status: ('A' for Active; 'I' for Inactive)
REMARK    1  A    between atoms: C_1  and  N_2
REMARK    2  A    between atoms: N_5  and  C_6
REMARK                            x       y       z     vdW  Elec       q    Type
REMARK                         _______ _______ _______ _____ _____    ______ ____
ROOT
ATOM      1  C   UNL     1       5.055   4.522  17.774  0.00  0.00    +0.000 C 
ATOM      2  C   UNL     1       4.803   3.964  16.572  0.00  0.00    +0.000 C 
ATOM      3  C   UNL     1       5.492   4.175  15.287  0.00  0.00    +0.000 A 
ATOM      4  C   UNL     1       5.569   3.092  14.397  0.00  0.00    +0.000 A 
ATOM      5  C   UNL     1       6.181   3.229  13.149  0.00  0.00    +0.000 A 
ATOM      6  C   UNL     1       6.716   4.453  12.773  0.00  0.00    +0.000 A 
ATOM      7  C   UNL     1       6.629   5.545  13.636  0.00  0.00    +0.000 A 
ATOM      8  C   UNL     1       6.006   5.421  14.891  0.00  0.00    +0.000 A 
ATOM      9  C   UNL     1       5.872   6.630  15.783  0.00  0.00    +0.000 C 
ATOM     10  C   UNL     1       6.582   6.464  17.103  0.00  0.00    +0.000 A 
ATOM     11  C   UNL     1       7.660   7.315  17.417  0.00  0.00    +0.000 A 
ATOM     12  C   UNL     1       8.328   7.211  18.636  0.00  0.00    +0.000 A 
ATOM     13  C   UNL     1       7.927   6.254  19.558  0.00  0.00    +0.000 A 
ATOM     14  C   UNL     1       6.870   5.397  19.252  0.00  0.00    +0.000 A 
ATOM     15  C   UNL     1       6.180   5.477  18.024  0.00  0.00    +0.000 A 
ENDROOT
BRANCH   1  20
ATOM     16  C   UNL     1       1.154   2.778  21.382  0.00  0.00    +0.000 C 
ATOM     17  N   UNL     1       2.453   3.301  20.971  0.00  0.00    +0.000 NA
ATOM     18  C   UNL     1       2.299   4.594  20.263  0.00  0.00    +0.000 C 
ATOM     19  C   UNL     1       3.649   5.165  19.764  0.00  0.00    +0.000 C 
ATOM     20  N   UNL     1       4.321   4.173  18.910  0.00  0.00    +0.000 N 
ATOM     21  C   UNL     1       4.505   2.870  19.574  0.00  0.00    +0.000 C 
ATOM     22  C   UNL     1       3.146   2.338  20.083  0.00  0.00    +0.000 C 
ENDBRANCH   1  20
TORSDOF 1
ENDMDL
