MODEL 1
REMARK VINA RESULT:      -8.1      0.000      0.000
REMARK  Name = 
REMARK  8 active torsions:
REMARK  status: ('A' for Active; 'I' for Inactive)
REMARK    1  A    between atoms: C_2  and  C_3
REMARK    2  A    between atoms: C_2  and  C_20
REMARK    3  A    between atoms: C_3  and  N_4
REMARK    4  A    between atoms: N_7  and  C_8
REMARK    5  A    between atoms: C_12  and  C_13
REMARK    6  A    between atoms: C_22  and  O_23
REMARK    7  A    between atoms: C_24  and  O_25
REMARK    8  A    between atoms: C_26  and  N_27
REMARK                            x       y       z     vdW  Elec       q    Type
REMARK                         _______ _______ _______ _____ _____    ______ ____
ROOT
ATOM      1  C   UNL     1       3.342   4.571  19.691  0.00  0.00    +0.000 C 
ENDROOT
BRANCH   1   2
ATOM      2  N   UNL     1       1.997   5.112  19.427  0.00  0.00    +0.000 NA
ATOM      3  C   UNL     1       1.336   5.657  20.644  0.00  0.00    +0.000 C 
ATOM      4  C   UNL     1       1.780   7.057  21.128  0.00  0.00    +0.000 C 
ATOM      5  N   UNL     1       1.825   8.024  20.021  0.00  0.00    +0.000 N 
ATOM      6  C   UNL     1       2.547   7.562  18.828  0.00  0.00    +0.000 C 
ATOM      7  C   UNL     1       2.031   6.169  18.386  0.00  0.00    +0.000 C 
BRANCH   5   8
ATOM      8  C   UNL     1       0.974   9.113  19.942  0.00  0.00    +0.000 A 
ATOM      9  C   UNL     1       0.706   9.716  18.704  0.00  0.00    +0.000 A 
ATOM     10  C   UNL     1      -0.140  10.823  18.583  0.00  0.00    +0.000 A 
ATOM     11  C   UNL     1      -0.742  11.362  19.713  0.00  0.00    +0.000 A 
ATOM     12  C   UNL     1      -0.493  10.803  20.971  0.00  0.00    +0.000 A 
ATOM     13  C   UNL     1       0.362   9.686  21.068  0.00  0.00    +0.000 A 
BRANCH  12  14
ATOM     14  C   UNL     1      -1.131  11.383  22.210  0.00  0.00    +0.000 C 
ATOM     15  F   UNL     1      -0.423  12.413  22.754  0.00  0.00    +0.000 F 
ATOM     16  F   UNL     1      -2.378  11.876  21.973  0.00  0.00    +0.000 F 
ATOM     17  F   UNL     1      -1.274  10.464  23.205  0.00  0.00    +0.000 F 
ENDBRANCH  12  14
ENDBRANCH   5   8
ENDBRANCH   1   2
BRANCH   1  19
ATOM     18  O   UNL     1       3.344   2.539  18.385  0.00  0.00    +0.000 OA
ATOM     19  C   UNL     1       3.807   3.670  18.547  0.00  0.00    +0.000 C 
BRANCH  19  20
ATOM     20  C   UNL     1       4.865   4.145  17.611  0.00  0.00    +0.000 A 
ATOM     21  C   UNL     1       5.060   3.564  16.351  0.00  0.00    +0.000 A 
ATOM     22  C   UNL     1       6.057   4.067  15.514  0.00  0.00    +0.000 A 
ATOM     23  C   UNL     1       6.858   5.140  15.905  0.00  0.00    +0.000 A 
ATOM     24  C   UNL     1       6.680   5.687  17.167  0.00  0.00    +0.000 A 
ATOM     25  C   UNL     1       5.689   5.200  18.032  0.00  0.00    +0.000 A 
BRANCH  24  26
ATOM     26  N   UNL     1       7.498   6.796  17.616  0.00  0.00    +0.000 N 
ATOM     27  O   UNL     1       7.612   7.769  16.855  0.00  0.00    +0.000 OA
ATOM     28  O   UNL     1       8.078   6.653  18.697  0.00  0.00    +0.000 OA
ENDBRANCH  24  26
BRANCH  22  29
ATOM     29  O   UNL     1       6.284   3.536  14.273  0.00  0.00    +0.000 OA
ATOM     30  H   UNL     1       7.129   3.052  14.282  0.00  0.00    +0.000 HD
ENDBRANCH  22  29
BRANCH  23  31
ATOM     31  O   UNL     1       7.772   5.626  15.014  0.00  0.00    +0.000 OA
ATOM     32  H   UNL     1       8.120   6.449  15.413  0.00  0.00    +0.000 HD
ENDBRANCH  23  31
ENDBRANCH  19  20
ENDBRANCH   1  19
TORSDOF 8
ENDMDL
MODEL 2
REMARK VINA RESULT:      -8.0      0.983      1.298
REMARK  Name = 
REMARK  8 active torsions:
REMARK  status: ('A' for Active; 'I' for Inactive)
REMARK    1  A    between atoms: C_2  and  C_3
REMARK    2  A    between atoms: C_2  and  C_20
REMARK    3  A    between atoms: C_3  and  N_4
REMARK    4  A    between atoms: N_7  and  C_8
REMARK    5  A    between atoms: C_12  and  C_13
REMARK    6  A    between atoms: C_22  and  O_23
REMARK    7  A    between atoms: C_24  and  O_25
REMARK    8  A    between atoms: C_26  and  N_27
REMARK                            x       y       z     vdW  Elec       q    Type
REMARK                         _______ _______ _______ _____ _____    ______ ____
ROOT
ATOM      1  C   UNL     1       2.998   3.420  19.553  0.00  0.00    +0.000 C 
ENDROOT
BRANCH   1   2
ATOM      2  N   UNL     1       1.811   4.213  19.191  0.00  0.00    +0.000 NA
ATOM      3  C   UNL     1       1.162   4.866  20.361  0.00  0.00    +0.000 C 
ATOM      4  C   UNL     1       1.823   6.150  20.916  0.00  0.00    +0.000 C 
ATOM      5  N   UNL     1       2.149   7.099  19.841  0.00  0.00    +0.000 N 
ATOM      6  C   UNL     1       2.871   6.516  18.701  0.00  0.00    +0.000 C 
ATOM      7  C   UNL     1       2.137   5.252  18.183  0.00  0.00    +0.000 C 
BRANCH   5   8
ATOM      8  C   UNL     1       1.533   8.332  19.718  0.00  0.00    +0.000 A 
ATOM      9  C   UNL     1       1.635   9.060  18.522  0.00  0.00    +0.000 A 
ATOM     10  C   UNL     1       1.036  10.313  18.361  0.00  0.00    +0.000 A 
ATOM     11  C   UNL     1       0.314  10.876  19.406  0.00  0.00    +0.000 A 
ATOM     12  C   UNL     1       0.197  10.194  20.621  0.00  0.00    +0.000 A 
ATOM     13  C   UNL     1       0.808   8.930  20.761  0.00  0.00    +0.000 A 
BRANCH  12  14
ATOM     14  C   UNL     1      -0.575  10.795  21.770  0.00  0.00    +0.000 C 
ATOM     15  F   UNL     1      -0.808   9.918  22.788  0.00  0.00    +0.000 F 
ATOM     16  F   UNL     1       0.071  11.853  22.336  0.00  0.00    +0.000 F 
ATOM     17  F   UNL     1      -1.798  11.260  21.394  0.00  0.00    +0.000 F 
ENDBRANCH  12  14
ENDBRANCH   5   8
ENDBRANCH   1   2
BRANCH   1  19
ATOM     18  O   UNL     1       3.484   1.852  17.781  0.00  0.00    +0.000 OA
ATOM     19  C   UNL     1       3.739   2.937  18.307  0.00  0.00    +0.000 C 
BRANCH  19  20
ATOM     20  C   UNL     1       4.821   3.775  17.715  0.00  0.00    +0.000 A 
ATOM     21  C   UNL     1       4.986   3.907  16.329  0.00  0.00    +0.000 A 
ATOM     22  C   UNL     1       6.007   4.721  15.838  0.00  0.00    +0.000 A 
ATOM     23  C   UNL     1       6.862   5.410  16.699  0.00  0.00    +0.000 A 
ATOM     24  C   UNL     1       6.711   5.247  18.068  0.00  0.00    +0.000 A 
ATOM     25  C   UNL     1       5.697   4.433  18.591  0.00  0.00    +0.000 A 
BRANCH  24  26
ATOM     26  N   UNL     1       7.585   5.938  18.997  0.00  0.00    +0.000 N 
ATOM     27  O   UNL     1       8.140   6.973  18.600  0.00  0.00    +0.000 OA
ATOM     28  O   UNL     1       7.763   5.398  20.094  0.00  0.00    +0.000 OA
ENDBRANCH  24  26
BRANCH  22  29
ATOM     29  O   UNL     1       6.207   4.885  14.494  0.00  0.00    +0.000 OA
ATOM     30  H   UNL     1       5.457   5.379  14.117  0.00  0.00    +0.000 HD
ENDBRANCH  22  29
BRANCH  23  31
ATOM     31  O   UNL     1       7.799   6.241  16.155  0.00  0.00    +0.000 OA
ATOM     32  H   UNL     1       7.377   7.123  16.108  0.00  0.00    +0.000 HD
ENDBRANCH  23  31
ENDBRANCH  19  20
ENDBRANCH   1  19
TORSDOF 8
ENDMDL
MODEL 3
REMARK VINA RESULT:      -8.0      1.515      2.078
REMARK  Name = 
REMARK  8 active torsions:
REMARK  status: ('A' for Active; 'I' for Inactive)
REMARK    1  A    between atoms: C_2  and  C_3
REMARK    2  A    between atoms: C_2  and  C_20
REMARK    3  A    between atoms: C_3  and  N_4
REMARK    4  A    between atoms: N_7  and  C_8
REMARK    5  A    between atoms: C_12  and  C_13
REMARK    6  A    between atoms: C_22  and  O_23
REMARK    7  A    between atoms: C_24  and  O_25
REMARK    8  A    between atoms: C_26  and  N_27
REMARK                            x       y       z     vdW  Elec       q    Type
REMARK                         _______ _______ _______ _____ _____    ______ ____
ROOT
ATOM      1  C   UNL     1       3.356   3.891  19.033  0.00  0.00    +0.000 C 
ENDROOT
BRANCH   1   2
ATOM      2  N   UNL     1       2.039   4.552  19.004  0.00  0.00    +0.000 NA
ATOM      3  C   UNL     1       1.471   4.785  20.360  0.00  0.00    +0.000 C 
ATOM      4  C   UNL     1       2.028   5.980  21.168  0.00  0.00    +0.000 C 
ATOM      5  N   UNL     1       2.086   7.204  20.355  0.00  0.00    +0.000 N 
ATOM      6  C   UNL     1       2.722   7.041  19.041  0.00  0.00    +0.000 C 
ATOM      7  C   UNL     1       2.095   5.845  18.279  0.00  0.00    +0.000 C 
BRANCH   5   8
ATOM      8  C   UNL     1       1.307   8.317  20.619  0.00  0.00    +0.000 A 
ATOM      9  C   UNL     1       0.978   8.657  21.940  0.00  0.00    +0.000 A 
ATOM     10  C   UNL     1       0.186   9.768  22.246  0.00  0.00    +0.000 A 
ATOM     11  C   UNL     1      -0.306  10.572  21.226  0.00  0.00    +0.000 A 
ATOM     12  C   UNL     1      -0.016  10.264  19.893  0.00  0.00    +0.000 A 
ATOM     13  C   UNL     1       0.787   9.140  19.607  0.00  0.00    +0.000 A 
BRANCH  12  14
ATOM     14  C   UNL     1      -0.550  11.121  18.772  0.00  0.00    +0.000 C 
ATOM     15  F   UNL     1       0.341  12.051  18.326  0.00  0.00    +0.000 F 
ATOM     16  F   UNL     1      -0.899  10.390  17.676  0.00  0.00    +0.000 F 
ATOM     17  F   UNL     1      -1.666  11.816  19.128  0.00  0.00    +0.000 F 
ENDBRANCH  12  14
ENDBRANCH   5   8
ENDBRANCH   1   2
BRANCH   1  19
ATOM     18  O   UNL     1       3.085   2.322  17.216  0.00  0.00    +0.000 OA
ATOM     19  C   UNL     1       3.700   3.289  17.671  0.00  0.00    +0.000 C 
BRANCH  19  20
ATOM     20  C   UNL     1       4.823   3.857  16.871  0.00  0.00    +0.000 A 
ATOM     21  C   UNL     1       5.110   3.414  15.572  0.00  0.00    +0.000 A 
ATOM     22  C   UNL     1       6.163   3.999  14.870  0.00  0.00    +0.000 A 
ATOM     23  C   UNL     1       6.933   5.018  15.432  0.00  0.00    +0.000 A 
ATOM     24  C   UNL     1       6.662   5.426  16.729  0.00  0.00    +0.000 A 
ATOM     25  C   UNL     1       5.612   4.855  17.462  0.00  0.00    +0.000 A 
BRANCH  24  26
ATOM     26  N   UNL     1       7.443   6.476  17.354  0.00  0.00    +0.000 N 
ATOM     27  O   UNL     1       7.897   6.256  18.487  0.00  0.00    +0.000 OA
ATOM     28  O   UNL     1       7.536   7.540  16.733  0.00  0.00    +0.000 OA
ENDBRANCH  24  26
BRANCH  22  29
ATOM     29  O   UNL     1       6.481   3.604  13.598  0.00  0.00    +0.000 OA
ATOM     30  H   UNL     1       7.334   4.000  13.344  0.00  0.00    +0.000 HD
ENDBRANCH  22  29
BRANCH  23  31
ATOM     31  O   UNL     1       7.907   5.593  14.668  0.00  0.00    +0.000 OA
ATOM     32  H   UNL     1       8.749   5.419  15.135  0.00  0.00    +0.000 HD
ENDBRANCH  23  31
ENDBRANCH  19  20
ENDBRANCH   1  19
TORSDOF 8
ENDMDL
MODEL 4
REMARK VINA RESULT:      -7.9      2.011      2.369
REMARK  Name = 
REMARK  8 active torsions:
REMARK  status: ('A' for Active; 'I' for Inactive)
REMARK    1  A    between atoms: C_2  and  C_3
REMARK    2  A    between atoms: C_2  and  C_20
REMARK    3  A    between atoms: C_3  and  N_4
REMARK    4  A    between atoms: N_7  and  C_8
REMARK    5  A    between atoms: C_12  and  C_13
REMARK    6  A    between atoms: C_22  and  O_23
REMARK    7  A    between atoms: C_24  and  O_25
REMARK    8  A    between atoms: C_26  and  N_27
REMARK                            x       y       z     vdW  Elec       q    Type
REMARK                         _______ _______ _______ _____ _____    ______ ____
ROOT
ATOM      1  C   UNL     1       3.233   5.204  19.920  0.00  0.00    +0.000 C 
ENDROOT
BRANCH   1   2
ATOM      2  N   UNL     1       1.892   5.700  19.564  0.00  0.00    +0.000 NA
ATOM      3  C   UNL     1       1.276   6.540  20.627  0.00  0.00    +0.000 C 
ATOM      4  C   UNL     1       1.761   8.004  20.747  0.00  0.00    +0.000 C 
ATOM      5  N   UNL     1       1.793   8.672  19.438  0.00  0.00    +0.000 N 
ATOM      6  C   UNL     1       2.472   7.917  18.376  0.00  0.00    +0.000 C 
ATOM      7  C   UNL     1       1.916   6.472  18.297  0.00  0.00    +0.000 C 
BRANCH   5   8
ATOM      8  C   UNL     1       0.962   9.731  19.116  0.00  0.00    +0.000 A 
ATOM      9  C   UNL     1       1.272  11.032  19.541  0.00  0.00    +0.000 A 
ATOM     10  C   UNL     1       0.454  12.127  19.245  0.00  0.00    +0.000 A 
ATOM     11  C   UNL     1      -0.711  11.943  18.511  0.00  0.00    +0.000 A 
ATOM     12  C   UNL     1      -1.068  10.662  18.077  0.00  0.00    +0.000 A 
ATOM     13  C   UNL     1      -0.227   9.573  18.386  0.00  0.00    +0.000 A 
BRANCH  12  14
ATOM     14  C   UNL     1      -2.335  10.443  17.287  0.00  0.00    +0.000 C 
ATOM     15  F   UNL     1      -3.384  11.199  17.720  0.00  0.00    +0.000 F 
ATOM     16  F   UNL     1      -2.185  10.742  15.967  0.00  0.00    +0.000 F 
ATOM     17  F   UNL     1      -2.765   9.152  17.332  0.00  0.00    +0.000 F 
ENDBRANCH  12  14
ENDBRANCH   5   8
ENDBRANCH   1   2
BRANCH   1  19
ATOM     18  O   UNL     1       3.246   3.000  18.931  0.00  0.00    +0.000 OA
ATOM     19  C   UNL     1       3.709   4.143  18.929  0.00  0.00    +0.000 C 
BRANCH  19  20
ATOM     20  C   UNL     1       4.780   4.473  17.945  0.00  0.00    +0.000 A 
ATOM     21  C   UNL     1       4.929   3.768  16.743  0.00  0.00    +0.000 A 
ATOM     22  C   UNL     1       5.940   4.138  15.856  0.00  0.00    +0.000 A 
ATOM     23  C   UNL     1       6.801   5.199  16.140  0.00  0.00    +0.000 A 
ATOM     24  C   UNL     1       6.666   5.869  17.347  0.00  0.00    +0.000 A 
ATOM     25  C   UNL     1       5.662   5.517  18.260  0.00  0.00    +0.000 A 
BRANCH  24  26
ATOM     26  N   UNL     1       7.547   6.970  17.685  0.00  0.00    +0.000 N 
ATOM     27  O   UNL     1       7.632   7.904  16.875  0.00  0.00    +0.000 OA
ATOM     28  O   UNL     1       8.200   6.856  18.727  0.00  0.00    +0.000 OA
ENDBRANCH  24  26
BRANCH  22  29
ATOM     29  O   UNL     1       6.124   3.484  14.668  0.00  0.00    +0.000 OA
ATOM     30  H   UNL     1       6.936   2.948  14.721  0.00  0.00    +0.000 HD
ENDBRANCH  22  29
BRANCH  23  31
ATOM     31  O   UNL     1       7.728   5.552  15.201  0.00  0.00    +0.000 OA
ATOM     32  H   UNL     1       7.338   6.305  14.713  0.00  0.00    +0.000 HD
ENDBRANCH  23  31
ENDBRANCH  19  20
ENDBRANCH   1  19
TORSDOF 8
ENDMDL
MODEL 5
REMARK VINA RESULT:      -7.8      1.789      2.298
REMARK  Name = 
REMARK  8 active torsions:
REMARK  status: ('A' for Active; 'I' for Inactive)
REMARK    1  A    between atoms: C_2  and  C_3
REMARK    2  A    between atoms: C_2  and  C_20
REMARK    3  A    between atoms: C_3  and  N_4
REMARK    4  A    between atoms: N_7  and  C_8
REMARK    5  A    between atoms: C_12  and  C_13
REMARK    6  A    between atoms: C_22  and  O_23
REMARK    7  A    between atoms: C_24  and  O_25
REMARK    8  A    between atoms: C_26  and  N_27
REMARK                            x       y       z     vdW  Elec       q    Type
REMARK                         _______ _______ _______ _____ _____    ______ ____
ROOT
ATOM      1  C   UNL     1       3.095   3.299  19.292  0.00  0.00    +0.000 C 
ENDROOT
BRANCH   1   2
ATOM      2  N   UNL     1       1.850   4.070  19.126  0.00  0.00    +0.000 NA
ATOM      3  C   UNL     1       1.189   4.401  20.418  0.00  0.00    +0.000 C 
ATOM      4  C   UNL     1       1.778   5.573  21.237  0.00  0.00    +0.000 C 
ATOM      5  N   UNL     1       2.016   6.756  20.397  0.00  0.00    +0.000 N 
ATOM      6  C   UNL     1       2.747   6.490  19.150  0.00  0.00    +0.000 C 
ATOM      7  C   UNL     1       2.084   5.325  18.371  0.00  0.00    +0.000 C 
BRANCH   5   8
ATOM      8  C   UNL     1       1.319   7.941  20.556  0.00  0.00    +0.000 A 
ATOM      9  C   UNL     1       0.417   8.097  21.619  0.00  0.00    +0.000 A 
ATOM     10  C   UNL     1      -0.313   9.275  21.809  0.00  0.00    +0.000 A 
ATOM     11  C   UNL     1      -0.158  10.336  20.926  0.00  0.00    +0.000 A 
ATOM     12  C   UNL     1       0.720  10.222  19.844  0.00  0.00    +0.000 A 
ATOM     13  C   UNL     1       1.447   9.025  19.673  0.00  0.00    +0.000 A 
BRANCH  12  14
ATOM     14  C   UNL     1       0.893  11.361  18.870  0.00  0.00    +0.000 C 
ATOM     15  F   UNL     1       1.963  11.209  18.039  0.00  0.00    +0.000 F 
ATOM     16  F   UNL     1      -0.187  11.521  18.055  0.00  0.00    +0.000 F 
ATOM     17  F   UNL     1       1.073  12.560  19.491  0.00  0.00    +0.000 F 
ENDBRANCH  12  14
ENDBRANCH   5   8
ENDBRANCH   1   2
BRANCH   1  19
ATOM     18  O   UNL     1       3.448   2.086  17.233  0.00  0.00    +0.000 OA
ATOM     19  C   UNL     1       3.767   3.041  17.945  0.00  0.00    +0.000 C 
BRANCH  19  20
ATOM     20  C   UNL     1       4.859   3.942  17.475  0.00  0.00    +0.000 A 
ATOM     21  C   UNL     1       5.058   4.225  16.117  0.00  0.00    +0.000 A 
ATOM     22  C   UNL     1       6.087   5.091  15.744  0.00  0.00    +0.000 A 
ATOM     23  C   UNL     1       6.916   5.685  16.697  0.00  0.00    +0.000 A 
ATOM     24  C   UNL     1       6.731   5.373  18.036  0.00  0.00    +0.000 A 
ATOM     25  C   UNL     1       5.708   4.504  18.441  0.00  0.00    +0.000 A 
BRANCH  24  26
ATOM     26  N   UNL     1       7.576   5.961  19.057  0.00  0.00    +0.000 N 
ATOM     27  O   UNL     1       8.210   6.983  18.756  0.00  0.00    +0.000 OA
ATOM     28  O   UNL     1       7.653   5.352  20.129  0.00  0.00    +0.000 OA
ENDBRANCH  24  26
BRANCH  22  29
ATOM     29  O   UNL     1       6.320   5.401  14.432  0.00  0.00    +0.000 OA
ATOM     30  H   UNL     1       7.242   5.179  14.210  0.00  0.00    +0.000 HD
ENDBRANCH  22  29
BRANCH  23  31
ATOM     31  O   UNL     1       7.861   6.573  16.271  0.00  0.00    +0.000 OA
ATOM     32  H   UNL     1       8.220   6.201  15.440  0.00  0.00    +0.000 HD
ENDBRANCH  23  31
ENDBRANCH  19  20
ENDBRANCH   1  19
TORSDOF 8
ENDMDL
MODEL 6
REMARK VINA RESULT:      -7.7      1.566      2.627
REMARK  Name = 
REMARK  8 active torsions:
REMARK  status: ('A' for Active; 'I' for Inactive)
REMARK    1  A    between atoms: C_2  and  C_3
REMARK    2  A    between atoms: C_2  and  C_20
REMARK    3  A    between atoms: C_3  and  N_4
REMARK    4  A    between atoms: N_7  and  C_8
REMARK    5  A    between atoms: C_12  and  C_13
REMARK    6  A    between atoms: C_22  and  O_23
REMARK    7  A    between atoms: C_24  and  O_25
REMARK    8  A    between atoms: C_26  and  N_27
REMARK                            x       y       z     vdW  Elec       q    Type
REMARK                         _______ _______ _______ _____ _____    ______ ____
ROOT
ATOM      1  C   UNL     1       3.256   2.742  18.605  0.00  0.00    +0.000 C 
ENDROOT
BRANCH   1   2
ATOM      2  N   UNL     1       2.157   3.482  19.250  0.00  0.00    +0.000 NA
ATOM      3  C   UNL     1       2.604   4.307  20.405  0.00  0.00    +0.000 C 
ATOM      4  C   UNL     1       3.296   5.654  20.090  0.00  0.00    +0.000 C 
ATOM      5  N   UNL     1       2.545   6.429  19.092  0.00  0.00    +0.000 N 
ATOM      6  C   UNL     1       2.159   5.676  17.890  0.00  0.00    +0.000 C 
ATOM      7  C   UNL     1       1.448   4.355  18.282  0.00  0.00    +0.000 C 
BRANCH   5   8
ATOM      8  C   UNL     1       1.932   7.635  19.384  0.00  0.00    +0.000 A 
ATOM      9  C   UNL     1       1.850   8.643  18.412  0.00  0.00    +0.000 A 
ATOM     10  C   UNL     1       1.248   9.879  18.672  0.00  0.00    +0.000 A 
ATOM     11  C   UNL     1       0.710  10.138  19.926  0.00  0.00    +0.000 A 
ATOM     12  C   UNL     1       0.781   9.168  20.931  0.00  0.00    +0.000 A 
ATOM     13  C   UNL     1       1.392   7.929  20.646  0.00  0.00    +0.000 A 
BRANCH  12  14
ATOM     14  C   UNL     1       0.211   9.437  22.302  0.00  0.00    +0.000 C 
ATOM     15  F   UNL     1      -0.257  10.708  22.456  0.00  0.00    +0.000 F 
ATOM     16  F   UNL     1      -0.836   8.619  22.602  0.00  0.00    +0.000 F 
ATOM     17  F   UNL     1       1.125   9.256  23.295  0.00  0.00    +0.000 F 
ENDBRANCH  12  14
ENDBRANCH   5   8
ENDBRANCH   1   2
BRANCH   1  19
ATOM     18  O   UNL     1       5.024   2.615  20.246  0.00  0.00    +0.000 OA
ATOM     19  C   UNL     1       4.607   3.128  19.205  0.00  0.00    +0.000 C 
BRANCH  19  20
ATOM     20  C   UNL     1       5.443   4.170  18.543  0.00  0.00    +0.000 A 
ATOM     21  C   UNL     1       6.464   4.848  19.222  0.00  0.00    +0.000 A 
ATOM     22  C   UNL     1       7.222   5.800  18.541  0.00  0.00    +0.000 A 
ATOM     23  C   UNL     1       6.989   6.084  17.195  0.00  0.00    +0.000 A 
ATOM     24  C   UNL     1       5.956   5.431  16.540  0.00  0.00    +0.000 A 
ATOM     25  C   UNL     1       5.174   4.472  17.199  0.00  0.00    +0.000 A 
BRANCH  24  26
ATOM     26  N   UNL     1       5.674   5.704  15.144  0.00  0.00    +0.000 N 
ATOM     27  O   UNL     1       5.261   6.836  14.854  0.00  0.00    +0.000 OA
ATOM     28  O   UNL     1       5.801   4.758  14.359  0.00  0.00    +0.000 OA
ENDBRANCH  24  26
BRANCH  22  29
ATOM     29  O   UNL     1       8.232   6.487  19.159  0.00  0.00    +0.000 OA
ATOM     30  H   UNL     1       7.865   7.288  19.576  0.00  0.00    +0.000 HD
ENDBRANCH  22  29
BRANCH  23  31
ATOM     31  O   UNL     1       7.809   6.978  16.568  0.00  0.00    +0.000 OA
ATOM     32  H   UNL     1       8.720   6.723  16.817  0.00  0.00    +0.000 HD
ENDBRANCH  23  31
ENDBRANCH  19  20
ENDBRANCH   1  19
TORSDOF 8
ENDMDL
MODEL 7
REMARK VINA RESULT:      -7.6      1.553      2.617
REMARK  Name = 
REMARK  8 active torsions:
REMARK  status: ('A' for Active; 'I' for Inactive)
REMARK    1  A    between atoms: C_2  and  C_3
REMARK    2  A    between atoms: C_2  and  C_20
REMARK    3  A    between atoms: C_3  and  N_4
REMARK    4  A    between atoms: N_7  and  C_8
REMARK    5  A    between atoms: C_12  and  C_13
REMARK    6  A    between atoms: C_22  and  O_23
REMARK    7  A    between atoms: C_24  and  O_25
REMARK    8  A    between atoms: C_26  and  N_27
REMARK                            x       y       z     vdW  Elec       q    Type
REMARK                         _______ _______ _______ _____ _____    ______ ____
ROOT
ATOM      1  C   UNL     1       2.421   2.329  19.334  0.00  0.00    +0.000 C 
ENDROOT
BRANCH   1   2
ATOM      2  N   UNL     1       1.292   3.257  19.517  0.00  0.00    +0.000 NA
ATOM      3  C   UNL     1       1.308   3.947  20.836  0.00  0.00    +0.000 C 
ATOM      4  C   UNL     1       2.283   5.136  21.004  0.00  0.00    +0.000 C 
ATOM      5  N   UNL     1       2.199   6.070  19.872  0.00  0.00    +0.000 N 
ATOM      6  C   UNL     1       2.269   5.440  18.546  0.00  0.00    +0.000 C 
ATOM      7  C   UNL     1       1.248   4.279  18.442  0.00  0.00    +0.000 C 
BRANCH   5   8
ATOM      8  C   UNL     1       1.733   7.367  20.003  0.00  0.00    +0.000 A 
ATOM      9  C   UNL     1       1.841   8.271  18.935  0.00  0.00    +0.000 A 
ATOM     10  C   UNL     1       1.390   9.592  19.030  0.00  0.00    +0.000 A 
ATOM     11  C   UNL     1       0.818  10.045  20.212  0.00  0.00    +0.000 A 
ATOM     12  C   UNL     1       0.702   9.184  21.308  0.00  0.00    +0.000 A 
ATOM     13  C   UNL     1       1.162   7.855  21.188  0.00  0.00    +0.000 A 
BRANCH  12  14
ATOM     14  C   UNL     1       0.093   9.663  22.602  0.00  0.00    +0.000 C 
ATOM     15  F   UNL     1       0.908   9.498  23.682  0.00  0.00    +0.000 F 
ATOM     16  F   UNL     1      -0.218  10.989  22.574  0.00  0.00    +0.000 F 
ATOM     17  F   UNL     1      -1.065   9.014  22.909  0.00  0.00    +0.000 F 
ENDBRANCH  12  14
ENDBRANCH   5   8
ENDBRANCH   1   2
BRANCH   1  19
ATOM     18  O   UNL     1       2.590   1.980  16.950  0.00  0.00    +0.000 OA
ATOM     19  C   UNL     1       3.063   2.507  17.959  0.00  0.00    +0.000 C 
BRANCH  19  20
ATOM     20  C   UNL     1       4.310   3.313  17.820  0.00  0.00    +0.000 A 
ATOM     21  C   UNL     1       4.998   3.817  18.932  0.00  0.00    +0.000 A 
ATOM     22  C   UNL     1       6.169   4.549  18.735  0.00  0.00    +0.000 A 
ATOM     23  C   UNL     1       6.672   4.783  17.455  0.00  0.00    +0.000 A 
ATOM     24  C   UNL     1       5.966   4.307  16.359  0.00  0.00    +0.000 A 
ATOM     25  C   UNL     1       4.784   3.572  16.525  0.00  0.00    +0.000 A 
BRANCH  24  26
ATOM     26  N   UNL     1       6.448   4.537  15.011  0.00  0.00    +0.000 N 
ATOM     27  O   UNL     1       6.860   5.673  14.736  0.00  0.00    +0.000 OA
ATOM     28  O   UNL     1       6.344   3.594  14.219  0.00  0.00    +0.000 OA
ENDBRANCH  24  26
BRANCH  22  29
ATOM     29  O   UNL     1       6.879   5.059  19.789  0.00  0.00    +0.000 OA
ATOM     30  H   UNL     1       6.321   5.047  20.587  0.00  0.00    +0.000 HD
ENDBRANCH  22  29
BRANCH  23  31
ATOM     31  O   UNL     1       7.857   5.450  17.334  0.00  0.00    +0.000 OA
ATOM     32  H   UNL     1       8.123   5.686  18.246  0.00  0.00    +0.000 HD
ENDBRANCH  23  31
ENDBRANCH  19  20
ENDBRANCH   1  19
TORSDOF 8
ENDMDL
MODEL 8
REMARK VINA RESULT:      -7.6      2.820      4.963
REMARK  Name = 
REMARK  8 active torsions:
REMARK  status: ('A' for Active; 'I' for Inactive)
REMARK    1  A    between atoms: C_2  and  C_3
REMARK    2  A    between atoms: C_2  and  C_20
REMARK    3  A    between atoms: C_3  and  N_4
REMARK    4  A    between atoms: N_7  and  C_8
REMARK    5  A    between atoms: C_12  and  C_13
REMARK    6  A    between atoms: C_22  and  O_23
REMARK    7  A    between atoms: C_24  and  O_25
REMARK    8  A    between atoms: C_26  and  N_27
REMARK                            x       y       z     vdW  Elec       q    Type
REMARK                         _______ _______ _______ _____ _____    ______ ____
ROOT
ATOM      1  C   UNL     1       1.372   7.860  20.001  0.00  0.00    +0.000 C 
ENDROOT
BRANCH   1   2
ATOM      2  N   UNL     1       1.666   9.206  20.521  0.00  0.00    +0.000 NA
ATOM      3  C   UNL     1       0.972  10.289  19.771  0.00  0.00    +0.000 C 
ATOM      4  C   UNL     1      -0.525  10.521  20.082  0.00  0.00    +0.000 C 
ATOM      5  N   UNL     1      -0.775  10.578  21.530  0.00  0.00    +0.000 N 
ATOM      6  C   UNL     1      -0.183   9.477  22.302  0.00  0.00    +0.000 C 
ATOM      7  C   UNL     1       1.321   9.322  21.959  0.00  0.00    +0.000 C 
BRANCH   5   8
ATOM      8  C   UNL     1      -1.204  11.726  22.172  0.00  0.00    +0.000 A 
ATOM      9  C   UNL     1      -0.379  12.860  22.225  0.00  0.00    +0.000 A 
ATOM     10  C   UNL     1      -0.772  14.036  22.872  0.00  0.00    +0.000 A 
ATOM     11  C   UNL     1      -2.013  14.105  23.492  0.00  0.00    +0.000 A 
ATOM     12  C   UNL     1      -2.863  12.995  23.478  0.00  0.00    +0.000 A 
ATOM     13  C   UNL     1      -2.447  11.820  22.817  0.00  0.00    +0.000 A 
BRANCH  12  14
ATOM     14  C   UNL     1      -4.210  13.049  24.155  0.00  0.00    +0.000 C 
ATOM     15  F   UNL     1      -4.580  14.307  24.531  0.00  0.00    +0.000 F 
ATOM     16  F   UNL     1      -5.215  12.593  23.357  0.00  0.00    +0.000 F 
ATOM     17  F   UNL     1      -4.259  12.294  25.287  0.00  0.00    +0.000 F 
ENDBRANCH  12  14
ENDBRANCH   5   8
ENDBRANCH   1   2
BRANCH   1  19
ATOM     18  O   UNL     1       2.861   8.064  18.109  0.00  0.00    +0.000 OA
ATOM     19  C   UNL     1       2.475   7.378  19.059  0.00  0.00    +0.000 C 
BRANCH  19  20
ATOM     20  C   UNL     1       3.093   6.037  19.264  0.00  0.00    +0.000 A 
ATOM     21  C   UNL     1       4.322   5.688  18.687  0.00  0.00    +0.000 A 
ATOM     22  C   UNL     1       4.855   4.422  18.931  0.00  0.00    +0.000 A 
ATOM     23  C   UNL     1       4.193   3.501  19.743  0.00  0.00    +0.000 A 
ATOM     24  C   UNL     1       2.962   3.844  20.283  0.00  0.00    +0.000 A 
ATOM     25  C   UNL     1       2.398   5.107  20.052  0.00  0.00    +0.000 A 
BRANCH  24  26
ATOM     26  N   UNL     1       2.236   2.912  21.124  0.00  0.00    +0.000 N 
ATOM     27  O   UNL     1       2.857   2.376  22.053  0.00  0.00    +0.000 OA
ATOM     28  O   UNL     1       1.068   2.671  20.802  0.00  0.00    +0.000 OA
ENDBRANCH  24  26
BRANCH  22  29
ATOM     29  O   UNL     1       6.053   4.035  18.394  0.00  0.00    +0.000 OA
ATOM     30  H   UNL     1       5.994   3.102  18.121  0.00  0.00    +0.000 HD
ENDBRANCH  22  29
BRANCH  23  31
ATOM     31  O   UNL     1       4.799   2.304  19.996  0.00  0.00    +0.000 OA
ATOM     32  H   UNL     1       4.329   1.646  19.445  0.00  0.00    +0.000 HD
ENDBRANCH  23  31
ENDBRANCH  19  20
ENDBRANCH   1  19
TORSDOF 8
ENDMDL
MODEL 9
REMARK VINA RESULT:      -7.6      1.967      3.156
REMARK  Name = 
REMARK  8 active torsions:
REMARK  status: ('A' for Active; 'I' for Inactive)
REMARK    1  A    between atoms: C_2  and  C_3
REMARK    2  A    between atoms: C_2  and  C_20
REMARK    3  A    between atoms: C_3  and  N_4
REMARK    4  A    between atoms: N_7  and  C_8
REMARK    5  A    between atoms: C_12  and  C_13
REMARK    6  A    between atoms: C_22  and  O_23
REMARK    7  A    between atoms: C_24  and  O_25
REMARK    8  A    between atoms: C_26  and  N_27
REMARK                            x       y       z     vdW  Elec       q    Type
REMARK                         _______ _______ _______ _____ _____    ______ ____
ROOT
ATOM      1  C   UNL     1       3.602   4.125  18.849  0.00  0.00    +0.000 C 
ENDROOT
BRANCH   1   2
ATOM      2  N   UNL     1       2.269   4.744  18.740  0.00  0.00    +0.000 NA
ATOM      3  C   UNL     1       1.568   4.860  20.048  0.00  0.00    +0.000 C 
ATOM      4  C   UNL     1       2.001   6.011  20.986  0.00  0.00    +0.000 C 
ATOM      5  N   UNL     1       2.088   7.292  20.269  0.00  0.00    +0.000 N 
ATOM      6  C   UNL     1       2.849   7.244  19.013  0.00  0.00    +0.000 C 
ATOM      7  C   UNL     1       2.343   6.087  18.114  0.00  0.00    +0.000 C 
BRANCH   5   8
ATOM      8  C   UNL     1       1.245   8.357  20.532  0.00  0.00    +0.000 A 
ATOM      9  C   UNL     1       0.844   8.637  21.847  0.00  0.00    +0.000 A 
ATOM     10  C   UNL     1      -0.014   9.699  22.153  0.00  0.00    +0.000 A 
ATOM     11  C   UNL     1      -0.500  10.512  21.138  0.00  0.00    +0.000 A 
ATOM     12  C   UNL     1      -0.139  10.263  19.810  0.00  0.00    +0.000 A 
ATOM     13  C   UNL     1       0.729   9.188  19.525  0.00  0.00    +0.000 A 
BRANCH  12  14
ATOM     14  C   UNL     1      -0.666  11.131  18.694  0.00  0.00    +0.000 C 
ATOM     15  F   UNL     1      -0.994  10.432  17.570  0.00  0.00    +0.000 F 
ATOM     16  F   UNL     1      -1.792  11.810  19.048  0.00  0.00    +0.000 F 
ATOM     17  F   UNL     1       0.231  12.075  18.295  0.00  0.00    +0.000 F 
ENDBRANCH  12  14
ENDBRANCH   5   8
ENDBRANCH   1   2
BRANCH   1  19
ATOM     18  O   UNL     1       3.506   2.309  17.259  0.00  0.00    +0.000 OA
ATOM     19  C   UNL     1       3.983   3.406  17.556  0.00  0.00    +0.000 C 
BRANCH  19  20
ATOM     20  C   UNL     1       4.977   4.021  16.629  0.00  0.00    +0.000 A 
ATOM     21  C   UNL     1       5.895   4.989  17.059  0.00  0.00    +0.000 A 
ATOM     22  C   UNL     1       6.811   5.513  16.146  0.00  0.00    +0.000 A 
ATOM     23  C   UNL     1       6.834   5.088  14.817  0.00  0.00    +0.000 A 
ATOM     24  C   UNL     1       5.900   4.154  14.394  0.00  0.00    +0.000 A 
ATOM     25  C   UNL     1       4.965   3.612  15.287  0.00  0.00    +0.000 A 
BRANCH  24  26
ATOM     26  N   UNL     1       5.884   3.693  13.020  0.00  0.00    +0.000 N 
ATOM     27  O   UNL     1       6.977   3.519  12.461  0.00  0.00    +0.000 OA
ATOM     28  O   UNL     1       4.775   3.577  12.489  0.00  0.00    +0.000 OA
ENDBRANCH  24  26
BRANCH  22  29
ATOM     29  O   UNL     1       7.729   6.457  16.517  0.00  0.00    +0.000 OA
ATOM     30  H   UNL     1       7.546   6.741  17.431  0.00  0.00    +0.000 HD
ENDBRANCH  22  29
BRANCH  23  31
ATOM     31  O   UNL     1       7.798   5.592  13.992  0.00  0.00    +0.000 OA
ATOM     32  H   UNL     1       7.947   4.907  13.308  0.00  0.00    +0.000 HD
ENDBRANCH  23  31
ENDBRANCH  19  20
ENDBRANCH   1  19
TORSDOF 8
ENDMDL
