MODEL 1
REMARK VINA RESULT:      -8.4      0.000      0.000
REMARK  Name = 
REMARK  7 active torsions:
REMARK  status: ('A' for Active; 'I' for Inactive)
REMARK    1  A    between atoms: C_1  and  C_2
REMARK    2  A    between atoms: C_2  and  N_3
REMARK    3  A    between atoms: N_3  and  C_4
REMARK    4  A    between atoms: C_9  and  C_10
REMARK    5  A    between atoms: C_15  and  N_16
REMARK    6  A    between atoms: C_17  and  C_19
REMARK    7  A    between atoms: C_19  and  C_20
REMARK                            x       y       z     vdW  Elec       q    Type
REMARK                         _______ _______ _______ _____ _____    ______ ____
ROOT
ATOM      1  C   UNL     1       3.854   3.731  18.173  0.00  0.00    +0.000 A 
ATOM      2  C   UNL     1       3.739   2.344  18.409  0.00  0.00    +0.000 A 
ATOM      3  C   UNL     1       2.500   1.719  18.601  0.00  0.00    +0.000 A 
ATOM      4  C   UNL     1       1.325   2.450  18.484  0.00  0.00    +0.000 A 
ATOM      5  C   UNL     1       1.388   3.802  18.163  0.00  0.00    +0.000 A 
ATOM      6  C   UNL     1       2.629   4.440  17.998  0.00  0.00    +0.000 A 
ENDROOT
BRANCH   1  12
ATOM      7  C   UNL     1       6.115   4.368  17.045  0.00  0.00    +0.000 A 
ATOM      8  C   UNL     1       7.414   4.897  17.232  0.00  0.00    +0.000 A 
ATOM      9  C   UNL     1       7.825   5.469  18.434  0.00  0.00    +0.000 A 
ATOM     10  C   UNL     1       6.928   5.564  19.479  0.00  0.00    +0.000 A 
ATOM     11  C   UNL     1       5.637   5.064  19.320  0.00  0.00    +0.000 A 
ATOM     12  C   UNL     1       5.209   4.388  18.153  0.00  0.00    +0.000 A 
BRANCH   7  13
ATOM     13  N   UNL     1       5.813   3.751  15.813  0.00  0.00    +0.000 N 
ATOM     14  H   UNL     1       4.839   3.518  15.684  0.00  0.00    +0.000 HD
BRANCH  13  16
ATOM     15  C   UNL     1       5.785   3.693  13.352  0.00  0.00    +0.000 C 
ATOM     16  C   UNL     1       6.500   4.194  14.598  0.00  0.00    +0.000 C 
ENDBRANCH  13  16
ENDBRANCH   7  13
ENDBRANCH   1  12
BRANCH   6  17
ATOM     17  N   UNL     1       2.589   5.831  17.709  0.00  0.00    +0.000 N 
ATOM     18  C   UNL     1       2.489   6.744  18.763  0.00  0.00    +0.000 C 
ATOM     19  O   UNL     1       2.332   6.451  19.942  0.00  0.00    +0.000 OA
ATOM     20  H   UNL     1       3.287   6.130  17.036  0.00  0.00    +0.000 HD
BRANCH  18  21
ATOM     21  C   UNL     1       2.535   8.197  18.304  0.00  0.00    +0.000 C 
BRANCH  21  22
ATOM     22  C   UNL     1       1.359   9.051  18.716  0.00  0.00    +0.000 A 
ATOM     23  C   UNL     1       0.478   9.523  17.729  0.00  0.00    +0.000 A 
ATOM     24  C   UNL     1      -0.648  10.274  18.075  0.00  0.00    +0.000 A 
ATOM     25  C   UNL     1      -0.916  10.553  19.412  0.00  0.00    +0.000 A 
ATOM     26  C   UNL     1      -0.066  10.069  20.403  0.00  0.00    +0.000 A 
ATOM     27  C   UNL     1       1.058   9.314  20.060  0.00  0.00    +0.000 A 
ENDBRANCH  21  22
ENDBRANCH  18  21
ENDBRANCH   6  17
TORSDOF 6
ENDMDL
MODEL 2
REMARK VINA RESULT:      -8.3      0.347      1.022
REMARK  Name = 
REMARK  7 active torsions:
REMARK  status: ('A' for Active; 'I' for Inactive)
REMARK    1  A    between atoms: C_1  and  C_2
REMARK    2  A    between atoms: C_2  and  N_3
REMARK    3  A    between atoms: N_3  and  C_4
REMARK    4  A    between atoms: C_9  and  C_10
REMARK    5  A    between atoms: C_15  and  N_16
REMARK    6  A    between atoms: C_17  and  C_19
REMARK    7  A    between atoms: C_19  and  C_20
REMARK                            x       y       z     vdW  Elec       q    Type
REMARK                         _______ _______ _______ _____ _____    ______ ____
ROOT
ATOM      1  C   UNL     1       3.820   3.982  18.085  0.00  0.00    +0.000 A 
ATOM      2  C   UNL     1       3.768   2.587  18.297  0.00  0.00    +0.000 A 
ATOM      3  C   UNL     1       2.562   1.909  18.512  0.00  0.00    +0.000 A 
ATOM      4  C   UNL     1       1.355   2.593  18.445  0.00  0.00    +0.000 A 
ATOM      5  C   UNL     1       1.353   3.952  18.149  0.00  0.00    +0.000 A 
ATOM      6  C   UNL     1       2.563   4.644  17.960  0.00  0.00    +0.000 A 
ENDROOT
BRANCH   1  12
ATOM      7  C   UNL     1       5.894   4.959  16.848  0.00  0.00    +0.000 A 
ATOM      8  C   UNL     1       7.196   5.499  16.980  0.00  0.00    +0.000 A 
ATOM      9  C   UNL     1       7.753   5.818  18.217  0.00  0.00    +0.000 A 
ATOM     10  C   UNL     1       7.003   5.641  19.362  0.00  0.00    +0.000 A 
ATOM     11  C   UNL     1       5.713   5.124  19.262  0.00  0.00    +0.000 A 
ATOM     12  C   UNL     1       5.146   4.695  18.039  0.00  0.00    +0.000 A 
BRANCH   7  13
ATOM     13  N   UNL     1       5.443   4.608  15.559  0.00  0.00    +0.000 N 
ATOM     14  H   UNL     1       4.734   5.219  15.178  0.00  0.00    +0.000 HD
BRANCH  13  16
ATOM     15  C   UNL     1       5.703   3.745  13.268  0.00  0.00    +0.000 C 
ATOM     16  C   UNL     1       6.399   4.095  14.575  0.00  0.00    +0.000 C 
ENDBRANCH  13  16
ENDBRANCH   7  13
ENDBRANCH   1  12
BRANCH   6  17
ATOM     17  N   UNL     1       2.458   6.037  17.701  0.00  0.00    +0.000 N 
ATOM     18  C   UNL     1       2.469   6.933  18.774  0.00  0.00    +0.000 C 
ATOM     19  O   UNL     1       2.464   6.621  19.958  0.00  0.00    +0.000 OA
ATOM     20  H   UNL     1       3.062   6.361  16.953  0.00  0.00    +0.000 HD
BRANCH  18  21
ATOM     21  C   UNL     1       2.427   8.393  18.336  0.00  0.00    +0.000 C 
BRANCH  21  22
ATOM     22  C   UNL     1       1.189   9.161  18.734  0.00  0.00    +0.000 A 
ATOM     23  C   UNL     1       1.020   9.537  20.077  0.00  0.00    +0.000 A 
ATOM     24  C   UNL     1      -0.087  10.291  20.476  0.00  0.00    +0.000 A 
ATOM     25  C   UNL     1      -1.033  10.690  19.536  0.00  0.00    +0.000 A 
ATOM     26  C   UNL     1      -0.864  10.348  18.197  0.00  0.00    +0.000 A 
ATOM     27  C   UNL     1       0.244   9.599  17.795  0.00  0.00    +0.000 A 
ENDBRANCH  21  22
ENDBRANCH  18  21
ENDBRANCH   6  17
TORSDOF 6
ENDMDL
MODEL 3
REMARK VINA RESULT:      -8.1      1.047      2.651
REMARK  Name = 
REMARK  7 active torsions:
REMARK  status: ('A' for Active; 'I' for Inactive)
REMARK    1  A    between atoms: C_1  and  C_2
REMARK    2  A    between atoms: C_2  and  N_3
REMARK    3  A    between atoms: N_3  and  C_4
REMARK    4  A    between atoms: C_9  and  C_10
REMARK    5  A    between atoms: C_15  and  N_16
REMARK    6  A    between atoms: C_17  and  C_19
REMARK    7  A    between atoms: C_19  and  C_20
REMARK                            x       y       z     vdW  Elec       q    Type
REMARK                         _______ _______ _______ _____ _____    ______ ____
ROOT
ATOM      1  C   UNL     1       3.670   3.353  17.500  0.00  0.00    +0.000 A 
ATOM      2  C   UNL     1       3.616   1.978  17.814  0.00  0.00    +0.000 A 
ATOM      3  C   UNL     1       2.622   1.438  18.640  0.00  0.00    +0.000 A 
ATOM      4  C   UNL     1       1.599   2.246  19.118  0.00  0.00    +0.000 A 
ATOM      5  C   UNL     1       1.562   3.589  18.760  0.00  0.00    +0.000 A 
ATOM      6  C   UNL     1       2.573   4.142  17.955  0.00  0.00    +0.000 A 
ENDROOT
BRANCH   1  12
ATOM      7  C   UNL     1       6.017   4.479  17.380  0.00  0.00    +0.000 A 
ATOM      8  C   UNL     1       6.976   5.111  16.553  0.00  0.00    +0.000 A 
ATOM      9  C   UNL     1       6.851   5.170  15.167  0.00  0.00    +0.000 A 
ATOM     10  C   UNL     1       5.771   4.559  14.559  0.00  0.00    +0.000 A 
ATOM     11  C   UNL     1       4.817   3.916  15.346  0.00  0.00    +0.000 A 
ATOM     12  C   UNL     1       4.854   3.918  16.761  0.00  0.00    +0.000 A 
BRANCH   7  13
ATOM     13  N   UNL     1       6.200   4.527  18.777  0.00  0.00    +0.000 N 
ATOM     14  H   UNL     1       6.463   3.649  19.200  0.00  0.00    +0.000 HD
BRANCH  13  16
ATOM     15  C   UNL     1       8.217   5.381  19.900  0.00  0.00    +0.000 C 
ATOM     16  C   UNL     1       6.824   5.706  19.382  0.00  0.00    +0.000 C 
ENDBRANCH  13  16
ENDBRANCH   7  13
ENDBRANCH   1  12
BRANCH   6  17
ATOM     17  N   UNL     1       2.466   5.532  17.676  0.00  0.00    +0.000 N 
ATOM     18  C   UNL     1       3.048   6.450  18.555  0.00  0.00    +0.000 C 
ATOM     19  O   UNL     1       3.575   6.171  19.625  0.00  0.00    +0.000 OA
ATOM     20  H   UNL     1       2.672   5.773  16.712  0.00  0.00    +0.000 HD
BRANCH  18  21
ATOM     21  C   UNL     1       2.920   7.894  18.084  0.00  0.00    +0.000 C 
BRANCH  21  22
ATOM     22  C   UNL     1       1.750   8.666  18.650  0.00  0.00    +0.000 A 
ATOM     23  C   UNL     1       1.478   8.583  20.027  0.00  0.00    +0.000 A 
ATOM     24  C   UNL     1       0.437   9.319  20.596  0.00  0.00    +0.000 A 
ATOM     25  C   UNL     1      -0.339  10.159  19.801  0.00  0.00    +0.000 A 
ATOM     26  C   UNL     1      -0.063  10.272  18.441  0.00  0.00    +0.000 A 
ATOM     27  C   UNL     1       0.981   9.540  17.870  0.00  0.00    +0.000 A 
ENDBRANCH  21  22
ENDBRANCH  18  21
ENDBRANCH   6  17
TORSDOF 6
ENDMDL
MODEL 4
REMARK VINA RESULT:      -8.0      0.871      1.150
REMARK  Name = 
REMARK  7 active torsions:
REMARK  status: ('A' for Active; 'I' for Inactive)
REMARK    1  A    between atoms: C_1  and  C_2
REMARK    2  A    between atoms: C_2  and  N_3
REMARK    3  A    between atoms: N_3  and  C_4
REMARK    4  A    between atoms: C_9  and  C_10
REMARK    5  A    between atoms: C_15  and  N_16
REMARK    6  A    between atoms: C_17  and  C_19
REMARK    7  A    between atoms: C_19  and  C_20
REMARK                            x       y       z     vdW  Elec       q    Type
REMARK                         _______ _______ _______ _____ _____    ______ ____
ROOT
ATOM      1  C   UNL     1       3.856   3.830  18.424  0.00  0.00    +0.000 A 
ATOM      2  C   UNL     1       3.646   2.517  18.896  0.00  0.00    +0.000 A 
ATOM      3  C   UNL     1       2.365   2.004  19.133  0.00  0.00    +0.000 A 
ATOM      4  C   UNL     1       1.242   2.764  18.830  0.00  0.00    +0.000 A 
ATOM      5  C   UNL     1       1.401   4.031  18.279  0.00  0.00    +0.000 A 
ATOM      6  C   UNL     1       2.685   4.561  18.065  0.00  0.00    +0.000 A 
ENDROOT
BRANCH   1  12
ATOM      7  C   UNL     1       6.158   4.215  17.266  0.00  0.00    +0.000 A 
ATOM      8  C   UNL     1       7.486   4.681  17.416  0.00  0.00    +0.000 A 
ATOM      9  C   UNL     1       7.924   5.345  18.560  0.00  0.00    +0.000 A 
ATOM     10  C   UNL     1       7.028   5.597  19.580  0.00  0.00    +0.000 A 
ATOM     11  C   UNL     1       5.710   5.162  19.455  0.00  0.00    +0.000 A 
ATOM     12  C   UNL     1       5.248   4.400  18.356  0.00  0.00    +0.000 A 
BRANCH   7  13
ATOM     13  N   UNL     1       5.828   3.498  16.098  0.00  0.00    +0.000 N 
ATOM     14  H   UNL     1       5.094   2.813  16.215  0.00  0.00    +0.000 HD
BRANCH  13  16
ATOM     15  C   UNL     1       5.413   5.647  14.971  0.00  0.00    +0.000 C 
ATOM     16  C   UNL     1       5.814   4.189  14.807  0.00  0.00    +0.000 C 
ENDBRANCH  13  16
ENDBRANCH   7  13
ENDBRANCH   1  12
BRANCH   6  17
ATOM     17  N   UNL     1       2.742   5.878  17.533  0.00  0.00    +0.000 N 
ATOM     18  C   UNL     1       2.631   6.969  18.400  0.00  0.00    +0.000 C 
ATOM     19  O   UNL     1       2.387   6.901  19.598  0.00  0.00    +0.000 OA
ATOM     20  H   UNL     1       3.496   6.019  16.869  0.00  0.00    +0.000 HD
BRANCH  18  21
ATOM     21  C   UNL     1       2.788   8.313  17.696  0.00  0.00    +0.000 C 
BRANCH  21  22
ATOM     22  C   UNL     1       1.771   9.367  18.063  0.00  0.00    +0.000 A 
ATOM     23  C   UNL     1       2.216  10.647  18.435  0.00  0.00    +0.000 A 
ATOM     24  C   UNL     1       1.305  11.663  18.734  0.00  0.00    +0.000 A 
ATOM     25  C   UNL     1      -0.063  11.418  18.652  0.00  0.00    +0.000 A 
ATOM     26  C   UNL     1      -0.519  10.164  18.258  0.00  0.00    +0.000 A 
ATOM     27  C   UNL     1       0.391   9.147  17.954  0.00  0.00    +0.000 A 
ENDBRANCH  21  22
ENDBRANCH  18  21
ENDBRANCH   6  17
TORSDOF 6
ENDMDL
MODEL 5
REMARK VINA RESULT:      -8.0      0.783      1.417
REMARK  Name = 
REMARK  7 active torsions:
REMARK  status: ('A' for Active; 'I' for Inactive)
REMARK    1  A    between atoms: C_1  and  C_2
REMARK    2  A    between atoms: C_2  and  N_3
REMARK    3  A    between atoms: N_3  and  C_4
REMARK    4  A    between atoms: C_9  and  C_10
REMARK    5  A    between atoms: C_15  and  N_16
REMARK    6  A    between atoms: C_17  and  C_19
REMARK    7  A    between atoms: C_19  and  C_20
REMARK                            x       y       z     vdW  Elec       q    Type
REMARK                         _______ _______ _______ _____ _____    ______ ____
ROOT
ATOM      1  C   UNL     1       3.729   3.801  18.097  0.00  0.00    +0.000 A 
ATOM      2  C   UNL     1       3.698   2.390  18.097  0.00  0.00    +0.000 A 
ATOM      3  C   UNL     1       2.521   1.667  18.328  0.00  0.00    +0.000 A 
ATOM      4  C   UNL     1       1.314   2.335  18.491  0.00  0.00    +0.000 A 
ATOM      5  C   UNL     1       1.282   3.723  18.409  0.00  0.00    +0.000 A 
ATOM      6  C   UNL     1       2.465   4.454  18.205  0.00  0.00    +0.000 A 
ENDROOT
BRANCH   1  12
ATOM      7  C   UNL     1       5.798   4.746  16.828  0.00  0.00    +0.000 A 
ATOM      8  C   UNL     1       7.089   5.315  16.943  0.00  0.00    +0.000 A 
ATOM      9  C   UNL     1       7.629   5.710  18.165  0.00  0.00    +0.000 A 
ATOM     10  C   UNL     1       6.870   5.582  19.312  0.00  0.00    +0.000 A 
ATOM     11  C   UNL     1       5.590   5.037  19.228  0.00  0.00    +0.000 A 
ATOM     12  C   UNL     1       5.042   4.533  18.025  0.00  0.00    +0.000 A 
BRANCH   7  13
ATOM     13  N   UNL     1       5.366   4.318  15.556  0.00  0.00    +0.000 N 
ATOM     14  H   UNL     1       4.550   4.798  15.202  0.00  0.00    +0.000 HD
BRANCH  13  16
ATOM     15  C   UNL     1       5.699   3.768  13.179  0.00  0.00    +0.000 C 
ATOM     16  C   UNL     1       6.358   3.971  14.535  0.00  0.00    +0.000 C 
ENDBRANCH  13  16
ENDBRANCH   7  13
ENDBRANCH   1  12
BRANCH   6  17
ATOM     17  N   UNL     1       2.334   5.869  18.175  0.00  0.00    +0.000 N 
ATOM     18  C   UNL     1       2.241   6.571  19.381  0.00  0.00    +0.000 C 
ATOM     19  O   UNL     1       2.164   6.064  20.492  0.00  0.00    +0.000 OA
ATOM     20  H   UNL     1       2.978   6.326  17.538  0.00  0.00    +0.000 HD
BRANCH  18  21
ATOM     21  C   UNL     1       2.184   8.083  19.190  0.00  0.00    +0.000 C 
BRANCH  21  22
ATOM     22  C   UNL     1       1.233   8.822  20.103  0.00  0.00    +0.000 A 
ATOM     23  C   UNL     1       1.316   8.613  21.490  0.00  0.00    +0.000 A 
ATOM     24  C   UNL     1       0.489   9.314  22.371  0.00  0.00    +0.000 A 
ATOM     25  C   UNL     1      -0.423  10.243  21.878  0.00  0.00    +0.000 A 
ATOM     26  C   UNL     1      -0.497  10.481  20.508  0.00  0.00    +0.000 A 
ATOM     27  C   UNL     1       0.333   9.784  19.627  0.00  0.00    +0.000 A 
ENDBRANCH  21  22
ENDBRANCH  18  21
ENDBRANCH   6  17
TORSDOF 6
ENDMDL
MODEL 6
REMARK VINA RESULT:      -7.7      1.608      2.604
REMARK  Name = 
REMARK  7 active torsions:
REMARK  status: ('A' for Active; 'I' for Inactive)
REMARK    1  A    between atoms: C_1  and  C_2
REMARK    2  A    between atoms: C_2  and  N_3
REMARK    3  A    between atoms: N_3  and  C_4
REMARK    4  A    between atoms: C_9  and  C_10
REMARK    5  A    between atoms: C_15  and  N_16
REMARK    6  A    between atoms: C_17  and  C_19
REMARK    7  A    between atoms: C_19  and  C_20
REMARK                            x       y       z     vdW  Elec       q    Type
REMARK                         _______ _______ _______ _____ _____    ______ ____
ROOT
ATOM      1  C   UNL     1       4.090   3.821  19.006  0.00  0.00    +0.000 A 
ATOM      2  C   UNL     1       3.935   2.501  19.480  0.00  0.00    +0.000 A 
ATOM      3  C   UNL     1       3.214   2.205  20.644  0.00  0.00    +0.000 A 
ATOM      4  C   UNL     1       2.556   3.216  21.333  0.00  0.00    +0.000 A 
ATOM      5  C   UNL     1       2.608   4.519  20.851  0.00  0.00    +0.000 A 
ATOM      6  C   UNL     1       3.353   4.826  19.699  0.00  0.00    +0.000 A 
ENDROOT
BRANCH   1  12
ATOM      7  C   UNL     1       6.325   4.686  17.983  0.00  0.00    +0.000 A 
ATOM      8  C   UNL     1       7.017   5.043  16.801  0.00  0.00    +0.000 A 
ATOM      9  C   UNL     1       6.494   4.819  15.529  0.00  0.00    +0.000 A 
ATOM     10  C   UNL     1       5.271   4.191  15.402  0.00  0.00    +0.000 A 
ATOM     11  C   UNL     1       4.573   3.815  16.548  0.00  0.00    +0.000 A 
ATOM     12  C   UNL     1       5.020   4.111  17.857  0.00  0.00    +0.000 A 
BRANCH   7  13
ATOM     13  N   UNL     1       6.908   5.012  19.225  0.00  0.00    +0.000 N 
ATOM     14  H   UNL     1       6.834   4.291  19.930  0.00  0.00    +0.000 HD
BRANCH  13  16
ATOM     15  C   UNL     1       7.998   7.126  18.590  0.00  0.00    +0.000 C 
ATOM     16  C   UNL     1       8.162   5.768  19.257  0.00  0.00    +0.000 C 
ENDBRANCH  13  16
ENDBRANCH   7  13
ENDBRANCH   1  12
BRANCH   6  17
ATOM     17  N   UNL     1       3.374   6.193  19.307  0.00  0.00    +0.000 N 
ATOM     18  C   UNL     1       2.477   6.636  18.331  0.00  0.00    +0.000 C 
ATOM     19  O   UNL     1       1.715   5.922  17.692  0.00  0.00    +0.000 OA
ATOM     20  H   UNL     1       3.411   6.841  20.087  0.00  0.00    +0.000 HD
BRANCH  18  21
ATOM     21  C   UNL     1       2.565   8.136  18.073  0.00  0.00    +0.000 C 
BRANCH  21  22
ATOM     22  C   UNL     1       1.484   8.975  18.714  0.00  0.00    +0.000 A 
ATOM     23  C   UNL     1       0.637   9.740  17.895  0.00  0.00    +0.000 A 
ATOM     24  C   UNL     1      -0.406  10.489  18.446  0.00  0.00    +0.000 A 
ATOM     25  C   UNL     1      -0.623  10.475  19.821  0.00  0.00    +0.000 A 
ATOM     26  C   UNL     1       0.191   9.700  20.642  0.00  0.00    +0.000 A 
ATOM     27  C   UNL     1       1.232   8.946  20.092  0.00  0.00    +0.000 A 
ENDBRANCH  21  22
ENDBRANCH  18  21
ENDBRANCH   6  17
TORSDOF 6
ENDMDL
MODEL 7
REMARK VINA RESULT:      -7.7      2.220      6.430
REMARK  Name = 
REMARK  7 active torsions:
REMARK  status: ('A' for Active; 'I' for Inactive)
REMARK    1  A    between atoms: C_1  and  C_2
REMARK    2  A    between atoms: C_2  and  N_3
REMARK    3  A    between atoms: N_3  and  C_4
REMARK    4  A    between atoms: C_9  and  C_10
REMARK    5  A    between atoms: C_15  and  N_16
REMARK    6  A    between atoms: C_17  and  C_19
REMARK    7  A    between atoms: C_19  and  C_20
REMARK                            x       y       z     vdW  Elec       q    Type
REMARK                         _______ _______ _______ _____ _____    ______ ____
ROOT
ATOM      1  C   UNL     1       2.471   5.077  19.938  0.00  0.00    +0.000 A 
ATOM      2  C   UNL     1       1.433   4.656  20.797  0.00  0.00    +0.000 A 
ATOM      3  C   UNL     1       1.334   3.337  21.258  0.00  0.00    +0.000 A 
ATOM      4  C   UNL     1       2.317   2.410  20.937  0.00  0.00    +0.000 A 
ATOM      5  C   UNL     1       3.405   2.804  20.166  0.00  0.00    +0.000 A 
ATOM      6  C   UNL     1       3.496   4.119  19.678  0.00  0.00    +0.000 A 
ENDROOT
BRANCH   1  12
ATOM      7  C   UNL     1       1.963   7.632  19.979  0.00  0.00    +0.000 A 
ATOM      8  C   UNL     1       1.850   8.820  19.219  0.00  0.00    +0.000 A 
ATOM      9  C   UNL     1       2.223   8.892  17.879  0.00  0.00    +0.000 A 
ATOM     10  C   UNL     1       2.759   7.777  17.266  0.00  0.00    +0.000 A 
ATOM     11  C   UNL     1       2.895   6.596  17.993  0.00  0.00    +0.000 A 
ATOM     12  C   UNL     1       2.439   6.451  19.324  0.00  0.00    +0.000 A 
BRANCH   7  13
ATOM     13  N   UNL     1       1.500   7.641  21.311  0.00  0.00    +0.000 N 
ATOM     14  H   UNL     1       1.902   6.930  21.905  0.00  0.00    +0.000 HD
BRANCH  13  16
ATOM     15  C   UNL     1      -0.214   9.055  22.371  0.00  0.00    +0.000 C 
ATOM     16  C   UNL     1       1.249   8.921  21.978  0.00  0.00    +0.000 C 
ENDBRANCH  13  16
ENDBRANCH   7  13
ENDBRANCH   1  12
BRANCH   6  17
ATOM     17  N   UNL     1       4.627   4.414  18.869  0.00  0.00    +0.000 N 
ATOM     18  C   UNL     1       4.664   3.945  17.552  0.00  0.00    +0.000 C 
ATOM     19  O   UNL     1       3.836   3.202  17.040  0.00  0.00    +0.000 OA
ATOM     20  H   UNL     1       4.923   5.383  18.917  0.00  0.00    +0.000 HD
BRANCH  18  21
ATOM     21  C   UNL     1       5.900   4.406  16.787  0.00  0.00    +0.000 C 
BRANCH  21  22
ATOM     22  C   UNL     1       6.652   5.566  17.396  0.00  0.00    +0.000 A 
ATOM     23  C   UNL     1       7.562   5.320  18.437  0.00  0.00    +0.000 A 
ATOM     24  C   UNL     1       8.313   6.359  18.992  0.00  0.00    +0.000 A 
ATOM     25  C   UNL     1       8.173   7.656  18.506  0.00  0.00    +0.000 A 
ATOM     26  C   UNL     1       7.295   7.910  17.456  0.00  0.00    +0.000 A 
ATOM     27  C   UNL     1       6.547   6.871  16.896  0.00  0.00    +0.000 A 
ENDBRANCH  21  22
ENDBRANCH  18  21
ENDBRANCH   6  17
TORSDOF 6
ENDMDL
MODEL 8
REMARK VINA RESULT:      -7.7      2.547      7.751
REMARK  Name = 
REMARK  7 active torsions:
REMARK  status: ('A' for Active; 'I' for Inactive)
REMARK    1  A    between atoms: C_1  and  C_2
REMARK    2  A    between atoms: C_2  and  N_3
REMARK    3  A    between atoms: N_3  and  C_4
REMARK    4  A    between atoms: C_9  and  C_10
REMARK    5  A    between atoms: C_15  and  N_16
REMARK    6  A    between atoms: C_17  and  C_19
REMARK    7  A    between atoms: C_19  and  C_20
REMARK                            x       y       z     vdW  Elec       q    Type
REMARK                         _______ _______ _______ _____ _____    ______ ____
ROOT
ATOM      1  C   UNL     1       5.285   5.048  18.087  0.00  0.00    +0.000 A 
ATOM      2  C   UNL     1       5.857   5.257  19.360  0.00  0.00    +0.000 A 
ATOM      3  C   UNL     1       7.121   5.836  19.526  0.00  0.00    +0.000 A 
ATOM      4  C   UNL     1       7.826   6.300  18.422  0.00  0.00    +0.000 A 
ATOM      5  C   UNL     1       7.261   6.196  17.155  0.00  0.00    +0.000 A 
ATOM      6  C   UNL     1       6.004   5.590  16.981  0.00  0.00    +0.000 A 
ENDROOT
BRANCH   1  12
ATOM      7  C   UNL     1       2.691   4.822  17.970  0.00  0.00    +0.000 A 
ATOM      8  C   UNL     1       1.587   3.938  17.983  0.00  0.00    +0.000 A 
ATOM      9  C   UNL     1       1.733   2.553  17.933  0.00  0.00    +0.000 A 
ATOM     10  C   UNL     1       2.999   2.011  17.829  0.00  0.00    +0.000 A 
ATOM     11  C   UNL     1       4.106   2.858  17.799  0.00  0.00    +0.000 A 
ATOM     12  C   UNL     1       4.009   4.261  17.947  0.00  0.00    +0.000 A 
BRANCH   7  13
ATOM     13  N   UNL     1       2.444   6.205  18.089  0.00  0.00    +0.000 N 
ATOM     14  H   UNL     1       1.688   6.551  17.515  0.00  0.00    +0.000 HD
BRANCH  13  16
ATOM     15  C   UNL     1       1.844   6.034  20.470  0.00  0.00    +0.000 C 
ATOM     16  C   UNL     1       2.556   6.847  19.401  0.00  0.00    +0.000 C 
ENDBRANCH  13  16
ENDBRANCH   7  13
ENDBRANCH   1  12
BRANCH   6  17
ATOM     17  N   UNL     1       5.529   5.498  15.644  0.00  0.00    +0.000 N 
ATOM     18  C   UNL     1       5.830   4.359  14.891  0.00  0.00    +0.000 C 
ATOM     19  O   UNL     1       6.565   3.447  15.248  0.00  0.00    +0.000 OA
ATOM     20  H   UNL     1       4.554   5.755  15.538  0.00  0.00    +0.000 HD
BRANCH  18  21
ATOM     21  C   UNL     1       5.189   4.369  13.508  0.00  0.00    +0.000 C 
BRANCH  21  22
ATOM     22  C   UNL     1       5.799   3.427  12.497  0.00  0.00    +0.000 A 
ATOM     23  C   UNL     1       7.142   3.603  12.121  0.00  0.00    +0.000 A 
ATOM     24  C   UNL     1       7.756   2.723  11.227  0.00  0.00    +0.000 A 
ATOM     25  C   UNL     1       7.042   1.647  10.707  0.00  0.00    +0.000 A 
ATOM     26  C   UNL     1       5.720   1.444  11.092  0.00  0.00    +0.000 A 
ATOM     27  C   UNL     1       5.105   2.320  11.989  0.00  0.00    +0.000 A 
ENDBRANCH  21  22
ENDBRANCH  18  21
ENDBRANCH   6  17
TORSDOF 6
ENDMDL
MODEL 9
REMARK VINA RESULT:      -7.7      4.347      7.425
REMARK  Name = 
REMARK  7 active torsions:
REMARK  status: ('A' for Active; 'I' for Inactive)
REMARK    1  A    between atoms: C_1  and  C_2
REMARK    2  A    between atoms: C_2  and  N_3
REMARK    3  A    between atoms: N_3  and  C_4
REMARK    4  A    between atoms: C_9  and  C_10
REMARK    5  A    between atoms: C_15  and  N_16
REMARK    6  A    between atoms: C_17  and  C_19
REMARK    7  A    between atoms: C_19  and  C_20
REMARK                            x       y       z     vdW  Elec       q    Type
REMARK                         _______ _______ _______ _____ _____    ______ ____
ROOT
ATOM      1  C   UNL     1       1.184   9.428  18.945  0.00  0.00    +0.000 A 
ATOM      2  C   UNL     1       2.044   8.894  17.962  0.00  0.00    +0.000 A 
ATOM      3  C   UNL     1       2.747   7.698  18.154  0.00  0.00    +0.000 A 
ATOM      4  C   UNL     1       2.553   6.953  19.310  0.00  0.00    +0.000 A 
ATOM      5  C   UNL     1       1.646   7.396  20.267  0.00  0.00    +0.000 A 
ATOM      6  C   UNL     1       0.959   8.610  20.092  0.00  0.00    +0.000 A 
ENDROOT
BRANCH   1  12
ATOM      7  C   UNL     1      -0.771  11.070  18.423  0.00  0.00    +0.000 A 
ATOM      8  C   UNL     1      -1.141  12.407  18.143  0.00  0.00    +0.000 A 
ATOM      9  C   UNL     1      -0.243  13.468  18.235  0.00  0.00    +0.000 A 
ATOM     10  C   UNL     1       1.051  13.225  18.650  0.00  0.00    +0.000 A 
ATOM     11  C   UNL     1       1.441  11.920  18.946  0.00  0.00    +0.000 A 
ATOM     12  C   UNL     1       0.591  10.802  18.772  0.00  0.00    +0.000 A 
BRANCH   7  13
ATOM     13  N   UNL     1      -1.734  10.056  18.240  0.00  0.00    +0.000 N 
ATOM     14  H   UNL     1      -1.893   9.471  19.048  0.00  0.00    +0.000 HD
BRANCH  13  16
ATOM     15  C   UNL     1      -2.733   9.929  15.993  0.00  0.00    +0.000 C 
ATOM     16  C   UNL     1      -2.933  10.335  17.445  0.00  0.00    +0.000 C 
ENDBRANCH  13  16
ENDBRANCH   7  13
ENDBRANCH   1  12
BRANCH   6  17
ATOM     17  N   UNL     1       0.083   8.996  21.143  0.00  0.00    +0.000 N 
ATOM     18  C   UNL     1       0.617   9.577  22.297  0.00  0.00    +0.000 C 
ATOM     19  O   UNL     1       1.811   9.705  22.539  0.00  0.00    +0.000 OA
ATOM     20  H   UNL     1      -0.736   9.504  20.827  0.00  0.00    +0.000 HD
BRANCH  18  21
ATOM     21  C   UNL     1      -0.448  10.007  23.299  0.00  0.00    +0.000 C 
BRANCH  21  22
ATOM     22  C   UNL     1      -1.163  11.300  22.980  0.00  0.00    +0.000 A 
ATOM     23  C   UNL     1      -0.544  12.231  22.129  0.00  0.00    +0.000 A 
ATOM     24  C   UNL     1      -1.193  13.415  21.771  0.00  0.00    +0.000 A 
ATOM     25  C   UNL     1      -2.475  13.678  22.247  0.00  0.00    +0.000 A 
ATOM     26  C   UNL     1      -3.111  12.752  23.068  0.00  0.00    +0.000 A 
ATOM     27  C   UNL     1      -2.466  11.565  23.424  0.00  0.00    +0.000 A 
ENDBRANCH  21  22
ENDBRANCH  18  21
ENDBRANCH   6  17
TORSDOF 6
ENDMDL
