MODEL 1
REMARK VINA RESULT:      -7.9      0.000      0.000
REMARK  Name = 
REMARK  12 active torsions:
REMARK  status: ('A' for Active; 'I' for Inactive)
REMARK    1  A    between atoms: C_1  and  C_2
REMARK    2  A    between atoms: C_3  and  N_4
REMARK    3  A    between atoms: C_5  and  C_7
REMARK    4  A    between atoms: C_7  and  C_8
REMARK    5  A    between atoms: C_7  and  O_9
REMARK    6  A    between atoms: O_9  and  C_10
REMARK    7  A    between atoms: C_10  and  C_12
REMARK    8  A    between atoms: C_12  and  O_13
REMARK    9  A    between atoms: O_13  and  C_14
REMARK   10  A    between atoms: C_17  and  C_18
REMARK   11  A    between atoms: N_24  and  C_25
REMARK   12  A    between atoms: N_31  and  C_32
REMARK                            x       y       z     vdW  Elec       q    Type
REMARK                         _______ _______ _______ _____ _____    ______ ____
ROOT
ATOM      1  N   UNL     1       2.611   5.893  20.313  0.00  0.00    +0.000 N 
ATOM      2  C   UNL     1       1.828   4.794  20.610  0.00  0.00    +0.000 C 
ATOM      3  O   UNL     1       0.636   4.705  20.306  0.00  0.00    +0.000 OA
ATOM      4  H   UNL     1       3.621   5.787  20.348  0.00  0.00    +0.000 HD
ENDROOT
BRANCH   1   7
ATOM      5  C   UNL     1       3.204   7.299  17.386  0.00  0.00    +0.000 C 
ATOM      6  C   UNL     1       2.423   7.730  18.586  0.00  0.00    +0.000 A 
ATOM      7  C   UNL     1       2.231   7.103  19.763  0.00  0.00    +0.000 A 
ATOM      8  C   UNL     1       1.413   8.072  20.590  0.00  0.00    +0.000 A 
ATOM      9  O   UNL     1       1.020   7.807  21.718  0.00  0.00    +0.000 OA
ATOM     10  N   UNL     1       1.228   9.213  19.807  0.00  0.00    +0.000 N 
ATOM     11  N   UNL     1       1.729   8.954  18.516  0.00  0.00    +0.000 N 
ATOM     12  C   UNL     1       2.219  10.073  17.707  0.00  0.00    +0.000 C 
BRANCH  10  13
ATOM     13  C   UNL     1       0.381  10.304  20.094  0.00  0.00    +0.000 A 
ATOM     14  C   UNL     1      -0.749  10.542  19.302  0.00  0.00    +0.000 A 
ATOM     15  C   UNL     1      -1.689  11.506  19.686  0.00  0.00    +0.000 A 
ATOM     16  C   UNL     1      -1.485  12.271  20.834  0.00  0.00    +0.000 A 
ATOM     17  C   UNL     1      -0.336  12.082  21.596  0.00  0.00    +0.000 A 
ATOM     18  C   UNL     1       0.588  11.101  21.229  0.00  0.00    +0.000 A 
ENDBRANCH  10  13
ENDBRANCH   1   7
BRANCH   2  19
ATOM     19  C   UNL     1       2.506   3.592  21.322  0.00  0.00    +0.000 C 
ATOM     20  C   UNL     1       1.593   2.550  21.951  0.00  0.00    +0.000 C 
BRANCH  19  21
ATOM     21  O   UNL     1       3.335   2.909  20.348  0.00  0.00    +0.000 OA
BRANCH  21  22
ATOM     22  C   UNL     1       2.710   2.387  19.252  0.00  0.00    +0.000 C 
ATOM     23  O   UNL     1       1.699   1.695  19.284  0.00  0.00    +0.000 OA
BRANCH  22  24
ATOM     24  C   UNL     1       3.425   2.789  17.963  0.00  0.00    +0.000 C 
BRANCH  24  25
ATOM     25  O   UNL     1       4.236   3.939  18.171  0.00  0.00    +0.000 OA
BRANCH  25  26
ATOM     26  C   UNL     1       5.143   4.264  17.194  0.00  0.00    +0.000 A 
ATOM     27  C   UNL     1       6.500   4.534  17.382  0.00  0.00    +0.000 A 
ATOM     28  C   UNL     1       7.315   4.867  16.289  0.00  0.00    +0.000 A 
ATOM     29  C   UNL     1       6.783   4.934  14.997  0.00  0.00    +0.000 A 
ATOM     30  C   UNL     1       5.425   4.660  14.809  0.00  0.00    +0.000 A 
ATOM     31  C   UNL     1       4.617   4.330  15.900  0.00  0.00    +0.000 A 
BRANCH  29  32
ATOM     32  C   UNL     1       7.622   5.282  13.880  0.00  0.00    +0.000 C 
ATOM     33  N   UNL     1       8.291   5.564  12.981  0.00  0.00    +0.000 NA
ENDBRANCH  29  32
ENDBRANCH  25  26
ENDBRANCH  24  25
ENDBRANCH  22  24
ENDBRANCH  21  22
ENDBRANCH  19  21
ENDBRANCH   2  19
TORSDOF 9
ENDMDL
MODEL 2
REMARK VINA RESULT:      -7.8      0.869      1.579
REMARK  Name = 
REMARK  12 active torsions:
REMARK  status: ('A' for Active; 'I' for Inactive)
REMARK    1  A    between atoms: C_1  and  C_2
REMARK    2  A    between atoms: C_3  and  N_4
REMARK    3  A    between atoms: C_5  and  C_7
REMARK    4  A    between atoms: C_7  and  C_8
REMARK    5  A    between atoms: C_7  and  O_9
REMARK    6  A    between atoms: O_9  and  C_10
REMARK    7  A    between atoms: C_10  and  C_12
REMARK    8  A    between atoms: C_12  and  O_13
REMARK    9  A    between atoms: O_13  and  C_14
REMARK   10  A    between atoms: C_17  and  C_18
REMARK   11  A    between atoms: N_24  and  C_25
REMARK   12  A    between atoms: N_31  and  C_32
REMARK                            x       y       z     vdW  Elec       q    Type
REMARK                         _______ _______ _______ _____ _____    ______ ____
ROOT
ATOM      1  N   UNL     1       2.222   6.277  20.517  0.00  0.00    +0.000 N 
ATOM      2  C   UNL     1       2.021   5.009  20.003  0.00  0.00    +0.000 C 
ATOM      3  O   UNL     1       1.609   4.796  18.861  0.00  0.00    +0.000 OA
ATOM      4  H   UNL     1       2.806   6.372  21.343  0.00  0.00    +0.000 HD
ENDROOT
BRANCH   1   7
ATOM      5  C   UNL     1       2.948   7.640  17.600  0.00  0.00    +0.000 C 
ATOM      6  C   UNL     1       2.156   8.110  18.778  0.00  0.00    +0.000 A 
ATOM      7  C   UNL     1       1.908   7.499  19.953  0.00  0.00    +0.000 A 
ATOM      8  C   UNL     1       1.113   8.506  20.755  0.00  0.00    +0.000 A 
ATOM      9  O   UNL     1       0.680   8.264  21.874  0.00  0.00    +0.000 OA
ATOM     10  N   UNL     1       0.996   9.650  19.963  0.00  0.00    +0.000 N 
ATOM     11  N   UNL     1       1.517   9.363  18.686  0.00  0.00    +0.000 N 
ATOM     12  C   UNL     1       2.075  10.455  17.885  0.00  0.00    +0.000 C 
BRANCH  10  13
ATOM     13  C   UNL     1       0.190  10.777  20.223  0.00  0.00    +0.000 A 
ATOM     14  C   UNL     1       0.634  11.768  21.107  0.00  0.00    +0.000 A 
ATOM     15  C   UNL     1      -0.073  12.971  21.231  0.00  0.00    +0.000 A 
ATOM     16  C   UNL     1      -1.251  13.174  20.512  0.00  0.00    +0.000 A 
ATOM     17  C   UNL     1      -1.731  12.171  19.674  0.00  0.00    +0.000 A 
ATOM     18  C   UNL     1      -1.012  10.983  19.529  0.00  0.00    +0.000 A 
ENDBRANCH  10  13
ENDBRANCH   1   7
BRANCH   2  19
ATOM     19  C   UNL     1       2.381   3.796  20.904  0.00  0.00    +0.000 C 
ATOM     20  C   UNL     1       1.234   3.083  21.603  0.00  0.00    +0.000 C 
BRANCH  19  21
ATOM     21  O   UNL     1       3.061   2.816  20.078  0.00  0.00    +0.000 OA
BRANCH  21  22
ATOM     22  C   UNL     1       4.409   2.685  20.246  0.00  0.00    +0.000 C 
ATOM     23  O   UNL     1       4.945   1.968  21.082  0.00  0.00    +0.000 OA
BRANCH  22  24
ATOM     24  C   UNL     1       5.178   3.539  19.240  0.00  0.00    +0.000 C 
BRANCH  24  25
ATOM     25  O   UNL     1       4.449   3.673  18.025  0.00  0.00    +0.000 OA
BRANCH  25  26
ATOM     26  C   UNL     1       5.138   4.076  16.910  0.00  0.00    +0.000 A 
ATOM     27  C   UNL     1       4.688   4.007  15.590  0.00  0.00    +0.000 A 
ATOM     28  C   UNL     1       5.506   4.445  14.537  0.00  0.00    +0.000 A 
ATOM     29  C   UNL     1       6.782   4.958  14.792  0.00  0.00    +0.000 A 
ATOM     30  C   UNL     1       7.231   5.030  16.114  0.00  0.00    +0.000 A 
ATOM     31  C   UNL     1       6.413   4.590  17.159  0.00  0.00    +0.000 A 
BRANCH  29  32
ATOM     32  C   UNL     1       7.619   5.400  13.709  0.00  0.00    +0.000 C 
ATOM     33  N   UNL     1       8.290   5.751  12.835  0.00  0.00    +0.000 NA
ENDBRANCH  29  32
ENDBRANCH  25  26
ENDBRANCH  24  25
ENDBRANCH  22  24
ENDBRANCH  21  22
ENDBRANCH  19  21
ENDBRANCH   2  19
TORSDOF 9
ENDMDL
MODEL 3
REMARK VINA RESULT:      -7.8      1.942      2.390
REMARK  Name = 
REMARK  12 active torsions:
REMARK  status: ('A' for Active; 'I' for Inactive)
REMARK    1  A    between atoms: C_1  and  C_2
REMARK    2  A    between atoms: C_3  and  N_4
REMARK    3  A    between atoms: C_5  and  C_7
REMARK    4  A    between atoms: C_7  and  C_8
REMARK    5  A    between atoms: C_7  and  O_9
REMARK    6  A    between atoms: O_9  and  C_10
REMARK    7  A    between atoms: C_10  and  C_12
REMARK    8  A    between atoms: C_12  and  O_13
REMARK    9  A    between atoms: O_13  and  C_14
REMARK   10  A    between atoms: C_17  and  C_18
REMARK   11  A    between atoms: N_24  and  C_25
REMARK   12  A    between atoms: N_31  and  C_32
REMARK                            x       y       z     vdW  Elec       q    Type
REMARK                         _______ _______ _______ _____ _____    ______ ____
ROOT
ATOM      1  N   UNL     1       2.430   6.140  20.192  0.00  0.00    +0.000 N 
ATOM      2  C   UNL     1       1.743   4.960  20.406  0.00  0.00    +0.000 C 
ATOM      3  O   UNL     1       0.528   4.841  20.237  0.00  0.00    +0.000 OA
ATOM      4  H   UNL     1       3.441   6.095  20.089  0.00  0.00    +0.000 HD
ENDROOT
BRANCH   1   7
ATOM      5  C   UNL     1       2.733   8.082  17.540  0.00  0.00    +0.000 C 
ATOM      6  C   UNL     1       1.999   8.228  18.834  0.00  0.00    +0.000 A 
ATOM      7  C   UNL     1       1.928   7.391  19.888  0.00  0.00    +0.000 A 
ATOM      8  C   UNL     1       1.094   8.128  20.914  0.00  0.00    +0.000 A 
ATOM      9  O   UNL     1       0.793   7.637  21.993  0.00  0.00    +0.000 OA
ATOM     10  N   UNL     1       0.775   9.369  20.358  0.00  0.00    +0.000 N 
ATOM     11  N   UNL     1       1.213   9.383  19.019  0.00  0.00    +0.000 N 
ATOM     12  C   UNL     1       1.567  10.664  18.402  0.00  0.00    +0.000 C 
BRANCH  10  13
ATOM     13  C   UNL     1      -0.131  10.317  20.876  0.00  0.00    +0.000 A 
ATOM     14  C   UNL     1      -0.143  10.599  22.248  0.00  0.00    +0.000 A 
ATOM     15  C   UNL     1      -0.907  11.663  22.743  0.00  0.00    +0.000 A 
ATOM     16  C   UNL     1      -1.699  12.422  21.881  0.00  0.00    +0.000 A 
ATOM     17  C   UNL     1      -1.737  12.113  20.524  0.00  0.00    +0.000 A 
ATOM     18  C   UNL     1      -0.954  11.070  20.026  0.00  0.00    +0.000 A 
ENDBRANCH  10  13
ENDBRANCH   1   7
BRANCH   2  19
ATOM     19  C   UNL     1       2.562   3.712  20.835  0.00  0.00    +0.000 C 
ATOM     20  C   UNL     1       1.866   2.697  21.728  0.00  0.00    +0.000 C 
BRANCH  19  21
ATOM     21  O   UNL     1       2.975   3.017  19.631  0.00  0.00    +0.000 OA
BRANCH  21  22
ATOM     22  C   UNL     1       4.270   3.179  19.229  0.00  0.00    +0.000 C 
ATOM     23  O   UNL     1       5.253   2.838  19.876  0.00  0.00    +0.000 OA
BRANCH  22  24
ATOM     24  C   UNL     1       4.344   3.830  17.850  0.00  0.00    +0.000 C 
BRANCH  24  25
ATOM     25  O   UNL     1       5.690   3.905  17.395  0.00  0.00    +0.000 OA
BRANCH  25  26
ATOM     26  C   UNL     1       6.378   5.069  17.629  0.00  0.00    +0.000 A 
ATOM     27  C   UNL     1       7.379   5.260  18.583  0.00  0.00    +0.000 A 
ATOM     28  C   UNL     1       7.994   6.513  18.726  0.00  0.00    +0.000 A 
ATOM     29  C   UNL     1       7.615   7.589  17.916  0.00  0.00    +0.000 A 
ATOM     30  C   UNL     1       6.615   7.396  16.958  0.00  0.00    +0.000 A 
ATOM     31  C   UNL     1       6.004   6.146  16.821  0.00  0.00    +0.000 A 
BRANCH  29  32
ATOM     32  C   UNL     1       8.244   8.874  18.070  0.00  0.00    +0.000 C 
ATOM     33  N   UNL     1       8.754   9.904  18.193  0.00  0.00    +0.000 NA
ENDBRANCH  29  32
ENDBRANCH  25  26
ENDBRANCH  24  25
ENDBRANCH  22  24
ENDBRANCH  21  22
ENDBRANCH  19  21
ENDBRANCH   2  19
TORSDOF 9
ENDMDL
MODEL 4
REMARK VINA RESULT:      -7.7      1.849      2.061
REMARK  Name = 
REMARK  12 active torsions:
REMARK  status: ('A' for Active; 'I' for Inactive)
REMARK    1  A    between atoms: C_1  and  C_2
REMARK    2  A    between atoms: C_3  and  N_4
REMARK    3  A    between atoms: C_5  and  C_7
REMARK    4  A    between atoms: C_7  and  C_8
REMARK    5  A    between atoms: C_7  and  O_9
REMARK    6  A    between atoms: O_9  and  C_10
REMARK    7  A    between atoms: C_10  and  C_12
REMARK    8  A    between atoms: C_12  and  O_13
REMARK    9  A    between atoms: O_13  and  C_14
REMARK   10  A    between atoms: C_17  and  C_18
REMARK   11  A    between atoms: N_24  and  C_25
REMARK   12  A    between atoms: N_31  and  C_32
REMARK                            x       y       z     vdW  Elec       q    Type
REMARK                         _______ _______ _______ _____ _____    ______ ____
ROOT
ATOM      1  N   UNL     1       2.443   6.276  20.233  0.00  0.00    +0.000 N 
ATOM      2  C   UNL     1       2.120   5.041  19.705  0.00  0.00    +0.000 C 
ATOM      3  O   UNL     1       1.445   4.893  18.684  0.00  0.00    +0.000 OA
ATOM      4  H   UNL     1       3.209   6.328  20.899  0.00  0.00    +0.000 HD
ENDROOT
BRANCH   1   7
ATOM      5  C   UNL     1       2.905   8.034  17.477  0.00  0.00    +0.000 C 
ATOM      6  C   UNL     1       2.144   8.293  18.738  0.00  0.00    +0.000 A 
ATOM      7  C   UNL     1       2.007   7.527  19.838  0.00  0.00    +0.000 A 
ATOM      8  C   UNL     1       1.181   8.362  20.793  0.00  0.00    +0.000 A 
ATOM      9  O   UNL     1       0.829   7.954  21.891  0.00  0.00    +0.000 OA
ATOM     10  N   UNL     1       0.935   9.579  20.154  0.00  0.00    +0.000 N 
ATOM     11  N   UNL     1       1.407   9.490  18.829  0.00  0.00    +0.000 N 
ATOM     12  C   UNL     1       1.836  10.714  18.146  0.00  0.00    +0.000 C 
BRANCH  10  13
ATOM     13  C   UNL     1       0.060  10.597  20.586  0.00  0.00    +0.000 A 
ATOM     14  C   UNL     1      -1.022  10.980  19.784  0.00  0.00    +0.000 A 
ATOM     15  C   UNL     1      -1.995  11.856  20.283  0.00  0.00    +0.000 A 
ATOM     16  C   UNL     1      -1.870  12.391  21.565  0.00  0.00    +0.000 A 
ATOM     17  C   UNL     1      -0.768  12.060  22.348  0.00  0.00    +0.000 A 
ATOM     18  C   UNL     1       0.187  11.166  21.862  0.00  0.00    +0.000 A 
ENDBRANCH  10  13
ENDBRANCH   1   7
BRANCH   2  19
ATOM     19  C   UNL     1       2.683   3.779  20.415  0.00  0.00    +0.000 C 
ATOM     20  C   UNL     1       2.067   3.401  21.753  0.00  0.00    +0.000 C 
BRANCH  19  21
ATOM     21  O   UNL     1       2.504   2.650  19.522  0.00  0.00    +0.000 OA
BRANCH  21  22
ATOM     22  C   UNL     1       3.618   2.160  18.903  0.00  0.00    +0.000 C 
ATOM     23  O   UNL     1       3.665   1.114  18.268  0.00  0.00    +0.000 OA
BRANCH  22  24
ATOM     24  C   UNL     1       4.810   3.097  19.087  0.00  0.00    +0.000 C 
BRANCH  24  25
ATOM     25  O   UNL     1       5.110   3.781  17.876  0.00  0.00    +0.000 OA
BRANCH  25  26
ATOM     26  C   UNL     1       5.911   4.892  17.953  0.00  0.00    +0.000 A 
ATOM     27  C   UNL     1       7.010   5.062  18.798  0.00  0.00    +0.000 A 
ATOM     28  C   UNL     1       7.738   6.262  18.784  0.00  0.00    +0.000 A 
ATOM     29  C   UNL     1       7.376   7.305  17.924  0.00  0.00    +0.000 A 
ATOM     30  C   UNL     1       6.278   7.133  17.077  0.00  0.00    +0.000 A 
ATOM     31  C   UNL     1       5.555   5.937  17.096  0.00  0.00    +0.000 A 
BRANCH  29  32
ATOM     32  C   UNL     1       8.121   8.536  17.918  0.00  0.00    +0.000 C 
ATOM     33  N   UNL     1       8.718   9.526  17.908  0.00  0.00    +0.000 NA
ENDBRANCH  29  32
ENDBRANCH  25  26
ENDBRANCH  24  25
ENDBRANCH  22  24
ENDBRANCH  21  22
ENDBRANCH  19  21
ENDBRANCH   2  19
TORSDOF 9
ENDMDL
MODEL 5
REMARK VINA RESULT:      -7.6      1.993      3.699
REMARK  Name = 
REMARK  12 active torsions:
REMARK  status: ('A' for Active; 'I' for Inactive)
REMARK    1  A    between atoms: C_1  and  C_2
REMARK    2  A    between atoms: C_3  and  N_4
REMARK    3  A    between atoms: C_5  and  C_7
REMARK    4  A    between atoms: C_7  and  C_8
REMARK    5  A    between atoms: C_7  and  O_9
REMARK    6  A    between atoms: O_9  and  C_10
REMARK    7  A    between atoms: C_10  and  C_12
REMARK    8  A    between atoms: C_12  and  O_13
REMARK    9  A    between atoms: O_13  and  C_14
REMARK   10  A    between atoms: C_17  and  C_18
REMARK   11  A    between atoms: N_24  and  C_25
REMARK   12  A    between atoms: N_31  and  C_32
REMARK                            x       y       z     vdW  Elec       q    Type
REMARK                         _______ _______ _______ _____ _____    ______ ____
ROOT
ATOM      1  N   UNL     1       0.992   8.860  19.213  0.00  0.00    +0.000 N 
ATOM      2  C   UNL     1       1.939   8.761  18.212  0.00  0.00    +0.000 C 
ATOM      3  O   UNL     1       2.209   9.681  17.437  0.00  0.00    +0.000 OA
ATOM      4  H   UNL     1       1.016   8.178  19.966  0.00  0.00    +0.000 HD
ENDROOT
BRANCH   1   7
ATOM      5  C   UNL     1      -1.645   9.999  17.586  0.00  0.00    +0.000 C 
ATOM      6  C   UNL     1      -0.983  10.400  18.865  0.00  0.00    +0.000 A 
ATOM      7  C   UNL     1       0.110   9.892  19.470  0.00  0.00    +0.000 A 
ATOM      8  C   UNL     1       0.319  10.764  20.690  0.00  0.00    +0.000 A 
ATOM      9  O   UNL     1       1.213  10.561  21.500  0.00  0.00    +0.000 OA
ATOM     10  N   UNL     1      -0.678  11.741  20.662  0.00  0.00    +0.000 N 
ATOM     11  N   UNL     1      -1.570  11.439  19.615  0.00  0.00    +0.000 N 
ATOM     12  C   UNL     1      -2.308  12.530  18.973  0.00  0.00    +0.000 C 
BRANCH  10  13
ATOM     13  C   UNL     1      -0.986  12.662  21.686  0.00  0.00    +0.000 A 
ATOM     14  C   UNL     1      -2.005  12.377  22.602  0.00  0.00    +0.000 A 
ATOM     15  C   UNL     1      -2.195  13.194  23.724  0.00  0.00    +0.000 A 
ATOM     16  C   UNL     1      -1.401  14.325  23.914  0.00  0.00    +0.000 A 
ATOM     17  C   UNL     1      -0.422  14.647  22.978  0.00  0.00    +0.000 A 
ATOM     18  C   UNL     1      -0.214  13.818  21.874  0.00  0.00    +0.000 A 
ENDBRANCH  10  13
ENDBRANCH   1   7
BRANCH   2  19
ATOM     19  C   UNL     1       2.734   7.431  18.095  0.00  0.00    +0.000 C 
ATOM     20  C   UNL     1       4.151   7.514  17.548  0.00  0.00    +0.000 C 
BRANCH  19  21
ATOM     21  O   UNL     1       2.815   6.845  19.419  0.00  0.00    +0.000 OA
BRANCH  21  22
ATOM     22  C   UNL     1       2.525   5.516  19.533  0.00  0.00    +0.000 C 
ATOM     23  O   UNL     1       1.498   4.985  19.128  0.00  0.00    +0.000 OA
BRANCH  22  24
ATOM     24  C   UNL     1       3.660   4.758  20.219  0.00  0.00    +0.000 C 
BRANCH  24  25
ATOM     25  O   UNL     1       4.114   3.681  19.408  0.00  0.00    +0.000 OA
BRANCH  25  26
ATOM     26  C   UNL     1       4.758   3.993  18.238  0.00  0.00    +0.000 A 
ATOM     27  C   UNL     1       4.242   3.855  16.948  0.00  0.00    +0.000 A 
ATOM     28  C   UNL     1       5.019   4.202  15.832  0.00  0.00    +0.000 A 
ATOM     29  C   UNL     1       6.320   4.690  15.993  0.00  0.00    +0.000 A 
ATOM     30  C   UNL     1       6.835   4.831  17.284  0.00  0.00    +0.000 A 
ATOM     31  C   UNL     1       6.058   4.482  18.393  0.00  0.00    +0.000 A 
BRANCH  29  32
ATOM     32  C   UNL     1       7.115   5.038  14.845  0.00  0.00    +0.000 C 
ATOM     33  N   UNL     1       7.750   5.316  13.919  0.00  0.00    +0.000 NA
ENDBRANCH  29  32
ENDBRANCH  25  26
ENDBRANCH  24  25
ENDBRANCH  22  24
ENDBRANCH  21  22
ENDBRANCH  19  21
ENDBRANCH   2  19
TORSDOF 9
ENDMDL
MODEL 6
REMARK VINA RESULT:      -7.6      2.723      9.979
REMARK  Name = 
REMARK  12 active torsions:
REMARK  status: ('A' for Active; 'I' for Inactive)
REMARK    1  A    between atoms: C_1  and  C_2
REMARK    2  A    between atoms: C_3  and  N_4
REMARK    3  A    between atoms: C_5  and  C_7
REMARK    4  A    between atoms: C_7  and  C_8
REMARK    5  A    between atoms: C_7  and  O_9
REMARK    6  A    between atoms: O_9  and  C_10
REMARK    7  A    between atoms: C_10  and  C_12
REMARK    8  A    between atoms: C_12  and  O_13
REMARK    9  A    between atoms: O_13  and  C_14
REMARK   10  A    between atoms: C_17  and  C_18
REMARK   11  A    between atoms: N_24  and  C_25
REMARK   12  A    between atoms: N_31  and  C_32
REMARK                            x       y       z     vdW  Elec       q    Type
REMARK                         _______ _______ _______ _____ _____    ______ ____
ROOT
ATOM      1  N   UNL     1       2.045   7.734  19.742  0.00  0.00    +0.000 N 
ATOM      2  C   UNL     1       1.427   8.740  19.024  0.00  0.00    +0.000 C 
ATOM      3  O   UNL     1       1.177   8.662  17.819  0.00  0.00    +0.000 OA
ATOM      4  H   UNL     1       1.974   7.754  20.756  0.00  0.00    +0.000 HD
ENDROOT
BRANCH   1   7
ATOM      5  C   UNL     1       1.400   4.563  20.394  0.00  0.00    +0.000 C 
ATOM      6  C   UNL     1       2.378   5.241  19.489  0.00  0.00    +0.000 A 
ATOM      7  C   UNL     1       2.597   6.554  19.279  0.00  0.00    +0.000 A 
ATOM      8  C   UNL     1       3.757   6.605  18.309  0.00  0.00    +0.000 A 
ATOM      9  O   UNL     1       4.200   7.656  17.866  0.00  0.00    +0.000 OA
ATOM     10  N   UNL     1       4.135   5.283  18.063  0.00  0.00    +0.000 N 
ATOM     11  N   UNL     1       3.198   4.430  18.679  0.00  0.00    +0.000 N 
ATOM     12  C   UNL     1       3.627   3.096  19.108  0.00  0.00    +0.000 C 
BRANCH  10  13
ATOM     13  C   UNL     1       5.052   4.836  17.090  0.00  0.00    +0.000 A 
ATOM     14  C   UNL     1       4.606   4.507  15.805  0.00  0.00    +0.000 A 
ATOM     15  C   UNL     1       5.528   4.238  14.785  0.00  0.00    +0.000 A 
ATOM     16  C   UNL     1       6.897   4.249  15.053  0.00  0.00    +0.000 A 
ATOM     17  C   UNL     1       7.348   4.518  16.342  0.00  0.00    +0.000 A 
ATOM     18  C   UNL     1       6.430   4.814  17.352  0.00  0.00    +0.000 A 
ENDBRANCH  10  13
ENDBRANCH   1   7
BRANCH   2  19
ATOM     19  C   UNL     1       0.985  10.014  19.795  0.00  0.00    +0.000 C 
ATOM     20  C   UNL     1       0.295  11.108  18.994  0.00  0.00    +0.000 C 
BRANCH  19  21
ATOM     21  O   UNL     1       0.071   9.604  20.843  0.00  0.00    +0.000 OA
BRANCH  21  22
ATOM     22  C   UNL     1       0.531   9.654  22.128  0.00  0.00    +0.000 C 
ATOM     23  O   UNL     1       1.691   9.451  22.466  0.00  0.00    +0.000 OA
BRANCH  22  24
ATOM     24  C   UNL     1      -0.588  10.014  23.103  0.00  0.00    +0.000 C 
BRANCH  24  25
ATOM     25  O   UNL     1      -0.739  11.426  23.202  0.00  0.00    +0.000 OA
BRANCH  25  26
ATOM     26  C   UNL     1      -1.866  11.986  22.656  0.00  0.00    +0.000 A 
ATOM     27  C   UNL     1      -2.026  12.395  21.330  0.00  0.00    +0.000 A 
ATOM     28  C   UNL     1      -3.235  12.968  20.906  0.00  0.00    +0.000 A 
ATOM     29  C   UNL     1      -4.297  13.137  21.800  0.00  0.00    +0.000 A 
ATOM     30  C   UNL     1      -4.137  12.724  23.126  0.00  0.00    +0.000 A 
ATOM     31  C   UNL     1      -2.931  12.156  23.545  0.00  0.00    +0.000 A 
BRANCH  29  32
ATOM     32  C   UNL     1      -5.532  13.730  21.361  0.00  0.00    +0.000 C 
ATOM     33  N   UNL     1      -6.526  14.208  21.014  0.00  0.00    +0.000 NA
ENDBRANCH  29  32
ENDBRANCH  25  26
ENDBRANCH  24  25
ENDBRANCH  22  24
ENDBRANCH  21  22
ENDBRANCH  19  21
ENDBRANCH   2  19
TORSDOF 9
ENDMDL
MODEL 7
REMARK VINA RESULT:      -7.5      2.018      3.559
REMARK  Name = 
REMARK  12 active torsions:
REMARK  status: ('A' for Active; 'I' for Inactive)
REMARK    1  A    between atoms: C_1  and  C_2
REMARK    2  A    between atoms: C_3  and  N_4
REMARK    3  A    between atoms: C_5  and  C_7
REMARK    4  A    between atoms: C_7  and  C_8
REMARK    5  A    between atoms: C_7  and  O_9
REMARK    6  A    between atoms: O_9  and  C_10
REMARK    7  A    between atoms: C_10  and  C_12
REMARK    8  A    between atoms: C_12  and  O_13
REMARK    9  A    between atoms: O_13  and  C_14
REMARK   10  A    between atoms: C_17  and  C_18
REMARK   11  A    between atoms: N_24  and  C_25
REMARK   12  A    between atoms: N_31  and  C_32
REMARK                            x       y       z     vdW  Elec       q    Type
REMARK                         _______ _______ _______ _____ _____    ______ ____
ROOT
ATOM      1  N   UNL     1       1.620   9.243  19.467  0.00  0.00    +0.000 N 
ATOM      2  C   UNL     1       1.790   8.693  18.211  0.00  0.00    +0.000 C 
ATOM      3  O   UNL     1       1.427   9.247  17.171  0.00  0.00    +0.000 OA
ATOM      4  H   UNL     1       2.173   8.869  20.234  0.00  0.00    +0.000 HD
ENDROOT
BRANCH   1   7
ATOM      5  C   UNL     1       2.118  12.434  18.782  0.00  0.00    +0.000 C 
ATOM      6  C   UNL     1       1.077  11.710  19.574  0.00  0.00    +0.000 A 
ATOM      7  C   UNL     1       0.941  10.393  19.824  0.00  0.00    +0.000 A 
ATOM      8  C   UNL     1      -0.261  10.293  20.739  0.00  0.00    +0.000 A 
ATOM      9  O   UNL     1      -0.699   9.222  21.137  0.00  0.00    +0.000 OA
ATOM     10  N   UNL     1      -0.704  11.597  20.966  0.00  0.00    +0.000 N 
ATOM     11  N   UNL     1       0.032  12.468  20.139  0.00  0.00    +0.000 N 
ATOM     12  C   UNL     1       0.231  13.856  20.567  0.00  0.00    +0.000 C 
BRANCH  10  13
ATOM     13  C   UNL     1      -1.897  11.983  21.612  0.00  0.00    +0.000 A 
ATOM     14  C   UNL     1      -1.998  11.902  23.006  0.00  0.00    +0.000 A 
ATOM     15  C   UNL     1      -3.105  12.449  23.666  0.00  0.00    +0.000 A 
ATOM     16  C   UNL     1      -4.139  13.038  22.938  0.00  0.00    +0.000 A 
ATOM     17  C   UNL     1      -4.074  13.072  21.547  0.00  0.00    +0.000 A 
ATOM     18  C   UNL     1      -2.958  12.551  20.891  0.00  0.00    +0.000 A 
ENDBRANCH  10  13
ENDBRANCH   1   7
BRANCH   2  19
ATOM     19  C   UNL     1       2.522   7.327  18.110  0.00  0.00    +0.000 C 
ATOM     20  C   UNL     1       3.918   7.327  17.508  0.00  0.00    +0.000 C 
BRANCH  19  21
ATOM     21  O   UNL     1       2.629   6.781  19.450  0.00  0.00    +0.000 OA
BRANCH  21  22
ATOM     22  C   UNL     1       2.519   5.427  19.583  0.00  0.00    +0.000 C 
ATOM     23  O   UNL     1       1.506   4.779  19.346  0.00  0.00    +0.000 OA
BRANCH  22  24
ATOM     24  C   UNL     1       3.833   4.808  20.055  0.00  0.00    +0.000 C 
BRANCH  24  25
ATOM     25  O   UNL     1       4.245   3.764  19.179  0.00  0.00    +0.000 OA
BRANCH  25  26
ATOM     26  C   UNL     1       5.049   4.101  18.120  0.00  0.00    +0.000 A 
ATOM     27  C   UNL     1       6.332   4.646  18.197  0.00  0.00    +0.000 A 
ATOM     28  C   UNL     1       7.042   4.957  17.027  0.00  0.00    +0.000 A 
ATOM     29  C   UNL     1       6.478   4.727  15.768  0.00  0.00    +0.000 A 
ATOM     30  C   UNL     1       5.194   4.179  15.692  0.00  0.00    +0.000 A 
ATOM     31  C   UNL     1       4.490   3.872  16.860  0.00  0.00    +0.000 A 
BRANCH  29  32
ATOM     32  C   UNL     1       7.207   5.054  14.572  0.00  0.00    +0.000 C 
ATOM     33  N   UNL     1       7.792   5.323  13.612  0.00  0.00    +0.000 NA
ENDBRANCH  29  32
ENDBRANCH  25  26
ENDBRANCH  24  25
ENDBRANCH  22  24
ENDBRANCH  21  22
ENDBRANCH  19  21
ENDBRANCH   2  19
TORSDOF 9
ENDMDL
MODEL 8
REMARK VINA RESULT:      -7.5      1.813      2.373
REMARK  Name = 
REMARK  12 active torsions:
REMARK  status: ('A' for Active; 'I' for Inactive)
REMARK    1  A    between atoms: C_1  and  C_2
REMARK    2  A    between atoms: C_3  and  N_4
REMARK    3  A    between atoms: C_5  and  C_7
REMARK    4  A    between atoms: C_7  and  C_8
REMARK    5  A    between atoms: C_7  and  O_9
REMARK    6  A    between atoms: O_9  and  C_10
REMARK    7  A    between atoms: C_10  and  C_12
REMARK    8  A    between atoms: C_12  and  O_13
REMARK    9  A    between atoms: O_13  and  C_14
REMARK   10  A    between atoms: C_17  and  C_18
REMARK   11  A    between atoms: N_24  and  C_25
REMARK   12  A    between atoms: N_31  and  C_32
REMARK                            x       y       z     vdW  Elec       q    Type
REMARK                         _______ _______ _______ _____ _____    ______ ____
ROOT
ATOM      1  N   UNL     1       1.591   6.452  20.113  0.00  0.00    +0.000 N 
ATOM      2  C   UNL     1       2.763   5.735  19.966  0.00  0.00    +0.000 C 
ATOM      3  O   UNL     1       3.840   6.247  19.654  0.00  0.00    +0.000 OA
ATOM      4  H   UNL     1       0.825   6.021  20.624  0.00  0.00    +0.000 HD
ENDROOT
BRANCH   1   7
ATOM      5  C   UNL     1       2.625   8.452  17.699  0.00  0.00    +0.000 C 
ATOM      6  C   UNL     1       1.725   8.652  18.876  0.00  0.00    +0.000 A 
ATOM      7  C   UNL     1       1.351   7.785  19.837  0.00  0.00    +0.000 A 
ATOM      8  C   UNL     1       0.492   8.597  20.782  0.00  0.00    +0.000 A 
ATOM      9  O   UNL     1      -0.054   8.109  21.761  0.00  0.00    +0.000 OA
ATOM     10  N   UNL     1       0.471   9.903  20.285  0.00  0.00    +0.000 N 
ATOM     11  N   UNL     1       1.115   9.913  19.032  0.00  0.00    +0.000 N 
ATOM     12  C   UNL     1       1.765  11.146  18.579  0.00  0.00    +0.000 C 
BRANCH  10  13
ATOM     13  C   UNL     1      -0.343  10.963  20.735  0.00  0.00    +0.000 A 
ATOM     14  C   UNL     1      -0.041  11.618  21.935  0.00  0.00    +0.000 A 
ATOM     15  C   UNL     1      -0.731  12.782  22.297  0.00  0.00    +0.000 A 
ATOM     16  C   UNL     1      -1.756  13.273  21.488  0.00  0.00    +0.000 A 
ATOM     17  C   UNL     1      -2.101  12.596  20.322  0.00  0.00    +0.000 A 
ATOM     18  C   UNL     1      -1.396  11.451  19.948  0.00  0.00    +0.000 A 
ENDBRANCH  10  13
ENDBRANCH   1   7
BRANCH   2  19
ATOM     19  C   UNL     1       2.722   4.210  20.260  0.00  0.00    +0.000 C 
ATOM     20  C   UNL     1       2.221   3.779  21.630  0.00  0.00    +0.000 C 
BRANCH  19  21
ATOM     21  O   UNL     1       1.861   3.590  19.270  0.00  0.00    +0.000 OA
BRANCH  21  22
ATOM     22  C   UNL     1       2.392   3.367  18.033  0.00  0.00    +0.000 C 
ATOM     23  O   UNL     1       1.811   3.567  16.973  0.00  0.00    +0.000 OA
BRANCH  22  24
ATOM     24  C   UNL     1       3.826   2.849  18.131  0.00  0.00    +0.000 C 
BRANCH  24  25
ATOM     25  O   UNL     1       4.595   3.270  17.010  0.00  0.00    +0.000 OA
BRANCH  25  26
ATOM     26  C   UNL     1       5.268   4.461  17.110  0.00  0.00    +0.000 A 
ATOM     27  C   UNL     1       4.990   5.629  16.397  0.00  0.00    +0.000 A 
ATOM     28  C   UNL     1       5.771   6.780  16.589  0.00  0.00    +0.000 A 
ATOM     29  C   UNL     1       6.836   6.776  17.495  0.00  0.00    +0.000 A 
ATOM     30  C   UNL     1       7.111   5.607  18.211  0.00  0.00    +0.000 A 
ATOM     31  C   UNL     1       6.333   4.463  18.015  0.00  0.00    +0.000 A 
BRANCH  29  32
ATOM     32  C   UNL     1       7.638   7.956  17.683  0.00  0.00    +0.000 C 
ATOM     33  N   UNL     1       8.278   8.906  17.839  0.00  0.00    +0.000 NA
ENDBRANCH  29  32
ENDBRANCH  25  26
ENDBRANCH  24  25
ENDBRANCH  22  24
ENDBRANCH  21  22
ENDBRANCH  19  21
ENDBRANCH   2  19
TORSDOF 9
ENDMDL
MODEL 9
REMARK VINA RESULT:      -7.5      3.184     10.625
REMARK  Name = 
REMARK  12 active torsions:
REMARK  status: ('A' for Active; 'I' for Inactive)
REMARK    1  A    between atoms: C_1  and  C_2
REMARK    2  A    between atoms: C_3  and  N_4
REMARK    3  A    between atoms: C_5  and  C_7
REMARK    4  A    between atoms: C_7  and  C_8
REMARK    5  A    between atoms: C_7  and  O_9
REMARK    6  A    between atoms: O_9  and  C_10
REMARK    7  A    between atoms: C_10  and  C_12
REMARK    8  A    between atoms: C_12  and  O_13
REMARK    9  A    between atoms: O_13  and  C_14
REMARK   10  A    between atoms: C_17  and  C_18
REMARK   11  A    between atoms: N_24  and  C_25
REMARK   12  A    between atoms: N_31  and  C_32
REMARK                            x       y       z     vdW  Elec       q    Type
REMARK                         _______ _______ _______ _____ _____    ______ ____
ROOT
ATOM      1  N   UNL     1       1.671   8.071  19.058  0.00  0.00    +0.000 N 
ATOM      2  C   UNL     1       1.358   8.764  20.211  0.00  0.00    +0.000 C 
ATOM      3  O   UNL     1       1.775   8.450  21.328  0.00  0.00    +0.000 OA
ATOM      4  H   UNL     1       1.520   8.532  18.165  0.00  0.00    +0.000 HD
ENDROOT
BRANCH   1   7
ATOM      5  C   UNL     1       1.305   5.101  20.453  0.00  0.00    +0.000 C 
ATOM      6  C   UNL     1       2.265   5.644  19.444  0.00  0.00    +0.000 A 
ATOM      7  C   UNL     1       2.365   6.883  18.923  0.00  0.00    +0.000 A 
ATOM      8  C   UNL     1       3.573   6.826  18.013  0.00  0.00    +0.000 A 
ATOM      9  O   UNL     1       3.936   7.780  17.339  0.00  0.00    +0.000 OA
ATOM     10  N   UNL     1       4.095   5.535  18.117  0.00  0.00    +0.000 N 
ATOM     11  N   UNL     1       3.211   4.758  18.891  0.00  0.00    +0.000 N 
ATOM     12  C   UNL     1       3.743   3.625  19.652  0.00  0.00    +0.000 C 
BRANCH  10  13
ATOM     13  C   UNL     1       5.112   4.970  17.319  0.00  0.00    +0.000 A 
ATOM     14  C   UNL     1       4.781   4.272  16.152  0.00  0.00    +0.000 A 
ATOM     15  C   UNL     1       5.785   3.867  15.263  0.00  0.00    +0.000 A 
ATOM     16  C   UNL     1       7.126   4.114  15.556  0.00  0.00    +0.000 A 
ATOM     17  C   UNL     1       7.468   4.757  16.742  0.00  0.00    +0.000 A 
ATOM     18  C   UNL     1       6.466   5.185  17.615  0.00  0.00    +0.000 A 
ENDBRANCH  10  13
ENDBRANCH   1   7
BRANCH   2  19
ATOM     19  C   UNL     1       0.472  10.033  20.077  0.00  0.00    +0.000 C 
ATOM     20  C   UNL     1      -0.209  10.267  18.738  0.00  0.00    +0.000 C 
BRANCH  19  21
ATOM     21  O   UNL     1      -0.569   9.957  21.084  0.00  0.00    +0.000 OA
BRANCH  21  22
ATOM     22  C   UNL     1      -0.461  10.793  22.158  0.00  0.00    +0.000 C 
ATOM     23  O   UNL     1      -0.274  10.432  23.313  0.00  0.00    +0.000 OA
BRANCH  22  24
ATOM     24  C   UNL     1      -0.588  12.255  21.735  0.00  0.00    +0.000 C 
BRANCH  24  25
ATOM     25  O   UNL     1      -1.213  13.027  22.755  0.00  0.00    +0.000 OA
BRANCH  25  26
ATOM     26  C   UNL     1      -2.579  12.956  22.860  0.00  0.00    +0.000 A 
ATOM     27  C   UNL     1      -3.488  12.924  21.802  0.00  0.00    +0.000 A 
ATOM     28  C   UNL     1      -4.868  12.865  22.053  0.00  0.00    +0.000 A 
ATOM     29  C   UNL     1      -5.353  12.837  23.365  0.00  0.00    +0.000 A 
ATOM     30  C   UNL     1      -4.442  12.865  24.424  0.00  0.00    +0.000 A 
ATOM     31  C   UNL     1      -3.069  12.926  24.169  0.00  0.00    +0.000 A 
BRANCH  29  32
ATOM     32  C   UNL     1      -6.769  12.782  23.617  0.00  0.00    +0.000 C 
ATOM     33  N   UNL     1      -7.907  12.737  23.815  0.00  0.00    +0.000 NA
ENDBRANCH  29  32
ENDBRANCH  25  26
ENDBRANCH  24  25
ENDBRANCH  22  24
ENDBRANCH  21  22
ENDBRANCH  19  21
ENDBRANCH   2  19
TORSDOF 9
ENDMDL
