MODEL 1
REMARK VINA RESULT:      -9.1      0.000      0.000
REMARK  Name = 
REMARK  3 active torsions:
REMARK  status: ('A' for Active; 'I' for Inactive)
REMARK    1  A    between atoms: C_1  and  O_2
REMARK    2  A    between atoms: O_2  and  C_3
REMARK    3  A    between atoms: C_6  and  C_7
REMARK                            x       y       z     vdW  Elec       q    Type
REMARK                         _______ _______ _______ _____ _____    ______ ____
ROOT
ATOM      1  C   UNL     1       2.618   5.667  19.698  0.00  0.00    +0.000 C 
ATOM      2  C   UNL     1       1.734   4.688  20.482  0.00  0.00    +0.000 C 
ATOM      3  C   UNL     1       1.582   3.488  19.561  0.00  0.00    +0.000 C 
ATOM      4  C   UNL     1       1.799   4.089  18.198  0.00  0.00    +0.000 C 
ATOM      5  O   UNL     1       1.389   3.629  17.145  0.00  0.00    +0.000 OA
ATOM      6  N   UNL     1       2.708   5.146  18.332  0.00  0.00    +0.000 N 
ATOM      7  C   UNL     1       4.054   4.708  18.187  0.00  0.00    +0.000 C 
ATOM      8  C   UNL     1       4.950   4.689  17.011  0.00  0.00    +0.000 A 
ATOM      9  C   UNL     1       4.704   4.408  15.684  0.00  0.00    +0.000 A 
ATOM     10  C   UNL     1       5.811   4.209  14.861  0.00  0.00    +0.000 A 
ATOM     11  C   UNL     1       7.123   4.269  15.376  0.00  0.00    +0.000 A 
ATOM     12  C   UNL     1       7.360   4.569  16.721  0.00  0.00    +0.000 A 
ATOM     13  C   UNL     1       6.268   4.804  17.525  0.00  0.00    +0.000 A 
ATOM     14  C   UNL     1       6.228   5.126  19.016  0.00  0.00    +0.000 C 
ATOM     15  C   UNL     1       4.802   5.677  19.074  0.00  0.00    +0.000 C 
ATOM     16  O   UNL     1       3.985   5.636  20.242  0.00  0.00    +0.000 OA
ENDROOT
BRANCH   1  20
ATOM     17  C   UNL     1       0.967   9.708  19.846  0.00  0.00    +0.000 A 
ATOM     18  C   UNL     1       0.957   8.900  20.982  0.00  0.00    +0.000 A 
ATOM     19  C   UNL     1       1.478   7.602  20.935  0.00  0.00    +0.000 A 
ATOM     20  C   UNL     1       2.037   7.080  19.751  0.00  0.00    +0.000 A 
ATOM     21  C   UNL     1       2.094   7.927  18.632  0.00  0.00    +0.000 A 
ATOM     22  C   UNL     1       1.562   9.219  18.684  0.00  0.00    +0.000 A 
ATOM     23  F   UNL     1       1.660   9.980  17.583  0.00  0.00    +0.000 F 
BRANCH  17  25
ATOM     24  C   UNL     1      -0.947  11.059  19.587  0.00  0.00    +0.000 C 
ATOM     25  O   UNL     1       0.410  10.948  20.010  0.00  0.00    +0.000 OA
ENDBRANCH  17  25
ENDBRANCH   1  20
TORSDOF 2
ENDMDL
MODEL 2
REMARK VINA RESULT:      -9.0      0.954      1.354
REMARK  Name = 
REMARK  3 active torsions:
REMARK  status: ('A' for Active; 'I' for Inactive)
REMARK    1  A    between atoms: C_1  and  O_2
REMARK    2  A    between atoms: O_2  and  C_3
REMARK    3  A    between atoms: C_6  and  C_7
REMARK                            x       y       z     vdW  Elec       q    Type
REMARK                         _______ _______ _______ _____ _____    ______ ____
ROOT
ATOM      1  C   UNL     1       2.596   5.756  19.690  0.00  0.00    +0.000 C 
ATOM      2  C   UNL     1       1.688   4.795  20.470  0.00  0.00    +0.000 C 
ATOM      3  C   UNL     1       1.514   3.600  19.546  0.00  0.00    +0.000 C 
ATOM      4  C   UNL     1       1.748   4.199  18.185  0.00  0.00    +0.000 C 
ATOM      5  O   UNL     1       1.332   3.749  17.129  0.00  0.00    +0.000 OA
ATOM      6  N   UNL     1       2.679   5.236  18.323  0.00  0.00    +0.000 N 
ATOM      7  C   UNL     1       4.015   4.768  18.182  0.00  0.00    +0.000 C 
ATOM      8  C   UNL     1       4.915   4.732  17.010  0.00  0.00    +0.000 A 
ATOM      9  C   UNL     1       4.668   4.459  15.681  0.00  0.00    +0.000 A 
ATOM     10  C   UNL     1       5.773   4.237  14.861  0.00  0.00    +0.000 A 
ATOM     11  C   UNL     1       7.084   4.268  15.381  0.00  0.00    +0.000 A 
ATOM     12  C   UNL     1       7.323   4.560  16.728  0.00  0.00    +0.000 A 
ATOM     13  C   UNL     1       6.233   4.818  17.528  0.00  0.00    +0.000 A 
ATOM     14  C   UNL     1       6.195   5.137  19.019  0.00  0.00    +0.000 C 
ATOM     15  C   UNL     1       4.781   5.720  19.074  0.00  0.00    +0.000 C 
ATOM     16  O   UNL     1       3.960   5.695  20.239  0.00  0.00    +0.000 OA
ENDROOT
BRANCH   1  20
ATOM     17  C   UNL     1       1.015   9.825  19.849  0.00  0.00    +0.000 A 
ATOM     18  C   UNL     1       1.521   9.310  18.655  0.00  0.00    +0.000 A 
ATOM     19  C   UNL     1       2.036   8.010  18.603  0.00  0.00    +0.000 A 
ATOM     20  C   UNL     1       2.046   7.181  19.744  0.00  0.00    +0.000 A 
ATOM     21  C   UNL     1       1.478   7.692  20.922  0.00  0.00    +0.000 A 
ATOM     22  C   UNL     1       0.975   8.996  20.969  0.00  0.00    +0.000 A 
ATOM     23  F   UNL     1       0.436   9.417  22.123  0.00  0.00    +0.000 F 
BRANCH  17  25
ATOM     24  C   UNL     1      -0.828  11.250  19.495  0.00  0.00    +0.000 C 
ATOM     25  O   UNL     1       0.562  11.115  19.779  0.00  0.00    +0.000 OA
ENDBRANCH  17  25
ENDBRANCH   1  20
TORSDOF 2
ENDMDL
MODEL 3
REMARK VINA RESULT:      -8.5      1.359      1.778
REMARK  Name = 
REMARK  3 active torsions:
REMARK  status: ('A' for Active; 'I' for Inactive)
REMARK    1  A    between atoms: C_1  and  O_2
REMARK    2  A    between atoms: O_2  and  C_3
REMARK    3  A    between atoms: C_6  and  C_7
REMARK                            x       y       z     vdW  Elec       q    Type
REMARK                         _______ _______ _______ _____ _____    ______ ____
ROOT
ATOM      1  C   UNL     1       3.571   5.592  19.001  0.00  0.00    +0.000 C 
ATOM      2  C   UNL     1       3.137   4.591  20.080  0.00  0.00    +0.000 C 
ATOM      3  C   UNL     1       3.009   3.268  19.343  0.00  0.00    +0.000 C 
ATOM      4  C   UNL     1       2.744   3.703  17.927  0.00  0.00    +0.000 C 
ATOM      5  O   UNL     1       2.186   3.036  17.070  0.00  0.00    +0.000 OA
ATOM      6  N   UNL     1       3.418   4.912  17.713  0.00  0.00    +0.000 N 
ATOM      7  C   UNL     1       4.744   4.701  17.242  0.00  0.00    +0.000 C 
ATOM      8  C   UNL     1       5.298   4.678  15.871  0.00  0.00    +0.000 A 
ATOM      9  C   UNL     1       4.788   4.177  14.692  0.00  0.00    +0.000 A 
ATOM     10  C   UNL     1       5.667   4.064  13.617  0.00  0.00    +0.000 A 
ATOM     11  C   UNL     1       7.025   4.425  13.744  0.00  0.00    +0.000 A 
ATOM     12  C   UNL     1       7.527   4.945  14.941  0.00  0.00    +0.000 A 
ATOM     13  C   UNL     1       6.649   5.094  15.991  0.00  0.00    +0.000 A 
ATOM     14  C   UNL     1       6.922   5.606  17.401  0.00  0.00    +0.000 C 
ATOM     15  C   UNL     1       5.475   5.901  17.802  0.00  0.00    +0.000 C 
ATOM     16  O   UNL     1       5.008   5.879  19.149  0.00  0.00    +0.000 OA
ENDROOT
BRANCH   1  20
ATOM     17  C   UNL     1       1.198   9.250  19.258  0.00  0.00    +0.000 A 
ATOM     18  C   UNL     1       1.849   8.913  18.071  0.00  0.00    +0.000 A 
ATOM     19  C   UNL     1       2.617   7.746  17.989  0.00  0.00    +0.000 A 
ATOM     20  C   UNL     1       2.744   6.875  19.090  0.00  0.00    +0.000 A 
ATOM     21  C   UNL     1       2.034   7.197  20.258  0.00  0.00    +0.000 A 
ATOM     22  C   UNL     1       1.278   8.370  20.337  0.00  0.00    +0.000 A 
ATOM     23  F   UNL     1       0.615   8.612  21.478  0.00  0.00    +0.000 F 
BRANCH  17  25
ATOM     24  C   UNL     1      -0.655  10.416  18.386  0.00  0.00    +0.000 C 
ATOM     25  O   UNL     1       0.498  10.426  19.223  0.00  0.00    +0.000 OA
ENDBRANCH  17  25
ENDBRANCH   1  20
TORSDOF 2
ENDMDL
MODEL 4
REMARK VINA RESULT:      -7.8      3.255      5.741
REMARK  Name = 
REMARK  3 active torsions:
REMARK  status: ('A' for Active; 'I' for Inactive)
REMARK    1  A    between atoms: C_1  and  O_2
REMARK    2  A    between atoms: O_2  and  C_3
REMARK    3  A    between atoms: C_6  and  C_7
REMARK                            x       y       z     vdW  Elec       q    Type
REMARK                         _______ _______ _______ _____ _____    ______ ____
ROOT
ATOM      1  C   UNL     1       0.304  10.594  19.105  0.00  0.00    +0.000 C 
ATOM      2  C   UNL     1       0.638  11.877  19.877  0.00  0.00    +0.000 C 
ATOM      3  C   UNL     1       1.175  11.391  21.213  0.00  0.00    +0.000 C 
ATOM      4  C   UNL     1       0.539  10.033  21.349  0.00  0.00    +0.000 C 
ATOM      5  O   UNL     1       0.343   9.442  22.399  0.00  0.00    +0.000 OA
ATOM      6  N   UNL     1       0.395   9.492  20.066  0.00  0.00    +0.000 N 
ATOM      7  C   UNL     1       1.543   8.749  19.674  0.00  0.00    +0.000 C 
ATOM      8  C   UNL     1       1.840   7.303  19.753  0.00  0.00    +0.000 A 
ATOM      9  C   UNL     1       1.552   6.366  20.723  0.00  0.00    +0.000 A 
ATOM     10  C   UNL     1       2.203   5.137  20.633  0.00  0.00    +0.000 A 
ATOM     11  C   UNL     1       3.134   4.879  19.606  0.00  0.00    +0.000 A 
ATOM     12  C   UNL     1       3.408   5.832  18.620  0.00  0.00    +0.000 A 
ATOM     13  C   UNL     1       2.735   7.030  18.686  0.00  0.00    +0.000 A 
ATOM     14  C   UNL     1       2.851   8.245  17.770  0.00  0.00    +0.000 C 
ATOM     15  C   UNL     1       1.548   8.938  18.173  0.00  0.00    +0.000 C 
ATOM     16  O   UNL     1       1.344  10.347  18.093  0.00  0.00    +0.000 OA
ENDROOT
BRANCH   1  20
ATOM     17  C   UNL     1      -3.639  10.888  17.248  0.00  0.00    +0.000 A 
ATOM     18  C   UNL     1      -3.319  11.677  18.353  0.00  0.00    +0.000 A 
ATOM     19  C   UNL     1      -2.060  11.578  18.955  0.00  0.00    +0.000 A 
ATOM     20  C   UNL     1      -1.078  10.697  18.458  0.00  0.00    +0.000 A 
ATOM     21  C   UNL     1      -1.395   9.954  17.309  0.00  0.00    +0.000 A 
ATOM     22  C   UNL     1      -2.659  10.050  16.720  0.00  0.00    +0.000 A 
ATOM     23  F   UNL     1      -2.892   9.322  15.617  0.00  0.00    +0.000 F 
BRANCH  17  25
ATOM     24  C   UNL     1      -5.703  12.004  17.472  0.00  0.00    +0.000 C 
ATOM     25  O   UNL     1      -4.908  11.057  16.763  0.00  0.00    +0.000 OA
ENDBRANCH  17  25
ENDBRANCH   1  20
TORSDOF 2
ENDMDL
MODEL 5
REMARK VINA RESULT:      -7.5      3.492      7.041
REMARK  Name = 
REMARK  3 active torsions:
REMARK  status: ('A' for Active; 'I' for Inactive)
REMARK    1  A    between atoms: C_1  and  O_2
REMARK    2  A    between atoms: O_2  and  C_3
REMARK    3  A    between atoms: C_6  and  C_7
REMARK                            x       y       z     vdW  Elec       q    Type
REMARK                         _______ _______ _______ _____ _____    ______ ____
ROOT
ATOM      1  C   UNL     1       5.885   5.387  17.000  0.00  0.00    +0.000 C 
ATOM      2  C   UNL     1       6.640   6.711  17.182  0.00  0.00    +0.000 C 
ATOM      3  C   UNL     1       5.645   7.625  17.878  0.00  0.00    +0.000 C 
ATOM      4  C   UNL     1       4.319   7.040  17.472  0.00  0.00    +0.000 C 
ATOM      5  O   UNL     1       3.257   7.640  17.442  0.00  0.00    +0.000 OA
ATOM      6  N   UNL     1       4.483   5.657  17.327  0.00  0.00    +0.000 N 
ATOM      7  C   UNL     1       4.244   4.966  18.547  0.00  0.00    +0.000 C 
ATOM      8  C   UNL     1       3.029   4.306  19.070  0.00  0.00    +0.000 A 
ATOM      9  C   UNL     1       1.698   4.659  18.997  0.00  0.00    +0.000 A 
ATOM     10  C   UNL     1       0.812   3.972  19.824  0.00  0.00    +0.000 A 
ATOM     11  C   UNL     1       1.267   2.975  20.712  0.00  0.00    +0.000 A 
ATOM     12  C   UNL     1       2.617   2.615  20.767  0.00  0.00    +0.000 A 
ATOM     13  C   UNL     1       3.486   3.267  19.922  0.00  0.00    +0.000 A 
ATOM     14  C   UNL     1       4.996   3.097  19.785  0.00  0.00    +0.000 C 
ATOM     15  C   UNL     1       5.161   3.770  18.421  0.00  0.00    +0.000 C 
ATOM     16  O   UNL     1       6.361   4.412  17.995  0.00  0.00    +0.000 OA
ENDROOT
BRANCH   1  20
ATOM     17  C   UNL     1       6.401   3.873  12.936  0.00  0.00    +0.000 A 
ATOM     18  C   UNL     1       5.310   3.470  13.705  0.00  0.00    +0.000 A 
ATOM     19  C   UNL     1       5.147   3.947  15.011  0.00  0.00    +0.000 A 
ATOM     20  C   UNL     1       6.065   4.854  15.579  0.00  0.00    +0.000 A 
ATOM     21  C   UNL     1       7.125   5.296  14.770  0.00  0.00    +0.000 A 
ATOM     22  C   UNL     1       7.287   4.807  13.471  0.00  0.00    +0.000 A 
ATOM     23  F   UNL     1       8.314   5.281  12.748  0.00  0.00    +0.000 F 
BRANCH  17  25
ATOM     24  C   UNL     1       5.696   2.134  11.511  0.00  0.00    +0.000 C 
ATOM     25  O   UNL     1       6.464   3.321  11.684  0.00  0.00    +0.000 OA
ENDBRANCH  17  25
ENDBRANCH   1  20
TORSDOF 2
ENDMDL
MODEL 6
REMARK VINA RESULT:      -7.3      3.517      6.118
REMARK  Name = 
REMARK  3 active torsions:
REMARK  status: ('A' for Active; 'I' for Inactive)
REMARK    1  A    between atoms: C_1  and  O_2
REMARK    2  A    between atoms: O_2  and  C_3
REMARK    3  A    between atoms: C_6  and  C_7
REMARK                            x       y       z     vdW  Elec       q    Type
REMARK                         _______ _______ _______ _____ _____    ______ ____
ROOT
ATOM      1  C   UNL     1       0.144  10.899  19.104  0.00  0.00    +0.000 C 
ATOM      2  C   UNL     1       0.584  12.230  19.729  0.00  0.00    +0.000 C 
ATOM      3  C   UNL     1       1.312  11.832  21.002  0.00  0.00    +0.000 C 
ATOM      4  C   UNL     1       0.706  10.491  21.323  0.00  0.00    +0.000 C 
ATOM      5  O   UNL     1       0.668   9.975  22.428  0.00  0.00    +0.000 OA
ATOM      6  N   UNL     1       0.378   9.865  20.114  0.00  0.00    +0.000 N 
ATOM      7  C   UNL     1       1.459   9.088  19.611  0.00  0.00    +0.000 C 
ATOM      8  C   UNL     1       1.768   7.649  19.745  0.00  0.00    +0.000 A 
ATOM      9  C   UNL     1       1.627   6.783  20.808  0.00  0.00    +0.000 A 
ATOM     10  C   UNL     1       2.261   5.546  20.709  0.00  0.00    +0.000 A 
ATOM     11  C   UNL     1       3.033   5.212  19.578  0.00  0.00    +0.000 A 
ATOM     12  C   UNL     1       3.158   6.093  18.499  0.00  0.00    +0.000 A 
ATOM     13  C   UNL     1       2.498   7.298  18.580  0.00  0.00    +0.000 A 
ATOM     14  C   UNL     1       2.476   8.446  17.576  0.00  0.00    +0.000 C 
ATOM     15  C   UNL     1       1.244   9.175  18.116  0.00  0.00    +0.000 C 
ATOM     16  O   UNL     1       1.026  10.576  17.970  0.00  0.00    +0.000 OA
ENDROOT
BRANCH   1  20
ATOM     17  C   UNL     1      -4.034  11.095  17.846  0.00  0.00    +0.000 A 
ATOM     18  C   UNL     1      -3.180  10.133  17.308  0.00  0.00    +0.000 A 
ATOM     19  C   UNL     1      -1.838  10.074  17.703  0.00  0.00    +0.000 A 
ATOM     20  C   UNL     1      -1.317  10.968  18.660  0.00  0.00    +0.000 A 
ATOM     21  C   UNL     1      -2.204  11.891  19.236  0.00  0.00    +0.000 A 
ATOM     22  C   UNL     1      -3.540  11.952  18.829  0.00  0.00    +0.000 A 
ATOM     23  F   UNL     1      -4.337  12.849  19.429  0.00  0.00    +0.000 F 
BRANCH  17  25
ATOM     24  C   UNL     1      -6.317  10.770  18.334  0.00  0.00    +0.000 C 
ATOM     25  O   UNL     1      -5.315  11.068  17.365  0.00  0.00    +0.000 OA
ENDBRANCH  17  25
ENDBRANCH   1  20
TORSDOF 2
ENDMDL
MODEL 7
REMARK VINA RESULT:      -7.2      4.198      7.129
REMARK  Name = 
REMARK  3 active torsions:
REMARK  status: ('A' for Active; 'I' for Inactive)
REMARK    1  A    between atoms: C_1  and  O_2
REMARK    2  A    between atoms: O_2  and  C_3
REMARK    3  A    between atoms: C_6  and  C_7
REMARK                            x       y       z     vdW  Elec       q    Type
REMARK                         _______ _______ _______ _____ _____    ______ ____
ROOT
ATOM      1  C   UNL     1      -0.818  11.972  19.556  0.00  0.00    +0.000 C 
ATOM      2  C   UNL     1      -0.485  13.297  20.255  0.00  0.00    +0.000 C 
ATOM      3  C   UNL     1       0.297  12.889  21.493  0.00  0.00    +0.000 C 
ATOM      4  C   UNL     1      -0.184  11.484  21.740  0.00  0.00    +0.000 C 
ATOM      5  O   UNL     1      -0.159  10.902  22.812  0.00  0.00    +0.000 OA
ATOM      6  N   UNL     1      -0.478  10.904  20.499  0.00  0.00    +0.000 N 
ATOM      7  C   UNL     1       0.657  10.256  19.937  0.00  0.00    +0.000 C 
ATOM      8  C   UNL     1       1.092   8.844  19.980  0.00  0.00    +0.000 A 
ATOM      9  C   UNL     1       1.045   7.907  20.991  0.00  0.00    +0.000 A 
ATOM     10  C   UNL     1       1.783   6.739  20.810  0.00  0.00    +0.000 A 
ATOM     11  C   UNL     1       2.561   6.541  19.650  0.00  0.00    +0.000 A 
ATOM     12  C   UNL     1       2.589   7.492  18.625  0.00  0.00    +0.000 A 
ATOM     13  C   UNL     1       1.830   8.628  18.787  0.00  0.00    +0.000 A 
ATOM     14  C   UNL     1       1.690   9.827  17.854  0.00  0.00    +0.000 C 
ATOM     15  C   UNL     1       0.409  10.411  18.453  0.00  0.00    +0.000 C 
ATOM     16  O   UNL     1       0.069  11.795  18.394  0.00  0.00    +0.000 OA
ENDROOT
BRANCH   1  20
ATOM     17  C   UNL     1      -5.014  11.880  18.345  0.00  0.00    +0.000 A 
ATOM     18  C   UNL     1      -4.644  12.442  19.567  0.00  0.00    +0.000 A 
ATOM     19  C   UNL     1      -3.302  12.465  19.961  0.00  0.00    +0.000 A 
ATOM     20  C   UNL     1      -2.288  11.938  19.136  0.00  0.00    +0.000 A 
ATOM     21  C   UNL     1      -2.669  11.430  17.883  0.00  0.00    +0.000 A 
ATOM     22  C   UNL     1      -4.013  11.400  17.501  0.00  0.00    +0.000 A 
ATOM     23  F   UNL     1      -4.307  10.912  16.286  0.00  0.00    +0.000 F 
BRANCH  17  25
ATOM     24  C   UNL     1      -6.777  12.890  17.152  0.00  0.00    +0.000 C 
ATOM     25  O   UNL     1      -6.357  11.895  18.082  0.00  0.00    +0.000 OA
ENDBRANCH  17  25
ENDBRANCH   1  20
TORSDOF 2
ENDMDL
MODEL 8
REMARK VINA RESULT:      -7.1      3.219      5.614
REMARK  Name = 
REMARK  3 active torsions:
REMARK  status: ('A' for Active; 'I' for Inactive)
REMARK    1  A    between atoms: C_1  and  O_2
REMARK    2  A    between atoms: O_2  and  C_3
REMARK    3  A    between atoms: C_6  and  C_7
REMARK                            x       y       z     vdW  Elec       q    Type
REMARK                         _______ _______ _______ _____ _____    ______ ____
ROOT
ATOM      1  C   UNL     1       0.526  10.323  19.201  0.00  0.00    +0.000 C 
ATOM      2  C   UNL     1       0.796  11.559  20.070  0.00  0.00    +0.000 C 
ATOM      3  C   UNL     1       1.194  10.995  21.424  0.00  0.00    +0.000 C 
ATOM      4  C   UNL     1       0.533   9.643  21.425  0.00  0.00    +0.000 C 
ATOM      5  O   UNL     1       0.228   9.001  22.417  0.00  0.00    +0.000 OA
ATOM      6  N   UNL     1       0.510   9.172  20.106  0.00  0.00    +0.000 N 
ATOM      7  C   UNL     1       1.683   8.431  19.789  0.00  0.00    +0.000 C 
ATOM      8  C   UNL     1       1.955   6.979  19.820  0.00  0.00    +0.000 A 
ATOM      9  C   UNL     1       1.563   5.997  20.705  0.00  0.00    +0.000 A 
ATOM     10  C   UNL     1       2.207   4.765  20.614  0.00  0.00    +0.000 A 
ATOM     11  C   UNL     1       3.232   4.546  19.671  0.00  0.00    +0.000 A 
ATOM     12  C   UNL     1       3.612   5.544  18.768  0.00  0.00    +0.000 A 
ATOM     13  C   UNL     1       2.948   6.748  18.832  0.00  0.00    +0.000 A 
ATOM     14  C   UNL     1       3.167   8.007  17.998  0.00  0.00    +0.000 C 
ATOM     15  C   UNL     1       1.838   8.698  18.309  0.00  0.00    +0.000 C 
ATOM     16  O   UNL     1       1.658  10.113  18.284  0.00  0.00    +0.000 OA
ENDROOT
BRANCH   1  20
ATOM     17  C   UNL     1      -3.222  10.774  17.004  0.00  0.00    +0.000 A 
ATOM     18  C   UNL     1      -2.235   9.903  16.544  0.00  0.00    +0.000 A 
ATOM     19  C   UNL     1      -1.030   9.763  17.241  0.00  0.00    +0.000 A 
ATOM     20  C   UNL     1      -0.784  10.481  18.429  0.00  0.00    +0.000 A 
ATOM     21  C   UNL     1      -1.812  11.308  18.912  0.00  0.00    +0.000 A 
ATOM     22  C   UNL     1      -3.009  11.451  18.204  0.00  0.00    +0.000 A 
ATOM     23  F   UNL     1      -3.953  12.247  18.727  0.00  0.00    +0.000 F 
BRANCH  17  25
ATOM     24  C   UNL     1      -4.156  10.476  14.861  0.00  0.00    +0.000 C 
ATOM     25  O   UNL     1      -4.346  10.842  16.225  0.00  0.00    +0.000 OA
ENDBRANCH  17  25
ENDBRANCH   1  20
TORSDOF 2
ENDMDL
MODEL 9
REMARK VINA RESULT:      -7.1      4.174      7.047
REMARK  Name = 
REMARK  3 active torsions:
REMARK  status: ('A' for Active; 'I' for Inactive)
REMARK    1  A    between atoms: C_1  and  O_2
REMARK    2  A    between atoms: O_2  and  C_3
REMARK    3  A    between atoms: C_6  and  C_7
REMARK                            x       y       z     vdW  Elec       q    Type
REMARK                         _______ _______ _______ _____ _____    ______ ____
ROOT
ATOM      1  C   UNL     1      -0.721  11.733  19.514  0.00  0.00    +0.000 C 
ATOM      2  C   UNL     1      -0.383  13.066  20.195  0.00  0.00    +0.000 C 
ATOM      3  C   UNL     1       0.428  12.675  21.419  0.00  0.00    +0.000 C 
ATOM      4  C   UNL     1      -0.037  11.269  21.688  0.00  0.00    +0.000 C 
ATOM      5  O   UNL     1       0.016  10.696  22.764  0.00  0.00    +0.000 OA
ATOM      6  N   UNL     1      -0.353  10.676  20.459  0.00  0.00    +0.000 N 
ATOM      7  C   UNL     1       0.775  10.031  19.878  0.00  0.00    +0.000 C 
ATOM      8  C   UNL     1       1.221   8.623  19.924  0.00  0.00    +0.000 A 
ATOM      9  C   UNL     1       1.203   7.695  20.944  0.00  0.00    +0.000 A 
ATOM     10  C   UNL     1       1.946   6.531  20.757  0.00  0.00    +0.000 A 
ATOM     11  C   UNL     1       2.701   6.328  19.583  0.00  0.00    +0.000 A 
ATOM     12  C   UNL     1       2.700   7.270  18.550  0.00  0.00    +0.000 A 
ATOM     13  C   UNL     1       1.935   8.402  18.718  0.00  0.00    +0.000 A 
ATOM     14  C   UNL     1       1.767   9.592  17.778  0.00  0.00    +0.000 C 
ATOM     15  C   UNL     1       0.495  10.172  18.399  0.00  0.00    +0.000 C 
ATOM     16  O   UNL     1       0.142  11.552  18.335  0.00  0.00    +0.000 OA
ENDROOT
BRANCH   1  20
ATOM     17  C   UNL     1      -4.945  11.593  18.413  0.00  0.00    +0.000 A 
ATOM     18  C   UNL     1      -4.009  10.831  17.715  0.00  0.00    +0.000 A 
ATOM     19  C   UNL     1      -2.654  10.880  18.060  0.00  0.00    +0.000 A 
ATOM     20  C   UNL     1      -2.199  11.685  19.125  0.00  0.00    +0.000 A 
ATOM     21  C   UNL     1      -3.162  12.400  19.856  0.00  0.00    +0.000 A 
ATOM     22  C   UNL     1      -4.512  12.353  19.498  0.00  0.00    +0.000 A 
ATOM     23  F   UNL     1      -5.381  13.051  20.246  0.00  0.00    +0.000 F 
BRANCH  17  25
ATOM     24  C   UNL     1      -6.760  12.643  17.336  0.00  0.00    +0.000 C 
ATOM     25  O   UNL     1      -6.235  11.479  17.968  0.00  0.00    +0.000 OA
ENDBRANCH  17  25
ENDBRANCH   1  20
TORSDOF 2
ENDMDL
