MODEL 1
REMARK VINA RESULT:      -9.0      0.000      0.000
REMARK  Name = 
REMARK  7 active torsions:
REMARK  status: ('A' for Active; 'I' for Inactive)
REMARK    1  A    between atoms: C_1  and  C_2
REMARK    2  A    between atoms: N_10  and  C_11
REMARK    3  A    between atoms: C_11  and  C_12
REMARK    4  A    between atoms: C_12  and  N_13
REMARK    5  A    between atoms: N_19  and  C_20
REMARK    6  A    between atoms: C_23  and  C_24
REMARK    7  A    between atoms: C_29  and  N_30
REMARK                            x       y       z     vdW  Elec       q    Type
REMARK                         _______ _______ _______ _____ _____    ______ ____
ROOT
ATOM      1  N   UNL     1      -0.551  10.850  19.873  0.00  0.00    +0.000 N 
ATOM      2  C   UNL     1       0.100   9.955  20.687  0.00  0.00    +0.000 C 
ATOM      3  O   UNL     1      -0.095   9.912  21.897  0.00  0.00    +0.000 OA
ATOM      4  N   UNL     1       0.972   9.114  20.029  0.00  0.00    +0.000 N 
ATOM      5  C   UNL     1       1.708   8.093  20.796  0.00  0.00    +0.000 C 
ATOM      6  C   UNL     1       1.916   6.777  19.997  0.00  0.00    +0.000 C 
ATOM      7  N   UNL     1       2.437   7.090  18.653  0.00  0.00    +0.000 N 
ATOM      8  C   UNL     1       1.583   8.036  17.901  0.00  0.00    +0.000 C 
ATOM      9  C   UNL     1       1.507   9.351  18.681  0.00  0.00    +0.000 C 
ATOM     10  H   UNL     1      -0.813  10.444  18.988  0.00  0.00    +0.000 HD
ENDROOT
BRANCH   7  11
ATOM     11  C   UNL     1       3.371   6.362  17.943  0.00  0.00    +0.000 A 
ATOM     12  C   UNL     1       4.496   7.066  17.460  0.00  0.00    +0.000 A 
ATOM     13  C   UNL     1       5.482   6.483  16.661  0.00  0.00    +0.000 A 
ATOM     14  C   UNL     1       5.410   5.133  16.323  0.00  0.00    +0.000 A 
ATOM     15  C   UNL     1       4.356   4.374  16.848  0.00  0.00    +0.000 A 
ATOM     16  C   UNL     1       3.360   4.991  17.639  0.00  0.00    +0.000 A 
BRANCH  14  17
ATOM     17  C   UNL     1       6.425   4.518  15.391  0.00  0.00    +0.000 C 
ATOM     18  F   UNL     1       6.079   3.271  14.965  0.00  0.00    +0.000 F 
ATOM     19  F   UNL     1       6.624   5.258  14.270  0.00  0.00    +0.000 F 
ATOM     20  F   UNL     1       7.645   4.383  15.981  0.00  0.00    +0.000 F 
ENDBRANCH  14  17
BRANCH  16  21
ATOM     21  N   UNL     1       2.263   4.136  18.038  0.00  0.00    +0.000 N 
ATOM     22  O   UNL     1       1.241   4.151  17.340  0.00  0.00    +0.000 OA
ATOM     23  O   UNL     1       2.448   3.412  19.028  0.00  0.00    +0.000 OA
ENDBRANCH  16  21
ENDBRANCH   7  11
BRANCH   1  24
ATOM     24  C   UNL     1      -1.539  11.769  20.417  0.00  0.00    +0.000 C 
BRANCH  24  25
ATOM     25  C   UNL     1      -2.224  12.635  19.359  0.00  0.00    +0.000 C 
BRANCH  25  35
ATOM     26  C   UNL     1      -2.343  11.052  16.745  0.00  0.00    +0.000 C 
ATOM     27  C   UNL     1      -3.494  11.281  17.658  0.00  0.00    +0.000 A 
ATOM     28  N   UNL     1      -4.718  10.830  17.466  0.00  0.00    +0.000 NA
ATOM     29  C   UNL     1      -5.447  11.252  18.546  0.00  0.00    +0.000 A 
ATOM     30  C   UNL     1      -6.800  11.031  18.844  0.00  0.00    +0.000 A 
ATOM     31  C   UNL     1      -7.328  11.568  20.023  0.00  0.00    +0.000 A 
ATOM     32  C   UNL     1      -6.525  12.315  20.887  0.00  0.00    +0.000 A 
ATOM     33  C   UNL     1      -5.172  12.547  20.606  0.00  0.00    +0.000 A 
ATOM     34  C   UNL     1      -4.661  11.997  19.423  0.00  0.00    +0.000 A 
ATOM     35  N   UNL     1      -3.419  11.999  18.832  0.00  0.00    +0.000 N 
ENDBRANCH  25  35
ENDBRANCH  24  25
ENDBRANCH   1  24
TORSDOF 6
ENDMDL
MODEL 2
REMARK VINA RESULT:      -9.0      1.114      2.281
REMARK  Name = 
REMARK  7 active torsions:
REMARK  status: ('A' for Active; 'I' for Inactive)
REMARK    1  A    between atoms: C_1  and  C_2
REMARK    2  A    between atoms: N_10  and  C_11
REMARK    3  A    between atoms: C_11  and  C_12
REMARK    4  A    between atoms: C_12  and  N_13
REMARK    5  A    between atoms: N_19  and  C_20
REMARK    6  A    between atoms: C_23  and  C_24
REMARK    7  A    between atoms: C_29  and  N_30
REMARK                            x       y       z     vdW  Elec       q    Type
REMARK                         _______ _______ _______ _____ _____    ______ ____
ROOT
ATOM      1  N   UNL     1      -0.212  10.552  20.510  0.00  0.00    +0.000 N 
ATOM      2  C   UNL     1       0.362   9.504  21.189  0.00  0.00    +0.000 C 
ATOM      3  O   UNL     1       0.140   9.297  22.377  0.00  0.00    +0.000 OA
ATOM      4  N   UNL     1       1.188   8.710  20.422  0.00  0.00    +0.000 N 
ATOM      5  C   UNL     1       1.839   7.539  21.037  0.00  0.00    +0.000 C 
ATOM      6  C   UNL     1       1.973   6.344  20.054  0.00  0.00    +0.000 C 
ATOM      7  N   UNL     1       2.541   6.815  18.775  0.00  0.00    +0.000 N 
ATOM      8  C   UNL     1       1.767   7.917  18.164  0.00  0.00    +0.000 C 
ATOM      9  C   UNL     1       1.764   9.106  19.129  0.00  0.00    +0.000 C 
ATOM     10  H   UNL     1      -0.483  10.299  19.572  0.00  0.00    +0.000 HD
ENDROOT
BRANCH   7  11
ATOM     11  C   UNL     1       3.438   6.135  17.975  0.00  0.00    +0.000 A 
ATOM     12  C   UNL     1       4.557   6.862  17.513  0.00  0.00    +0.000 A 
ATOM     13  C   UNL     1       5.506   6.334  16.634  0.00  0.00    +0.000 A 
ATOM     14  C   UNL     1       5.399   5.018  16.186  0.00  0.00    +0.000 A 
ATOM     15  C   UNL     1       4.351   4.234  16.683  0.00  0.00    +0.000 A 
ATOM     16  C   UNL     1       3.393   4.795  17.558  0.00  0.00    +0.000 A 
BRANCH  14  17
ATOM     17  C   UNL     1       6.372   4.470  15.172  0.00  0.00    +0.000 C 
ATOM     18  F   UNL     1       6.352   5.144  13.988  0.00  0.00    +0.000 F 
ATOM     19  F   UNL     1       7.659   4.507  15.606  0.00  0.00    +0.000 F 
ATOM     20  F   UNL     1       6.111   3.170  14.863  0.00  0.00    +0.000 F 
ENDBRANCH  14  17
BRANCH  16  21
ATOM     21  N   UNL     1       2.295   3.925  17.921  0.00  0.00    +0.000 N 
ATOM     22  O   UNL     1       2.483   3.117  18.840  0.00  0.00    +0.000 OA
ATOM     23  O   UNL     1       1.227   4.089  17.313  0.00  0.00    +0.000 OA
ENDBRANCH  16  21
ENDBRANCH   7  11
BRANCH   1  24
ATOM     24  C   UNL     1      -1.147  11.447  21.175  0.00  0.00    +0.000 C 
BRANCH  24  25
ATOM     25  C   UNL     1      -1.595  12.624  20.308  0.00  0.00    +0.000 C 
BRANCH  25  35
ATOM     26  C   UNL     1      -4.383  13.224  21.414  0.00  0.00    +0.000 C 
ATOM     27  C   UNL     1      -4.104  12.603  20.093  0.00  0.00    +0.000 A 
ATOM     28  N   UNL     1      -5.019  12.230  19.220  0.00  0.00    +0.000 NA
ATOM     29  C   UNL     1      -4.331  11.730  18.146  0.00  0.00    +0.000 A 
ATOM     30  C   UNL     1      -4.826  11.213  16.939  0.00  0.00    +0.000 A 
ATOM     31  C   UNL     1      -3.917  10.756  15.978  0.00  0.00    +0.000 A 
ATOM     32  C   UNL     1      -2.543  10.809  16.216  0.00  0.00    +0.000 A 
ATOM     33  C   UNL     1      -2.031  11.321  17.415  0.00  0.00    +0.000 A 
ATOM     34  C   UNL     1      -2.956  11.778  18.363  0.00  0.00    +0.000 A 
ATOM     35  N   UNL     1      -2.838  12.340  19.613  0.00  0.00    +0.000 N 
ENDBRANCH  25  35
ENDBRANCH  24  25
ENDBRANCH   1  24
TORSDOF 6
ENDMDL
MODEL 3
REMARK VINA RESULT:      -8.5      2.402      4.585
REMARK  Name = 
REMARK  7 active torsions:
REMARK  status: ('A' for Active; 'I' for Inactive)
REMARK    1  A    between atoms: C_1  and  C_2
REMARK    2  A    between atoms: N_10  and  C_11
REMARK    3  A    between atoms: C_11  and  C_12
REMARK    4  A    between atoms: C_12  and  N_13
REMARK    5  A    between atoms: N_19  and  C_20
REMARK    6  A    between atoms: C_23  and  C_24
REMARK    7  A    between atoms: C_29  and  N_30
REMARK                            x       y       z     vdW  Elec       q    Type
REMARK                         _______ _______ _______ _____ _____    ______ ____
ROOT
ATOM      1  N   UNL     1      -0.559  10.998  19.594  0.00  0.00    +0.000 N 
ATOM      2  C   UNL     1       0.076  10.140  20.458  0.00  0.00    +0.000 C 
ATOM      3  O   UNL     1      -0.140  10.150  21.665  0.00  0.00    +0.000 OA
ATOM      4  N   UNL     1       0.958   9.270  19.853  0.00  0.00    +0.000 N 
ATOM      5  C   UNL     1       1.679   8.283  20.678  0.00  0.00    +0.000 C 
ATOM      6  C   UNL     1       1.899   6.933  19.942  0.00  0.00    +0.000 C 
ATOM      7  N   UNL     1       2.444   7.187  18.593  0.00  0.00    +0.000 N 
ATOM      8  C   UNL     1       1.605   8.099  17.786  0.00  0.00    +0.000 C 
ATOM      9  C   UNL     1       1.517   9.447  18.506  0.00  0.00    +0.000 C 
ATOM     10  H   UNL     1      -0.807  10.553  18.723  0.00  0.00    +0.000 HD
ENDROOT
BRANCH   7  11
ATOM     11  C   UNL     1       3.390   6.427  17.934  0.00  0.00    +0.000 A 
ATOM     12  C   UNL     1       4.528   7.107  17.448  0.00  0.00    +0.000 A 
ATOM     13  C   UNL     1       5.529   6.488  16.694  0.00  0.00    +0.000 A 
ATOM     14  C   UNL     1       5.456   5.126  16.407  0.00  0.00    +0.000 A 
ATOM     15  C   UNL     1       4.388   4.394  16.939  0.00  0.00    +0.000 A 
ATOM     16  C   UNL     1       3.378   5.045  17.683  0.00  0.00    +0.000 A 
BRANCH  14  17
ATOM     17  C   UNL     1       6.488   4.471  15.523  0.00  0.00    +0.000 C 
ATOM     18  F   UNL     1       6.820   5.222  14.436  0.00  0.00    +0.000 F 
ATOM     19  F   UNL     1       7.653   4.217  16.175  0.00  0.00    +0.000 F 
ATOM     20  F   UNL     1       6.058   3.277  15.032  0.00  0.00    +0.000 F 
ENDBRANCH  14  17
BRANCH  16  21
ATOM     21  N   UNL     1       2.268   4.211  18.091  0.00  0.00    +0.000 N 
ATOM     22  O   UNL     1       1.263   4.200  17.369  0.00  0.00    +0.000 OA
ATOM     23  O   UNL     1       2.427   3.529  19.115  0.00  0.00    +0.000 OA
ENDBRANCH  16  21
ENDBRANCH   7  11
BRANCH   1  24
ATOM     24  C   UNL     1      -1.556  11.941  20.079  0.00  0.00    +0.000 C 
BRANCH  24  25
ATOM     25  C   UNL     1      -1.202  13.404  19.812  0.00  0.00    +0.000 C 
BRANCH  25  35
ATOM     26  C   UNL     1      -0.877  13.835  22.822  0.00  0.00    +0.000 C 
ATOM     27  C   UNL     1       0.207  13.985  21.816  0.00  0.00    +0.000 A 
ATOM     28  N   UNL     1       1.453  14.321  22.086  0.00  0.00    +0.000 NA
ATOM     29  C   UNL     1       2.109  14.325  20.883  0.00  0.00    +0.000 A 
ATOM     30  C   UNL     1       3.457  14.599  20.609  0.00  0.00    +0.000 A 
ATOM     31  C   UNL     1       3.903  14.539  19.284  0.00  0.00    +0.000 A 
ATOM     32  C   UNL     1       3.022  14.215  18.251  0.00  0.00    +0.000 A 
ATOM     33  C   UNL     1       1.672  13.938  18.505  0.00  0.00    +0.000 A 
ATOM     34  C   UNL     1       1.247  13.999  19.839  0.00  0.00    +0.000 A 
ATOM     35  N   UNL     1       0.038  13.787  20.462  0.00  0.00    +0.000 N 
ENDBRANCH  25  35
ENDBRANCH  24  25
ENDBRANCH   1  24
TORSDOF 6
ENDMDL
MODEL 4
REMARK VINA RESULT:      -8.3      0.957      1.806
REMARK  Name = 
REMARK  7 active torsions:
REMARK  status: ('A' for Active; 'I' for Inactive)
REMARK    1  A    between atoms: C_1  and  C_2
REMARK    2  A    between atoms: N_10  and  C_11
REMARK    3  A    between atoms: C_11  and  C_12
REMARK    4  A    between atoms: C_12  and  N_13
REMARK    5  A    between atoms: N_19  and  C_20
REMARK    6  A    between atoms: C_23  and  C_24
REMARK    7  A    between atoms: C_29  and  N_30
REMARK                            x       y       z     vdW  Elec       q    Type
REMARK                         _______ _______ _______ _____ _____    ______ ____
ROOT
ATOM      1  N   UNL     1      -0.295  10.732  20.234  0.00  0.00    +0.000 N 
ATOM      2  C   UNL     1       0.304   9.736  20.965  0.00  0.00    +0.000 C 
ATOM      3  O   UNL     1       0.089   9.587  22.164  0.00  0.00    +0.000 OA
ATOM      4  N   UNL     1       1.148   8.923  20.240  0.00  0.00    +0.000 N 
ATOM      5  C   UNL     1       1.828   7.802  20.914  0.00  0.00    +0.000 C 
ATOM      6  C   UNL     1       1.990   6.560  19.996  0.00  0.00    +0.000 C 
ATOM      7  N   UNL     1       2.544   6.976  18.693  0.00  0.00    +0.000 N 
ATOM      8  C   UNL     1       1.743   8.026  18.026  0.00  0.00    +0.000 C 
ATOM      9  C   UNL     1       1.713   9.263  18.926  0.00  0.00    +0.000 C 
ATOM     10  H   UNL     1      -0.562  10.424  19.311  0.00  0.00    +0.000 HD
ENDROOT
BRANCH   7  11
ATOM     11  C   UNL     1       3.457   6.277  17.927  0.00  0.00    +0.000 A 
ATOM     12  C   UNL     1       4.544   7.010  17.404  0.00  0.00    +0.000 A 
ATOM     13  C   UNL     1       5.502   6.458  16.549  0.00  0.00    +0.000 A 
ATOM     14  C   UNL     1       5.437   5.113  16.190  0.00  0.00    +0.000 A 
ATOM     15  C   UNL     1       4.424   4.327  16.752  0.00  0.00    +0.000 A 
ATOM     16  C   UNL     1       3.456   4.911  17.600  0.00  0.00    +0.000 A 
BRANCH  14  17
ATOM     17  C   UNL     1       6.418   4.533  15.202  0.00  0.00    +0.000 C 
ATOM     18  F   UNL     1       6.004   3.352  14.663  0.00  0.00    +0.000 F 
ATOM     19  F   UNL     1       6.657   5.362  14.152  0.00  0.00    +0.000 F 
ATOM     20  F   UNL     1       7.628   4.278  15.771  0.00  0.00    +0.000 F 
ENDBRANCH  14  17
BRANCH  16  21
ATOM     21  N   UNL     1       2.394   4.029  18.035  0.00  0.00    +0.000 N 
ATOM     22  O   UNL     1       1.313   4.093  17.435  0.00  0.00    +0.000 OA
ATOM     23  O   UNL     1       2.663   3.237  18.950  0.00  0.00    +0.000 OA
ENDBRANCH  16  21
ENDBRANCH   7  11
BRANCH   1  24
ATOM     24  C   UNL     1      -1.250  11.639  20.852  0.00  0.00    +0.000 C 
BRANCH  24  25
ATOM     25  C   UNL     1      -1.886  12.626  19.873  0.00  0.00    +0.000 C 
BRANCH  25  35
ATOM     26  C   UNL     1      -3.114  14.322  22.103  0.00  0.00    +0.000 C 
ATOM     27  C   UNL     1      -3.885  13.535  21.106  0.00  0.00    +0.000 A 
ATOM     28  N   UNL     1      -5.200  13.465  21.046  0.00  0.00    +0.000 NA
ATOM     29  C   UNL     1      -5.485  12.656  19.977  0.00  0.00    +0.000 A 
ATOM     30  C   UNL     1      -6.732  12.268  19.466  0.00  0.00    +0.000 A 
ATOM     31  C   UNL     1      -6.772  11.425  18.350  0.00  0.00    +0.000 A 
ATOM     32  C   UNL     1      -5.592  10.974  17.757  0.00  0.00    +0.000 A 
ATOM     33  C   UNL     1      -4.337  11.352  18.253  0.00  0.00    +0.000 A 
ATOM     34  C   UNL     1      -4.318  12.200  19.368  0.00  0.00    +0.000 A 
ATOM     35  N   UNL     1      -3.312  12.776  20.108  0.00  0.00    +0.000 N 
ENDBRANCH  25  35
ENDBRANCH  24  25
ENDBRANCH   1  24
TORSDOF 6
ENDMDL
MODEL 5
REMARK VINA RESULT:      -8.2      1.006      2.300
REMARK  Name = 
REMARK  7 active torsions:
REMARK  status: ('A' for Active; 'I' for Inactive)
REMARK    1  A    between atoms: C_1  and  C_2
REMARK    2  A    between atoms: N_10  and  C_11
REMARK    3  A    between atoms: C_11  and  C_12
REMARK    4  A    between atoms: C_12  and  N_13
REMARK    5  A    between atoms: N_19  and  C_20
REMARK    6  A    between atoms: C_23  and  C_24
REMARK    7  A    between atoms: C_29  and  N_30
REMARK                            x       y       z     vdW  Elec       q    Type
REMARK                         _______ _______ _______ _____ _____    ______ ____
ROOT
ATOM      1  N   UNL     1      -0.148  11.415  19.616  0.00  0.00    +0.000 N 
ATOM      2  C   UNL     1       0.364  10.469  20.470  0.00  0.00    +0.000 C 
ATOM      3  O   UNL     1       0.102  10.461  21.668  0.00  0.00    +0.000 OA
ATOM      4  N   UNL     1       1.179   9.535  19.866  0.00  0.00    +0.000 N 
ATOM      5  C   UNL     1       1.765   8.454  20.679  0.00  0.00    +0.000 C 
ATOM      6  C   UNL     1       1.879   7.114  19.902  0.00  0.00    +0.000 C 
ATOM      7  N   UNL     1       2.500   7.356  18.585  0.00  0.00    +0.000 N 
ATOM      8  C   UNL     1       1.788   8.374  17.782  0.00  0.00    +0.000 C 
ATOM      9  C   UNL     1       1.806   9.700  18.548  0.00  0.00    +0.000 C 
ATOM     10  H   UNL     1      -0.403  11.027  18.721  0.00  0.00    +0.000 HD
ENDROOT
BRANCH   7  11
ATOM     11  C   UNL     1       3.391   6.528  17.933  0.00  0.00    +0.000 A 
ATOM     12  C   UNL     1       4.568   7.126  17.430  0.00  0.00    +0.000 A 
ATOM     13  C   UNL     1       5.523   6.433  16.681  0.00  0.00    +0.000 A 
ATOM     14  C   UNL     1       5.361   5.074  16.416  0.00  0.00    +0.000 A 
ATOM     15  C   UNL     1       4.252   4.420  16.964  0.00  0.00    +0.000 A 
ATOM     16  C   UNL     1       3.290   5.146  17.704  0.00  0.00    +0.000 A 
BRANCH  14  17
ATOM     17  C   UNL     1       6.344   4.341  15.537  0.00  0.00    +0.000 C 
ATOM     18  F   UNL     1       7.603   4.300  16.056  0.00  0.00    +0.000 F 
ATOM     19  F   UNL     1       5.986   3.050  15.314  0.00  0.00    +0.000 F 
ATOM     20  F   UNL     1       6.467   4.921  14.312  0.00  0.00    +0.000 F 
ENDBRANCH  14  17
BRANCH  16  21
ATOM     21  N   UNL     1       2.131   4.391  18.130  0.00  0.00    +0.000 N 
ATOM     22  O   UNL     1       1.151   4.368  17.374  0.00  0.00    +0.000 OA
ATOM     23  O   UNL     1       2.225   3.780  19.205  0.00  0.00    +0.000 OA
ENDBRANCH  16  21
ENDBRANCH   7  11
BRANCH   1  24
ATOM     24  C   UNL     1      -1.064  12.436  20.099  0.00  0.00    +0.000 C 
BRANCH  24  25
ATOM     25  C   UNL     1      -2.446  11.898  20.474  0.00  0.00    +0.000 C 
BRANCH  25  35
ATOM     26  C   UNL     1      -5.094  13.423  20.353  0.00  0.00    +0.000 C 
ATOM     27  C   UNL     1      -4.546  12.575  19.262  0.00  0.00    +0.000 A 
ATOM     28  N   UNL     1      -5.126  12.368  18.096  0.00  0.00    +0.000 NA
ATOM     29  C   UNL     1      -4.279  11.550  17.396  0.00  0.00    +0.000 A 
ATOM     30  C   UNL     1      -4.412  11.041  16.095  0.00  0.00    +0.000 A 
ATOM     31  C   UNL     1      -3.404  10.214  15.587  0.00  0.00    +0.000 A 
ATOM     32  C   UNL     1      -2.286   9.899  16.361  0.00  0.00    +0.000 A 
ATOM     33  C   UNL     1      -2.136  10.398  17.662  0.00  0.00    +0.000 A 
ATOM     34  C   UNL     1      -3.154  11.227  18.151  0.00  0.00    +0.000 A 
ATOM     35  N   UNL     1      -3.350  11.894  19.338  0.00  0.00    +0.000 N 
ENDBRANCH  25  35
ENDBRANCH  24  25
ENDBRANCH   1  24
TORSDOF 6
ENDMDL
MODEL 6
REMARK VINA RESULT:      -8.1      6.217     11.208
REMARK  Name = 
REMARK  7 active torsions:
REMARK  status: ('A' for Active; 'I' for Inactive)
REMARK    1  A    between atoms: C_1  and  C_2
REMARK    2  A    between atoms: N_10  and  C_11
REMARK    3  A    between atoms: C_11  and  C_12
REMARK    4  A    between atoms: C_12  and  N_13
REMARK    5  A    between atoms: N_19  and  C_20
REMARK    6  A    between atoms: C_23  and  C_24
REMARK    7  A    between atoms: C_29  and  N_30
REMARK                            x       y       z     vdW  Elec       q    Type
REMARK                         _______ _______ _______ _____ _____    ______ ____
ROOT
ATOM      1  N   UNL     1       1.987   6.920  20.852  0.00  0.00    +0.000 N 
ATOM      2  C   UNL     1       1.808   8.006  20.029  0.00  0.00    +0.000 C 
ATOM      3  O   UNL     1       2.206   8.016  18.869  0.00  0.00    +0.000 OA
ATOM      4  N   UNL     1       1.140   9.061  20.612  0.00  0.00    +0.000 N 
ATOM      5  C   UNL     1       0.867  10.271  19.815  0.00  0.00    +0.000 C 
ATOM      6  C   UNL     1      -0.492  10.931  20.175  0.00  0.00    +0.000 C 
ATOM      7  N   UNL     1      -0.604  11.069  21.640  0.00  0.00    +0.000 N 
ATOM      8  C   UNL     1      -0.430   9.791  22.362  0.00  0.00    +0.000 C 
ATOM      9  C   UNL     1       0.968   9.245  22.060  0.00  0.00    +0.000 C 
ATOM     10  H   UNL     1       1.185   6.748  21.440  0.00  0.00    +0.000 HD
ENDROOT
BRANCH   7  11
ATOM     11  C   UNL     1      -1.177  12.124  22.324  0.00  0.00    +0.000 A 
ATOM     12  C   UNL     1      -2.299  11.828  23.129  0.00  0.00    +0.000 A 
ATOM     13  C   UNL     1      -3.030  12.801  23.815  0.00  0.00    +0.000 A 
ATOM     14  C   UNL     1      -2.652  14.141  23.755  0.00  0.00    +0.000 A 
ATOM     15  C   UNL     1      -1.496  14.471  23.036  0.00  0.00    +0.000 A 
ATOM     16  C   UNL     1      -0.783  13.472  22.335  0.00  0.00    +0.000 A 
BRANCH  14  17
ATOM     17  C   UNL     1      -3.486  15.206  24.424  0.00  0.00    +0.000 C 
ATOM     18  F   UNL     1      -3.266  16.454  23.924  0.00  0.00    +0.000 F 
ATOM     19  F   UNL     1      -4.820  14.980  24.302  0.00  0.00    +0.000 F 
ATOM     20  F   UNL     1      -3.233  15.290  25.759  0.00  0.00    +0.000 F 
ENDBRANCH  14  17
BRANCH  16  21
ATOM     21  N   UNL     1       0.330  13.943  21.540  0.00  0.00    +0.000 N 
ATOM     22  O   UNL     1       0.077  14.430  20.430  0.00  0.00    +0.000 OA
ATOM     23  O   UNL     1       1.457  13.866  22.052  0.00  0.00    +0.000 OA
ENDBRANCH  16  21
ENDBRANCH   7  11
BRANCH   1  24
ATOM     24  C   UNL     1       2.630   5.711  20.362  0.00  0.00    +0.000 C 
BRANCH  24  25
ATOM     25  C   UNL     1       1.963   5.118  19.120  0.00  0.00    +0.000 C 
BRANCH  25  35
ATOM     26  C   UNL     1       2.122   2.064  19.073  0.00  0.00    +0.000 C 
ATOM     27  C   UNL     1       2.988   2.976  18.282  0.00  0.00    +0.000 A 
ATOM     28  N   UNL     1       3.938   2.593  17.452  0.00  0.00    +0.000 NA
ATOM     29  C   UNL     1       4.466   3.743  16.929  0.00  0.00    +0.000 A 
ATOM     30  C   UNL     1       5.493   3.899  15.985  0.00  0.00    +0.000 A 
ATOM     31  C   UNL     1       5.865   5.191  15.598  0.00  0.00    +0.000 A 
ATOM     32  C   UNL     1       5.228   6.307  16.143  0.00  0.00    +0.000 A 
ATOM     33  C   UNL     1       4.201   6.172  17.086  0.00  0.00    +0.000 A 
ATOM     34  C   UNL     1       3.841   4.870  17.457  0.00  0.00    +0.000 A 
ATOM     35  N   UNL     1       2.901   4.352  18.318  0.00  0.00    +0.000 N 
ENDBRANCH  25  35
ENDBRANCH  24  25
ENDBRANCH   1  24
TORSDOF 6
ENDMDL
MODEL 7
REMARK VINA RESULT:      -8.1      5.982     10.709
REMARK  Name = 
REMARK  7 active torsions:
REMARK  status: ('A' for Active; 'I' for Inactive)
REMARK    1  A    between atoms: C_1  and  C_2
REMARK    2  A    between atoms: N_10  and  C_11
REMARK    3  A    between atoms: C_11  and  C_12
REMARK    4  A    between atoms: C_12  and  N_13
REMARK    5  A    between atoms: N_19  and  C_20
REMARK    6  A    between atoms: C_23  and  C_24
REMARK    7  A    between atoms: C_29  and  N_30
REMARK                            x       y       z     vdW  Elec       q    Type
REMARK                         _______ _______ _______ _____ _____    ______ ____
ROOT
ATOM      1  N   UNL     1       1.899   8.542  18.099  0.00  0.00    +0.000 N 
ATOM      2  C   UNL     1       1.934   9.916  18.086  0.00  0.00    +0.000 C 
ATOM      3  O   UNL     1       2.790  10.541  17.469  0.00  0.00    +0.000 OA
ATOM      4  N   UNL     1       0.927  10.520  18.809  0.00  0.00    +0.000 N 
ATOM      5  C   UNL     1       0.848  11.991  18.846  0.00  0.00    +0.000 C 
ATOM      6  C   UNL     1      -0.615  12.511  18.883  0.00  0.00    +0.000 C 
ATOM      7  N   UNL     1      -1.373  11.786  19.921  0.00  0.00    +0.000 N 
ATOM      8  C   UNL     1      -1.338  10.317  19.750  0.00  0.00    +0.000 C 
ATOM      9  C   UNL     1       0.117   9.850  19.835  0.00  0.00    +0.000 C 
ATOM     10  H   UNL     1       0.958   8.182  18.052  0.00  0.00    +0.000 HD
ENDROOT
BRANCH   7  11
ATOM     11  C   UNL     1      -2.339  12.316  20.754  0.00  0.00    +0.000 A 
ATOM     12  C   UNL     1      -3.558  12.699  20.154  0.00  0.00    +0.000 A 
ATOM     13  C   UNL     1      -4.596  13.321  20.852  0.00  0.00    +0.000 A 
ATOM     14  C   UNL     1      -4.478  13.570  22.219  0.00  0.00    +0.000 A 
ATOM     15  C   UNL     1      -3.320  13.133  22.873  0.00  0.00    +0.000 A 
ATOM     16  C   UNL     1      -2.276  12.522  22.142  0.00  0.00    +0.000 A 
BRANCH  14  17
ATOM     17  C   UNL     1      -5.558  14.317  22.960  0.00  0.00    +0.000 C 
ATOM     18  F   UNL     1      -5.808  15.554  22.445  0.00  0.00    +0.000 F 
ATOM     19  F   UNL     1      -6.747  13.660  22.956  0.00  0.00    +0.000 F 
ATOM     20  F   UNL     1      -5.237  14.517  24.268  0.00  0.00    +0.000 F 
ENDBRANCH  14  17
BRANCH  16  21
ATOM     21  N   UNL     1      -1.084  12.209  22.900  0.00  0.00    +0.000 N 
ATOM     22  O   UNL     1      -0.306  13.137  23.156  0.00  0.00    +0.000 OA
ATOM     23  O   UNL     1      -0.954  11.035  23.280  0.00  0.00    +0.000 OA
ENDBRANCH  16  21
ENDBRANCH   7  11
BRANCH   1  24
ATOM     24  C   UNL     1       2.867   7.766  17.340  0.00  0.00    +0.000 C 
BRANCH  24  25
ATOM     25  C   UNL     1       3.791   6.912  18.209  0.00  0.00    +0.000 C 
BRANCH  25  35
ATOM     26  C   UNL     1       5.092   5.046  16.165  0.00  0.00    +0.000 C 
ATOM     27  C   UNL     1       4.073   4.638  17.167  0.00  0.00    +0.000 A 
ATOM     28  N   UNL     1       3.596   3.417  17.311  0.00  0.00    +0.000 NA
ATOM     29  C   UNL     1       2.704   3.483  18.349  0.00  0.00    +0.000 A 
ATOM     30  C   UNL     1       1.931   2.462  18.920  0.00  0.00    +0.000 A 
ATOM     31  C   UNL     1       1.081   2.774  19.987  0.00  0.00    +0.000 A 
ATOM     32  C   UNL     1       1.001   4.080  20.474  0.00  0.00    +0.000 A 
ATOM     33  C   UNL     1       1.766   5.113  19.917  0.00  0.00    +0.000 A 
ATOM     34  C   UNL     1       2.613   4.779  18.852  0.00  0.00    +0.000 A 
ATOM     35  N   UNL     1       3.498   5.496  18.079  0.00  0.00    +0.000 N 
ENDBRANCH  25  35
ENDBRANCH  24  25
ENDBRANCH   1  24
TORSDOF 6
ENDMDL
MODEL 8
REMARK VINA RESULT:      -8.1      2.294      3.553
REMARK  Name = 
REMARK  7 active torsions:
REMARK  status: ('A' for Active; 'I' for Inactive)
REMARK    1  A    between atoms: C_1  and  C_2
REMARK    2  A    between atoms: N_10  and  C_11
REMARK    3  A    between atoms: C_11  and  C_12
REMARK    4  A    between atoms: C_12  and  N_13
REMARK    5  A    between atoms: N_19  and  C_20
REMARK    6  A    between atoms: C_23  and  C_24
REMARK    7  A    between atoms: C_29  and  N_30
REMARK                            x       y       z     vdW  Elec       q    Type
REMARK                         _______ _______ _______ _____ _____    ______ ____
ROOT
ATOM      1  N   UNL     1      -0.581  10.930  19.674  0.00  0.00    +0.000 N 
ATOM      2  C   UNL     1       0.058  10.068  20.532  0.00  0.00    +0.000 C 
ATOM      3  O   UNL     1      -0.160  10.069  21.739  0.00  0.00    +0.000 OA
ATOM      4  N   UNL     1       0.945   9.207  19.922  0.00  0.00    +0.000 N 
ATOM      5  C   UNL     1       1.670   8.219  20.740  0.00  0.00    +0.000 C 
ATOM      6  C   UNL     1       1.898   6.875  19.994  0.00  0.00    +0.000 C 
ATOM      7  N   UNL     1       2.442   7.141  18.649  0.00  0.00    +0.000 N 
ATOM      8  C   UNL     1       1.599   8.055  17.847  0.00  0.00    +0.000 C 
ATOM      9  C   UNL     1       1.504   9.397  18.576  0.00  0.00    +0.000 C 
ATOM     10  H   UNL     1      -0.825  10.490  18.799  0.00  0.00    +0.000 HD
ENDROOT
BRANCH   7  11
ATOM     11  C   UNL     1       3.393   6.391  17.984  0.00  0.00    +0.000 A 
ATOM     12  C   UNL     1       4.544   7.074  17.534  0.00  0.00    +0.000 A 
ATOM     13  C   UNL     1       5.552   6.467  16.781  0.00  0.00    +0.000 A 
ATOM     14  C   UNL     1       5.473   5.113  16.457  0.00  0.00    +0.000 A 
ATOM     15  C   UNL     1       4.390   4.376  16.952  0.00  0.00    +0.000 A 
ATOM     16  C   UNL     1       3.374   5.016  17.697  0.00  0.00    +0.000 A 
BRANCH  14  17
ATOM     17  C   UNL     1       6.514   4.473  15.572  0.00  0.00    +0.000 C 
ATOM     18  F   UNL     1       7.668   4.172  16.231  0.00  0.00    +0.000 F 
ATOM     19  F   UNL     1       6.085   3.311  15.014  0.00  0.00    +0.000 F 
ATOM     20  F   UNL     1       6.876   5.282  14.539  0.00  0.00    +0.000 F 
ENDBRANCH  14  17
BRANCH  16  21
ATOM     21  N   UNL     1       2.251   4.181  18.065  0.00  0.00    +0.000 N 
ATOM     22  O   UNL     1       1.252   4.209  17.335  0.00  0.00    +0.000 OA
ATOM     23  O   UNL     1       2.393   3.460  19.064  0.00  0.00    +0.000 OA
ENDBRANCH  16  21
ENDBRANCH   7  11
BRANCH   1  24
ATOM     24  C   UNL     1      -1.582  11.864  20.165  0.00  0.00    +0.000 C 
BRANCH  24  25
ATOM     25  C   UNL     1      -1.177  13.332  20.028  0.00  0.00    +0.000 C 
BRANCH  25  35
ATOM     26  C   UNL     1       1.610  14.357  20.759  0.00  0.00    +0.000 C 
ATOM     27  C   UNL     1       0.427  14.384  21.659  0.00  0.00    +0.000 A 
ATOM     28  N   UNL     1       0.420  14.855  22.890  0.00  0.00    +0.000 NA
ATOM     29  C   UNL     1      -0.865  14.703  23.342  0.00  0.00    +0.000 A 
ATOM     30  C   UNL     1      -1.416  15.057  24.583  0.00  0.00    +0.000 A 
ATOM     31  C   UNL     1      -2.772  14.800  24.817  0.00  0.00    +0.000 A 
ATOM     32  C   UNL     1      -3.562  14.199  23.836  0.00  0.00    +0.000 A 
ATOM     33  C   UNL     1      -3.029  13.839  22.591  0.00  0.00    +0.000 A 
ATOM     34  C   UNL     1      -1.671  14.108  22.374  0.00  0.00    +0.000 A 
ATOM     35  N   UNL     1      -0.821  13.915  21.310  0.00  0.00    +0.000 N 
ENDBRANCH  25  35
ENDBRANCH  24  25
ENDBRANCH   1  24
TORSDOF 6
ENDMDL
MODEL 9
REMARK VINA RESULT:      -8.1      1.346      2.043
REMARK  Name = 
REMARK  7 active torsions:
REMARK  status: ('A' for Active; 'I' for Inactive)
REMARK    1  A    between atoms: C_1  and  C_2
REMARK    2  A    between atoms: N_10  and  C_11
REMARK    3  A    between atoms: C_11  and  C_12
REMARK    4  A    between atoms: C_12  and  N_13
REMARK    5  A    between atoms: N_19  and  C_20
REMARK    6  A    between atoms: C_23  and  C_24
REMARK    7  A    between atoms: C_29  and  N_30
REMARK                            x       y       z     vdW  Elec       q    Type
REMARK                         _______ _______ _______ _____ _____    ______ ____
ROOT
ATOM      1  N   UNL     1      -0.566  11.202  19.393  0.00  0.00    +0.000 N 
ATOM      2  C   UNL     1       0.072  10.386  20.296  0.00  0.00    +0.000 C 
ATOM      3  O   UNL     1      -0.137  10.459  21.502  0.00  0.00    +0.000 OA
ATOM      4  N   UNL     1       0.948   9.484  19.731  0.00  0.00    +0.000 N 
ATOM      5  C   UNL     1       1.672   8.539  20.601  0.00  0.00    +0.000 C 
ATOM      6  C   UNL     1       1.884   7.152  19.933  0.00  0.00    +0.000 C 
ATOM      7  N   UNL     1       2.421   7.335  18.571  0.00  0.00    +0.000 N 
ATOM      8  C   UNL     1       1.579   8.207  17.723  0.00  0.00    +0.000 C 
ATOM      9  C   UNL     1       1.500   9.591  18.373  0.00  0.00    +0.000 C 
ATOM     10  H   UNL     1      -0.820  10.714  18.547  0.00  0.00    +0.000 HD
ENDROOT
BRANCH   7  11
ATOM     11  C   UNL     1       3.361   6.540  17.945  0.00  0.00    +0.000 A 
ATOM     12  C   UNL     1       4.523   7.183  17.465  0.00  0.00    +0.000 A 
ATOM     13  C   UNL     1       5.523   6.526  16.744  0.00  0.00    +0.000 A 
ATOM     14  C   UNL     1       5.424   5.160  16.485  0.00  0.00    +0.000 A 
ATOM     15  C   UNL     1       4.330   4.463  17.013  0.00  0.00    +0.000 A 
ATOM     16  C   UNL     1       3.323   5.153  17.725  0.00  0.00    +0.000 A 
BRANCH  14  17
ATOM     17  C   UNL     1       6.457   4.462  15.635  0.00  0.00    +0.000 C 
ATOM     18  F   UNL     1       6.045   3.247  15.177  0.00  0.00    +0.000 F 
ATOM     19  F   UNL     1       6.803   5.182  14.535  0.00  0.00    +0.000 F 
ATOM     20  F   UNL     1       7.611   4.230  16.318  0.00  0.00    +0.000 F 
ENDBRANCH  14  17
BRANCH  16  21
ATOM     21  N   UNL     1       2.187   4.354  18.130  0.00  0.00    +0.000 N 
ATOM     22  O   UNL     1       1.224   4.290  17.355  0.00  0.00    +0.000 OA
ATOM     23  O   UNL     1       2.284   3.750  19.210  0.00  0.00    +0.000 OA
ENDBRANCH  16  21
ENDBRANCH   7  11
BRANCH   1  24
ATOM     24  C   UNL     1      -1.557  12.170  19.835  0.00  0.00    +0.000 C 
BRANCH  24  25
ATOM     25  C   UNL     1      -2.910  12.031  19.137  0.00  0.00    +0.000 C 
BRANCH  25  35
ATOM     26  C   UNL     1      -5.774  12.570  18.207  0.00  0.00    +0.000 C 
ATOM     27  C   UNL     1      -5.306  12.641  19.616  0.00  0.00    +0.000 A 
ATOM     28  N   UNL     1      -6.062  12.942  20.653  0.00  0.00    +0.000 NA
ATOM     29  C   UNL     1      -5.242  12.874  21.748  0.00  0.00    +0.000 A 
ATOM     30  C   UNL     1      -5.548  13.089  23.100  0.00  0.00    +0.000 A 
ATOM     31  C   UNL     1      -4.530  12.960  24.052  0.00  0.00    +0.000 A 
ATOM     32  C   UNL     1      -3.231  12.627  23.663  0.00  0.00    +0.000 A 
ATOM     33  C   UNL     1      -2.907  12.409  22.317  0.00  0.00    +0.000 A 
ATOM     34  C   UNL     1      -3.940  12.538  21.381  0.00  0.00    +0.000 A 
ATOM     35  N   UNL     1      -4.009  12.395  20.014  0.00  0.00    +0.000 N 
ENDBRANCH  25  35
ENDBRANCH  24  25
ENDBRANCH   1  24
TORSDOF 6
ENDMDL
