MODEL 1
REMARK VINA RESULT:      -7.5      0.000      0.000
REMARK  Name = 
REMARK  11 active torsions:
REMARK  status: ('A' for Active; 'I' for Inactive)
REMARK    1  A    between atoms: C_1  and  C_2
REMARK    2  A    between atoms: C_2  and  N_3
REMARK    3  A    between atoms: N_3  and  C_4
REMARK    4  A    between atoms: C_8  and  O_9
REMARK    5  A    between atoms: O_9  and  C_10
REMARK    6  A    between atoms: C_11  and  O_12
REMARK    7  A    between atoms: O_12  and  C_13
REMARK    8  A    between atoms: C_17  and  N_18
REMARK    9  A    between atoms: N_18  and  C_19
REMARK   10  A    between atoms: C_19  and  C_20
REMARK   11  A    between atoms: C_20  and  C_21
REMARK                            x       y       z     vdW  Elec       q    Type
REMARK                         _______ _______ _______ _____ _____    ______ ____
ROOT
ATOM      1  C   UNL     1       3.125   4.437  19.555  0.00  0.00    +0.000 A 
ATOM      2  N   UNL     1       2.475   5.385  20.272  0.00  0.00    +0.000 NA
ATOM      3  C   UNL     1       2.336   6.606  19.703  0.00  0.00    +0.000 A 
ATOM      4  C   UNL     1       1.654   7.639  20.359  0.00  0.00    +0.000 A 
ATOM      5  C   UNL     1       1.449   8.920  19.775  0.00  0.00    +0.000 A 
ATOM      6  C   UNL     1       1.957   9.154  18.498  0.00  0.00    +0.000 A 
ATOM      7  C   UNL     1       2.658   8.113  17.855  0.00  0.00    +0.000 A 
ATOM      8  C   UNL     1       2.848   6.858  18.419  0.00  0.00    +0.000 A 
ATOM      9  N   UNL     1       3.505   5.929  17.704  0.00  0.00    +0.000 NA
ATOM     10  C   UNL     1       3.642   4.705  18.260  0.00  0.00    +0.000 A 
ENDROOT
BRANCH   1  11
ATOM     11  N   UNL     1       3.288   3.116  20.072  0.00  0.00    +0.000 N 
ATOM     12  H   UNL     1       4.296   2.939  20.042  0.00  0.00    +0.000 HD
BRANCH  11  14
ATOM     13  C   UNL     1       1.340   2.490  21.381  0.00  0.00    +0.000 C 
ATOM     14  C   UNL     1       2.776   2.993  21.432  0.00  0.00    +0.000 C 
ENDBRANCH  11  14
ENDBRANCH   1  11
BRANCH   5  15
ATOM     15  O   UNL     1       0.531   9.704  20.430  0.00  0.00    +0.000 OA
ATOM     16  C   UNL     1      -0.164   9.103  21.514  0.00  0.00    +0.000 C 
ENDBRANCH   5  15
BRANCH   6  17
ATOM     17  O   UNL     1       1.856  10.218  17.655  0.00  0.00    +0.000 OA
ATOM     18  C   UNL     1       2.299  11.508  18.007  0.00  0.00    +0.000 C 
ENDBRANCH   6  17
BRANCH  10  19
ATOM     19  N   UNL     1       4.371   3.683  17.583  0.00  0.00    +0.000 N 
ATOM     20  H   UNL     1       3.814   2.832  17.619  0.00  0.00    +0.000 HD
BRANCH  19  21
ATOM     21  C   UNL     1       4.844   4.067  16.247  0.00  0.00    +0.000 C 
BRANCH  21  22
ATOM     22  C   UNL     1       6.370   4.011  16.160  0.00  0.00    +0.000 C 
BRANCH  22  23
ATOM     23  C   UNL     1       6.999   5.039  17.066  0.00  0.00    +0.000 A 
ATOM     24  C   UNL     1       7.078   6.381  16.692  0.00  0.00    +0.000 A 
ATOM     25  C   UNL     1       7.629   7.297  17.577  0.00  0.00    +0.000 A 
ATOM     26  C   UNL     1       8.084   6.861  18.820  0.00  0.00    +0.000 A 
ATOM     27  C   UNL     1       7.967   5.521  19.113  0.00  0.00    +0.000 A 
ATOM     28  N   UNL     1       7.438   4.604  18.273  0.00  0.00    +0.000 NA
ENDBRANCH  22  23
ENDBRANCH  21  22
ENDBRANCH  19  21
ENDBRANCH  10  19
TORSDOF 8
ENDMDL
MODEL 2
REMARK VINA RESULT:      -7.4      3.605      6.202
REMARK  Name = 
REMARK  11 active torsions:
REMARK  status: ('A' for Active; 'I' for Inactive)
REMARK    1  A    between atoms: C_1  and  C_2
REMARK    2  A    between atoms: C_2  and  N_3
REMARK    3  A    between atoms: N_3  and  C_4
REMARK    4  A    between atoms: C_8  and  O_9
REMARK    5  A    between atoms: O_9  and  C_10
REMARK    6  A    between atoms: C_11  and  O_12
REMARK    7  A    between atoms: O_12  and  C_13
REMARK    8  A    between atoms: C_17  and  N_18
REMARK    9  A    between atoms: N_18  and  C_19
REMARK   10  A    between atoms: C_19  and  C_20
REMARK   11  A    between atoms: C_20  and  C_21
REMARK                            x       y       z     vdW  Elec       q    Type
REMARK                         _______ _______ _______ _____ _____    ______ ____
ROOT
ATOM      1  C   UNL     1       6.716   5.334  16.081  0.00  0.00    +0.000 A 
ATOM      2  N   UNL     1       5.855   4.300  16.240  0.00  0.00    +0.000 NA
ATOM      3  C   UNL     1       5.096   4.292  17.361  0.00  0.00    +0.000 A 
ATOM      4  C   UNL     1       4.159   3.278  17.596  0.00  0.00    +0.000 A 
ATOM      5  C   UNL     1       3.314   3.260  18.740  0.00  0.00    +0.000 A 
ATOM      6  C   UNL     1       3.433   4.295  19.667  0.00  0.00    +0.000 A 
ATOM      7  C   UNL     1       4.392   5.300  19.429  0.00  0.00    +0.000 A 
ATOM      8  C   UNL     1       5.209   5.326  18.307  0.00  0.00    +0.000 A 
ATOM      9  N   UNL     1       6.068   6.349  18.166  0.00  0.00    +0.000 NA
ATOM     10  C   UNL     1       6.824   6.370  17.046  0.00  0.00    +0.000 A 
ENDROOT
BRANCH   1  11
ATOM     11  N   UNL     1       7.531   5.432  14.911  0.00  0.00    +0.000 N 
ATOM     12  H   UNL     1       8.452   5.089  15.198  0.00  0.00    +0.000 HD
BRANCH  11  14
ATOM     13  C   UNL     1       7.671   5.080  12.512  0.00  0.00    +0.000 C 
ATOM     14  C   UNL     1       6.999   4.642  13.806  0.00  0.00    +0.000 C 
ENDBRANCH  11  14
ENDBRANCH   1  11
BRANCH   5  15
ATOM     15  O   UNL     1       2.277   2.362  18.667  0.00  0.00    +0.000 OA
ATOM     16  C   UNL     1       0.977   2.902  18.475  0.00  0.00    +0.000 C 
ENDBRANCH   5  15
BRANCH   6  17
ATOM     17  O   UNL     1       2.727   4.599  20.791  0.00  0.00    +0.000 OA
ATOM     18  C   UNL     1       2.298   3.618  21.706  0.00  0.00    +0.000 C 
ENDBRANCH   6  17
BRANCH  10  19
ATOM     19  N   UNL     1       7.794   7.397  16.850  0.00  0.00    +0.000 N 
ATOM     20  H   UNL     1       7.507   7.942  16.040  0.00  0.00    +0.000 HD
BRANCH  19  21
ATOM     21  C   UNL     1       8.095   8.178  18.057  0.00  0.00    +0.000 C 
BRANCH  21  22
ATOM     22  C   UNL     1       8.046   9.680  17.773  0.00  0.00    +0.000 C 
BRANCH  22  23
ATOM     23  C   UNL     1       9.125  10.408  18.534  0.00  0.00    +0.000 A 
ATOM     24  C   UNL     1      10.161  11.066  17.869  0.00  0.00    +0.000 A 
ATOM     25  C   UNL     1      11.109  11.757  18.611  0.00  0.00    +0.000 A 
ATOM     26  C   UNL     1      11.004  11.784  20.000  0.00  0.00    +0.000 A 
ATOM     27  C   UNL     1       9.951  11.111  20.579  0.00  0.00    +0.000 A 
ATOM     28  N   UNL     1       9.014  10.429  19.885  0.00  0.00    +0.000 NA
ENDBRANCH  22  23
ENDBRANCH  21  22
ENDBRANCH  19  21
ENDBRANCH  10  19
TORSDOF 8
ENDMDL
MODEL 3
REMARK VINA RESULT:      -7.3      0.697      1.027
REMARK  Name = 
REMARK  11 active torsions:
REMARK  status: ('A' for Active; 'I' for Inactive)
REMARK    1  A    between atoms: C_1  and  C_2
REMARK    2  A    between atoms: C_2  and  N_3
REMARK    3  A    between atoms: N_3  and  C_4
REMARK    4  A    between atoms: C_8  and  O_9
REMARK    5  A    between atoms: O_9  and  C_10
REMARK    6  A    between atoms: C_11  and  O_12
REMARK    7  A    between atoms: O_12  and  C_13
REMARK    8  A    between atoms: C_17  and  N_18
REMARK    9  A    between atoms: N_18  and  C_19
REMARK   10  A    between atoms: C_19  and  C_20
REMARK   11  A    between atoms: C_20  and  C_21
REMARK                            x       y       z     vdW  Elec       q    Type
REMARK                         _______ _______ _______ _____ _____    ______ ____
ROOT
ATOM      1  C   UNL     1       3.122   4.512  19.571  0.00  0.00    +0.000 A 
ATOM      2  N   UNL     1       2.469   5.440  20.311  0.00  0.00    +0.000 NA
ATOM      3  C   UNL     1       2.306   6.668  19.763  0.00  0.00    +0.000 A 
ATOM      4  C   UNL     1       1.619   7.681  20.444  0.00  0.00    +0.000 A 
ATOM      5  C   UNL     1       1.391   8.968  19.882  0.00  0.00    +0.000 A 
ATOM      6  C   UNL     1       1.879   9.228  18.602  0.00  0.00    +0.000 A 
ATOM      7  C   UNL     1       2.585   8.207  17.935  0.00  0.00    +0.000 A 
ATOM      8  C   UNL     1       2.799   6.946  18.476  0.00  0.00    +0.000 A 
ATOM      9  N   UNL     1       3.459   6.038  17.739  0.00  0.00    +0.000 NA
ATOM     10  C   UNL     1       3.619   4.807  18.274  0.00  0.00    +0.000 A 
ENDROOT
BRANCH   1  11
ATOM     11  N   UNL     1       3.308   3.185  20.065  0.00  0.00    +0.000 N 
ATOM     12  H   UNL     1       3.783   3.299  20.965  0.00  0.00    +0.000 HD
BRANCH  11  14
ATOM     13  C   UNL     1       1.684   2.431  21.706  0.00  0.00    +0.000 C 
ATOM     14  C   UNL     1       2.044   2.478  20.227  0.00  0.00    +0.000 C 
ENDBRANCH  11  14
ENDBRANCH   1  11
BRANCH   5  15
ATOM     15  O   UNL     1       0.470   9.729  20.560  0.00  0.00    +0.000 OA
ATOM     16  C   UNL     1       0.557   9.723  21.979  0.00  0.00    +0.000 C 
ENDBRANCH   5  15
BRANCH   6  17
ATOM     17  O   UNL     1       1.754  10.305  17.778  0.00  0.00    +0.000 OA
ATOM     18  C   UNL     1       2.226  11.585  18.126  0.00  0.00    +0.000 C 
ENDBRANCH   6  17
BRANCH  10  19
ATOM     19  N   UNL     1       4.352   3.805  17.572  0.00  0.00    +0.000 N 
ATOM     20  H   UNL     1       3.813   2.944  17.611  0.00  0.00    +0.000 HD
BRANCH  19  21
ATOM     21  C   UNL     1       4.791   4.211  16.230  0.00  0.00    +0.000 C 
BRANCH  21  22
ATOM     22  C   UNL     1       6.316   4.218  16.123  0.00  0.00    +0.000 C 
BRANCH  22  23
ATOM     23  C   UNL     1       6.913   5.285  17.005  0.00  0.00    +0.000 A 
ATOM     24  C   UNL     1       7.453   4.972  18.254  0.00  0.00    +0.000 A 
ATOM     25  C   UNL     1       8.028   5.982  19.013  0.00  0.00    +0.000 A 
ATOM     26  C   UNL     1       8.061   7.282  18.511  0.00  0.00    +0.000 A 
ATOM     27  C   UNL     1       7.509   7.506  17.269  0.00  0.00    +0.000 A 
ATOM     28  N   UNL     1       6.941   6.546  16.508  0.00  0.00    +0.000 NA
ENDBRANCH  22  23
ENDBRANCH  21  22
ENDBRANCH  19  21
ENDBRANCH  10  19
TORSDOF 8
ENDMDL
MODEL 4
REMARK VINA RESULT:      -7.2      2.818      6.903
REMARK  Name = 
REMARK  11 active torsions:
REMARK  status: ('A' for Active; 'I' for Inactive)
REMARK    1  A    between atoms: C_1  and  C_2
REMARK    2  A    between atoms: C_2  and  N_3
REMARK    3  A    between atoms: N_3  and  C_4
REMARK    4  A    between atoms: C_8  and  O_9
REMARK    5  A    between atoms: O_9  and  C_10
REMARK    6  A    between atoms: C_11  and  O_12
REMARK    7  A    between atoms: O_12  and  C_13
REMARK    8  A    between atoms: C_17  and  N_18
REMARK    9  A    between atoms: N_18  and  C_19
REMARK   10  A    between atoms: C_19  and  C_20
REMARK   11  A    between atoms: C_20  and  C_21
REMARK                            x       y       z     vdW  Elec       q    Type
REMARK                         _______ _______ _______ _____ _____    ______ ____
ROOT
ATOM      1  C   UNL     1       2.203   4.664  18.958  0.00  0.00    +0.000 A 
ATOM      2  N   UNL     1       2.890   4.132  17.918  0.00  0.00    +0.000 NA
ATOM      3  C   UNL     1       4.009   4.782  17.517  0.00  0.00    +0.000 A 
ATOM      4  C   UNL     1       4.797   4.291  16.469  0.00  0.00    +0.000 A 
ATOM      5  C   UNL     1       6.001   4.921  16.049  0.00  0.00    +0.000 A 
ATOM      6  C   UNL     1       6.406   6.080  16.710  0.00  0.00    +0.000 A 
ATOM      7  C   UNL     1       5.595   6.575  17.751  0.00  0.00    +0.000 A 
ATOM      8  C   UNL     1       4.426   5.955  18.170  0.00  0.00    +0.000 A 
ATOM      9  N   UNL     1       3.746   6.497  19.194  0.00  0.00    +0.000 NA
ATOM     10  C   UNL     1       2.633   5.852  19.606  0.00  0.00    +0.000 A 
ENDROOT
BRANCH   1  11
ATOM     11  N   UNL     1       1.030   4.023  19.460  0.00  0.00    +0.000 N 
ATOM     12  H   UNL     1       0.395   3.963  18.658  0.00  0.00    +0.000 HD
BRANCH  11  14
ATOM     13  C   UNL     1       1.427   2.794  21.516  0.00  0.00    +0.000 C 
ATOM     14  C   UNL     1       1.316   2.700  20.001  0.00  0.00    +0.000 C 
ENDBRANCH  11  14
ENDBRANCH   1  11
BRANCH   5  15
ATOM     15  O   UNL     1       6.780   4.160  15.212  0.00  0.00    +0.000 OA
ATOM     16  C   UNL     1       6.236   3.853  13.936  0.00  0.00    +0.000 C 
ENDBRANCH   5  15
BRANCH   6  17
ATOM     17  O   UNL     1       7.525   6.849  16.603  0.00  0.00    +0.000 OA
ATOM     18  C   UNL     1       7.778   7.941  17.455  0.00  0.00    +0.000 C 
ENDBRANCH   6  17
BRANCH  10  19
ATOM     19  N   UNL     1       1.832   6.394  20.654  0.00  0.00    +0.000 N 
ATOM     20  H   UNL     1       2.251   6.116  21.538  0.00  0.00    +0.000 HD
BRANCH  19  21
ATOM     21  C   UNL     1       1.552   7.829  20.516  0.00  0.00    +0.000 C 
BRANCH  21  22
ATOM     22  C   UNL     1       1.079   8.433  21.839  0.00  0.00    +0.000 C 
BRANCH  22  23
ATOM     23  C   UNL     1       0.302   9.704  21.604  0.00  0.00    +0.000 A 
ATOM     24  C   UNL     1      -0.191  10.026  20.339  0.00  0.00    +0.000 A 
ATOM     25  C   UNL     1      -0.936  11.187  20.180  0.00  0.00    +0.000 A 
ATOM     26  C   UNL     1      -1.181  12.000  21.285  0.00  0.00    +0.000 A 
ATOM     27  C   UNL     1      -0.660  11.610  22.499  0.00  0.00    +0.000 A 
ATOM     28  N   UNL     1       0.069  10.488  22.686  0.00  0.00    +0.000 NA
ENDBRANCH  22  23
ENDBRANCH  21  22
ENDBRANCH  19  21
ENDBRANCH  10  19
TORSDOF 8
ENDMDL
MODEL 5
REMARK VINA RESULT:      -7.2      2.794      6.906
REMARK  Name = 
REMARK  11 active torsions:
REMARK  status: ('A' for Active; 'I' for Inactive)
REMARK    1  A    between atoms: C_1  and  C_2
REMARK    2  A    between atoms: C_2  and  N_3
REMARK    3  A    between atoms: N_3  and  C_4
REMARK    4  A    between atoms: C_8  and  O_9
REMARK    5  A    between atoms: O_9  and  C_10
REMARK    6  A    between atoms: C_11  and  O_12
REMARK    7  A    between atoms: O_12  and  C_13
REMARK    8  A    between atoms: C_17  and  N_18
REMARK    9  A    between atoms: N_18  and  C_19
REMARK   10  A    between atoms: C_19  and  C_20
REMARK   11  A    between atoms: C_20  and  C_21
REMARK                            x       y       z     vdW  Elec       q    Type
REMARK                         _______ _______ _______ _____ _____    ______ ____
ROOT
ATOM      1  C   UNL     1       2.053   4.636  19.345  0.00  0.00    +0.000 A 
ATOM      2  N   UNL     1       2.617   4.021  18.277  0.00  0.00    +0.000 NA
ATOM      3  C   UNL     1       3.732   4.586  17.755  0.00  0.00    +0.000 A 
ATOM      4  C   UNL     1       4.398   4.004  16.668  0.00  0.00    +0.000 A 
ATOM      5  C   UNL     1       5.595   4.544  16.121  0.00  0.00    +0.000 A 
ATOM      6  C   UNL     1       6.119   5.704  16.690  0.00  0.00    +0.000 A 
ATOM      7  C   UNL     1       5.430   6.290  17.771  0.00  0.00    +0.000 A 
ATOM      8  C   UNL     1       4.268   5.758  18.314  0.00  0.00    +0.000 A 
ATOM      9  N   UNL     1       3.710   6.383  19.364  0.00  0.00    +0.000 NA
ATOM     10  C   UNL     1       2.602   5.822  19.898  0.00  0.00    +0.000 A 
ENDROOT
BRANCH   1  11
ATOM     11  N   UNL     1       0.893   4.088  19.972  0.00  0.00    +0.000 N 
ATOM     12  H   UNL     1       0.146   4.177  19.277  0.00  0.00    +0.000 HD
BRANCH  11  14
ATOM     13  C   UNL     1       1.737   2.641  21.731  0.00  0.00    +0.000 C 
ATOM     14  C   UNL     1       1.084   2.694  20.357  0.00  0.00    +0.000 C 
ENDBRANCH  11  14
ENDBRANCH   1  11
BRANCH   5  15
ATOM     15  O   UNL     1       6.256   3.703  15.259  0.00  0.00    +0.000 OA
ATOM     16  C   UNL     1       6.219   4.044  13.880  0.00  0.00    +0.000 C 
ENDBRANCH   5  15
BRANCH   6  17
ATOM     17  O   UNL     1       7.266   6.399  16.454  0.00  0.00    +0.000 OA
ATOM     18  C   UNL     1       7.694   7.457  17.281  0.00  0.00    +0.000 C 
ENDBRANCH   6  17
BRANCH  10  19
ATOM     19  N   UNL     1       1.925   6.455  20.983  0.00  0.00    +0.000 N 
ATOM     20  H   UNL     1       2.505   6.350  21.811  0.00  0.00    +0.000 HD
BRANCH  19  21
ATOM     21  C   UNL     1       1.481   7.826  20.697  0.00  0.00    +0.000 C 
BRANCH  21  22
ATOM     22  C   UNL     1       0.198   8.164  21.457  0.00  0.00    +0.000 C 
BRANCH  22  23
ATOM     23  C   UNL     1       0.013   9.657  21.564  0.00  0.00    +0.000 A 
ATOM     24  C   UNL     1      -0.727  10.221  22.604  0.00  0.00    +0.000 A 
ATOM     25  C   UNL     1      -0.835  11.603  22.684  0.00  0.00    +0.000 A 
ATOM     26  C   UNL     1      -0.199  12.395  21.730  0.00  0.00    +0.000 A 
ATOM     27  C   UNL     1       0.512  11.760  20.737  0.00  0.00    +0.000 A 
ATOM     28  N   UNL     1       0.635  10.419  20.631  0.00  0.00    +0.000 NA
ENDBRANCH  22  23
ENDBRANCH  21  22
ENDBRANCH  19  21
ENDBRANCH  10  19
TORSDOF 8
ENDMDL
MODEL 6
REMARK VINA RESULT:      -7.2      3.443      5.832
REMARK  Name = 
REMARK  11 active torsions:
REMARK  status: ('A' for Active; 'I' for Inactive)
REMARK    1  A    between atoms: C_1  and  C_2
REMARK    2  A    between atoms: C_2  and  N_3
REMARK    3  A    between atoms: N_3  and  C_4
REMARK    4  A    between atoms: C_8  and  O_9
REMARK    5  A    between atoms: O_9  and  C_10
REMARK    6  A    between atoms: C_11  and  O_12
REMARK    7  A    between atoms: O_12  and  C_13
REMARK    8  A    between atoms: C_17  and  N_18
REMARK    9  A    between atoms: N_18  and  C_19
REMARK   10  A    between atoms: C_19  and  C_20
REMARK   11  A    between atoms: C_20  and  C_21
REMARK                            x       y       z     vdW  Elec       q    Type
REMARK                         _______ _______ _______ _____ _____    ______ ____
ROOT
ATOM      1  C   UNL     1       6.349   5.438  15.901  0.00  0.00    +0.000 A 
ATOM      2  N   UNL     1       5.275   4.613  15.926  0.00  0.00    +0.000 NA
ATOM      3  C   UNL     1       4.452   4.698  16.998  0.00  0.00    +0.000 A 
ATOM      4  C   UNL     1       3.303   3.904  17.096  0.00  0.00    +0.000 A 
ATOM      5  C   UNL     1       2.393   3.997  18.186  0.00  0.00    +0.000 A 
ATOM      6  C   UNL     1       2.665   4.914  19.199  0.00  0.00    +0.000 A 
ATOM      7  C   UNL     1       3.835   5.695  19.099  0.00  0.00    +0.000 A 
ATOM      8  C   UNL     1       4.718   5.614  18.031  0.00  0.00    +0.000 A 
ATOM      9  N   UNL     1       5.787   6.428  18.022  0.00  0.00    +0.000 NA
ATOM     10  C   UNL     1       6.609   6.356  16.952  0.00  0.00    +0.000 A 
ENDROOT
BRANCH   1  11
ATOM     11  N   UNL     1       7.248   5.430  14.791  0.00  0.00    +0.000 N 
ATOM     12  H   UNL     1       8.148   5.134  15.178  0.00  0.00    +0.000 HD
BRANCH  11  14
ATOM     13  C   UNL     1       7.572   4.841  12.457  0.00  0.00    +0.000 C 
ATOM     14  C   UNL     1       6.809   4.524  13.736  0.00  0.00    +0.000 C 
ENDBRANCH  11  14
ENDBRANCH   1  11
BRANCH   5  15
ATOM     15  O   UNL     1       1.193   3.359  17.981  0.00  0.00    +0.000 OA
ATOM     16  C   UNL     1       0.908   2.251  18.824  0.00  0.00    +0.000 C 
ENDBRANCH   5  15
BRANCH   6  17
ATOM     17  O   UNL     1       1.963   5.292  20.303  0.00  0.00    +0.000 OA
ATOM     18  C   UNL     1       1.651   6.637  20.580  0.00  0.00    +0.000 C 
ENDBRANCH   6  17
BRANCH  10  19
ATOM     19  N   UNL     1       7.791   7.153  16.896  0.00  0.00    +0.000 N 
ATOM     20  H   UNL     1       8.106   7.168  15.929  0.00  0.00    +0.000 HD
BRANCH  19  21
ATOM     21  C   UNL     1       7.659   8.469  17.534  0.00  0.00    +0.000 C 
BRANCH  21  22
ATOM     22  C   UNL     1       8.660   8.635  18.678  0.00  0.00    +0.000 C 
BRANCH  22  23
ATOM     23  C   UNL     1       9.005  10.088  18.886  0.00  0.00    +0.000 A 
ATOM     24  C   UNL     1       8.926  11.007  17.838  0.00  0.00    +0.000 A 
ATOM     25  C   UNL     1       9.215  12.342  18.087  0.00  0.00    +0.000 A 
ATOM     26  C   UNL     1       9.568  12.737  19.376  0.00  0.00    +0.000 A 
ATOM     27  C   UNL     1       9.621  11.768  20.354  0.00  0.00    +0.000 A 
ATOM     28  N   UNL     1       9.348  10.462  20.143  0.00  0.00    +0.000 NA
ENDBRANCH  22  23
ENDBRANCH  21  22
ENDBRANCH  19  21
ENDBRANCH  10  19
TORSDOF 8
ENDMDL
MODEL 7
REMARK VINA RESULT:      -6.9      1.578      4.733
REMARK  Name = 
REMARK  11 active torsions:
REMARK  status: ('A' for Active; 'I' for Inactive)
REMARK    1  A    between atoms: C_1  and  C_2
REMARK    2  A    between atoms: C_2  and  N_3
REMARK    3  A    between atoms: N_3  and  C_4
REMARK    4  A    between atoms: C_8  and  O_9
REMARK    5  A    between atoms: O_9  and  C_10
REMARK    6  A    between atoms: C_11  and  O_12
REMARK    7  A    between atoms: O_12  and  C_13
REMARK    8  A    between atoms: C_17  and  N_18
REMARK    9  A    between atoms: N_18  and  C_19
REMARK   10  A    between atoms: C_19  and  C_20
REMARK   11  A    between atoms: C_20  and  C_21
REMARK                            x       y       z     vdW  Elec       q    Type
REMARK                         _______ _______ _______ _____ _____    ______ ____
ROOT
ATOM      1  C   UNL     1       3.935   6.752  17.622  0.00  0.00    +0.000 A 
ATOM      2  N   UNL     1       3.216   7.901  17.595  0.00  0.00    +0.000 NA
ATOM      3  C   UNL     1       2.358   8.119  18.620  0.00  0.00    +0.000 A 
ATOM      4  C   UNL     1       1.595   9.291  18.690  0.00  0.00    +0.000 A 
ATOM      5  C   UNL     1       0.717   9.575  19.773  0.00  0.00    +0.000 A 
ATOM      6  C   UNL     1       0.610   8.639  20.801  0.00  0.00    +0.000 A 
ATOM      7  C   UNL     1       1.369   7.455  20.710  0.00  0.00    +0.000 A 
ATOM      8  C   UNL     1       2.236   7.182  19.661  0.00  0.00    +0.000 A 
ATOM      9  N   UNL     1       2.934   6.035  19.690  0.00  0.00    +0.000 NA
ATOM     10  C   UNL     1       3.799   5.812  18.676  0.00  0.00    +0.000 A 
ENDROOT
BRANCH   1  11
ATOM     11  N   UNL     1       4.883   6.462  16.593  0.00  0.00    +0.000 N 
ATOM     12  H   UNL     1       4.518   6.924  15.756  0.00  0.00    +0.000 HD
BRANCH  11  14
ATOM     13  C   UNL     1       7.233   5.852  16.649  0.00  0.00    +0.000 C 
ATOM     14  C   UNL     1       6.216   6.951  16.923  0.00  0.00    +0.000 C 
ENDBRANCH  11  14
ENDBRANCH   1  11
BRANCH   5  15
ATOM     15  O   UNL     1       0.272  10.874  19.819  0.00  0.00    +0.000 OA
ATOM     16  C   UNL     1      -1.002  11.133  19.247  0.00  0.00    +0.000 C 
ENDBRANCH   5  15
BRANCH   6  17
ATOM     17  O   UNL     1      -0.061   8.657  21.986  0.00  0.00    +0.000 OA
ATOM     18  C   UNL     1       0.325   9.476  23.064  0.00  0.00    +0.000 C 
ENDBRANCH   6  17
BRANCH  10  19
ATOM     19  N   UNL     1       4.538   4.593  18.613  0.00  0.00    +0.000 N 
ATOM     20  H   UNL     1       4.510   4.168  19.537  0.00  0.00    +0.000 HD
BRANCH  19  21
ATOM     21  C   UNL     1       4.150   3.712  17.504  0.00  0.00    +0.000 C 
BRANCH  21  22
ATOM     22  C   UNL     1       3.589   2.385  18.019  0.00  0.00    +0.000 C 
BRANCH  22  23
ATOM     23  C   UNL     1       2.744   2.599  19.249  0.00  0.00    +0.000 A 
ATOM     24  C   UNL     1       1.383   2.895  19.149  0.00  0.00    +0.000 A 
ATOM     25  C   UNL     1       0.637   3.043  20.310  0.00  0.00    +0.000 A 
ATOM     26  C   UNL     1       1.258   2.886  21.548  0.00  0.00    +0.000 A 
ATOM     27  C   UNL     1       2.603   2.593  21.559  0.00  0.00    +0.000 A 
ATOM     28  N   UNL     1       3.357   2.444  20.448  0.00  0.00    +0.000 NA
ENDBRANCH  22  23
ENDBRANCH  21  22
ENDBRANCH  19  21
ENDBRANCH  10  19
TORSDOF 8
ENDMDL
MODEL 8
REMARK VINA RESULT:      -6.9      1.952      2.800
REMARK  Name = 
REMARK  11 active torsions:
REMARK  status: ('A' for Active; 'I' for Inactive)
REMARK    1  A    between atoms: C_1  and  C_2
REMARK    2  A    between atoms: C_2  and  N_3
REMARK    3  A    between atoms: N_3  and  C_4
REMARK    4  A    between atoms: C_8  and  O_9
REMARK    5  A    between atoms: O_9  and  C_10
REMARK    6  A    between atoms: C_11  and  O_12
REMARK    7  A    between atoms: O_12  and  C_13
REMARK    8  A    between atoms: C_17  and  N_18
REMARK    9  A    between atoms: N_18  and  C_19
REMARK   10  A    between atoms: C_19  and  C_20
REMARK   11  A    between atoms: C_20  and  C_21
REMARK                            x       y       z     vdW  Elec       q    Type
REMARK                         _______ _______ _______ _____ _____    ______ ____
ROOT
ATOM      1  C   UNL     1       3.272   5.367  19.322  0.00  0.00    +0.000 A 
ATOM      2  N   UNL     1       2.575   6.061  20.254  0.00  0.00    +0.000 NA
ATOM      3  C   UNL     1       2.124   7.289  19.902  0.00  0.00    +0.000 A 
ATOM      4  C   UNL     1       1.371   8.067  20.791  0.00  0.00    +0.000 A 
ATOM      5  C   UNL     1       0.844   9.342  20.443  0.00  0.00    +0.000 A 
ATOM      6  C   UNL     1       1.096   9.835  19.164  0.00  0.00    +0.000 A 
ATOM      7  C   UNL     1       1.871   9.052  18.285  0.00  0.00    +0.000 A 
ATOM      8  C   UNL     1       2.376   7.802  18.619  0.00  0.00    +0.000 A 
ATOM      9  N   UNL     1       3.077   7.128  17.692  0.00  0.00    +0.000 NA
ATOM     10  C   UNL     1       3.524   5.898  18.030  0.00  0.00    +0.000 A 
ENDROOT
BRANCH   1  11
ATOM     11  N   UNL     1       3.756   4.053  19.604  0.00  0.00    +0.000 N 
ATOM     12  H   UNL     1       4.311   4.150  20.458  0.00  0.00    +0.000 HD
BRANCH  11  14
ATOM     13  C   UNL     1       2.563   2.748  21.270  0.00  0.00    +0.000 C 
ATOM     14  C   UNL     1       2.670   3.098  19.792  0.00  0.00    +0.000 C 
ENDBRANCH  11  14
ENDBRANCH   1  11
BRANCH   5  15
ATOM     15  O   UNL     1      -0.093   9.829  21.322  0.00  0.00    +0.000 OA
ATOM     16  C   UNL     1       0.032   9.425  22.678  0.00  0.00    +0.000 C 
ENDBRANCH   5  15
BRANCH   6  17
ATOM     17  O   UNL     1       0.670  10.954  18.516  0.00  0.00    +0.000 OA
ATOM     18  C   UNL     1      -0.410  11.732  18.978  0.00  0.00    +0.000 C 
ENDBRANCH   6  17
BRANCH  10  19
ATOM     19  N   UNL     1       4.318   5.143  17.117  0.00  0.00    +0.000 N 
ATOM     20  H   UNL     1       3.690   4.735  16.427  0.00  0.00    +0.000 HD
BRANCH  19  21
ATOM     21  C   UNL     1       5.463   5.879  16.564  0.00  0.00    +0.000 C 
BRANCH  21  22
ATOM     22  C   UNL     1       6.648   4.949  16.304  0.00  0.00    +0.000 C 
BRANCH  22  23
ATOM     23  C   UNL     1       6.833   4.713  14.826  0.00  0.00    +0.000 A 
ATOM     24  C   UNL     1       6.051   3.783  14.139  0.00  0.00    +0.000 A 
ATOM     25  C   UNL     1       6.230   3.630  12.771  0.00  0.00    +0.000 A 
ATOM     26  C   UNL     1       7.179   4.410  12.113  0.00  0.00    +0.000 A 
ATOM     27  C   UNL     1       7.907   5.305  12.864  0.00  0.00    +0.000 A 
ATOM     28  N   UNL     1       7.759   5.477  14.195  0.00  0.00    +0.000 NA
ENDBRANCH  22  23
ENDBRANCH  21  22
ENDBRANCH  19  21
ENDBRANCH  10  19
TORSDOF 8
ENDMDL
MODEL 9
REMARK VINA RESULT:      -6.9      1.068      1.157
REMARK  Name = 
REMARK  11 active torsions:
REMARK  status: ('A' for Active; 'I' for Inactive)
REMARK    1  A    between atoms: C_1  and  C_2
REMARK    2  A    between atoms: C_2  and  N_3
REMARK    3  A    between atoms: N_3  and  C_4
REMARK    4  A    between atoms: C_8  and  O_9
REMARK    5  A    between atoms: O_9  and  C_10
REMARK    6  A    between atoms: C_11  and  O_12
REMARK    7  A    between atoms: O_12  and  C_13
REMARK    8  A    between atoms: C_17  and  N_18
REMARK    9  A    between atoms: N_18  and  C_19
REMARK   10  A    between atoms: C_19  and  C_20
REMARK   11  A    between atoms: C_20  and  C_21
REMARK                            x       y       z     vdW  Elec       q    Type
REMARK                         _______ _______ _______ _____ _____    ______ ____
ROOT
ATOM      1  C   UNL     1       2.666   4.676  20.241  0.00  0.00    +0.000 A 
ATOM      2  N   UNL     1       1.878   5.501  20.972  0.00  0.00    +0.000 NA
ATOM      3  C   UNL     1       1.697   6.759  20.506  0.00  0.00    +0.000 A 
ATOM      4  C   UNL     1       0.877   7.672  21.182  0.00  0.00    +0.000 A 
ATOM      5  C   UNL     1       0.628   8.988  20.700  0.00  0.00    +0.000 A 
ATOM      6  C   UNL     1       1.234   9.381  19.507  0.00  0.00    +0.000 A 
ATOM      7  C   UNL     1       2.072   8.460  18.846  0.00  0.00    +0.000 A 
ATOM      8  C   UNL     1       2.306   7.172  19.309  0.00  0.00    +0.000 A 
ATOM      9  N   UNL     1       3.099   6.367  18.582  0.00  0.00    +0.000 NA
ATOM     10  C   UNL     1       3.279   5.106  19.034  0.00  0.00    +0.000 A 
ENDROOT
BRANCH   1  11
ATOM     11  N   UNL     1       2.883   3.324  20.649  0.00  0.00    +0.000 N 
ATOM     12  H   UNL     1       3.338   3.391  21.563  0.00  0.00    +0.000 HD
BRANCH  11  14
ATOM     13  C   UNL     1       1.097   2.332  19.335  0.00  0.00    +0.000 C 
ATOM     14  C   UNL     1       1.637   2.572  20.738  0.00  0.00    +0.000 C 
ENDBRANCH  11  14
ENDBRANCH   1  11
BRANCH   5  15
ATOM     15  O   UNL     1      -0.407   9.637  21.327  0.00  0.00    +0.000 OA
ATOM     16  C   UNL     1      -0.062  10.746  22.146  0.00  0.00    +0.000 C 
ENDBRANCH   5  15
BRANCH   6  17
ATOM     17  O   UNL     1       1.129  10.514  18.760  0.00  0.00    +0.000 OA
ATOM     18  C   UNL     1      -0.113  11.068  18.393  0.00  0.00    +0.000 C 
ENDBRANCH   6  17
BRANCH  10  19
ATOM     19  N   UNL     1       4.147   4.209  18.344  0.00  0.00    +0.000 N 
ATOM     20  H   UNL     1       3.956   3.271  18.687  0.00  0.00    +0.000 HD
BRANCH  19  21
ATOM     21  C   UNL     1       4.127   4.359  16.883  0.00  0.00    +0.000 C 
BRANCH  21  22
ATOM     22  C   UNL     1       5.542   4.345  16.304  0.00  0.00    +0.000 C 
BRANCH  22  23
ATOM     23  C   UNL     1       6.462   5.228  17.109  0.00  0.00    +0.000 A 
ATOM     24  C   UNL     1       6.653   6.569  16.775  0.00  0.00    +0.000 A 
ATOM     25  C   UNL     1       7.478   7.352  17.571  0.00  0.00    +0.000 A 
ATOM     26  C   UNL     1       8.091   6.786  18.688  0.00  0.00    +0.000 A 
ATOM     27  C   UNL     1       7.848   5.456  18.949  0.00  0.00    +0.000 A 
ATOM     28  N   UNL     1       7.053   4.668  18.194  0.00  0.00    +0.000 NA
ENDBRANCH  22  23
ENDBRANCH  21  22
ENDBRANCH  19  21
ENDBRANCH  10  19
TORSDOF 8
ENDMDL
