MODEL 1
REMARK VINA RESULT:      -6.8      0.000      0.000
REMARK  Name = 
REMARK  3 active torsions:
REMARK  status: ('A' for Active; 'I' for Inactive)
REMARK    1  A    between atoms: C_2  and  C_3
REMARK    2  A    between atoms: C_2  and  C_9
REMARK    3  A    between atoms: C_15  and  O_16
REMARK                            x       y       z     vdW  Elec       q    Type
REMARK                         _______ _______ _______ _____ _____    ______ ____
ROOT
ATOM      1  C   UNL     1       5.082   4.866  18.331  0.00  0.00    +0.000 A 
ATOM      2  C   UNL     1       4.451   6.080  18.021  0.00  0.00    +0.000 A 
ATOM      3  C   UNL     1       3.193   6.364  18.552  0.00  0.00    +0.000 A 
ATOM      4 BR   UNL     1       2.350   8.007  18.146  0.00  0.00    +0.000 Br
ATOM      5  C   UNL     1       2.550   5.452  19.385  0.00  0.00    +0.000 A 
ATOM      6  C   UNL     1       3.184   4.256  19.726  0.00  0.00    +0.000 A 
ATOM      7  C   UNL     1       4.454   3.980  19.221  0.00  0.00    +0.000 A 
ENDROOT
BRANCH   1   9
ATOM      8  O   UNL     1       7.390   4.419  18.436  0.00  0.00    +0.000 OA
ATOM      9  C   UNL     1       6.412   4.598  17.708  0.00  0.00    +0.000 C 
BRANCH   9  10
ATOM     10  C   UNL     1       6.604   4.563  16.243  0.00  0.00    +0.000 A 
ATOM     11  C   UNL     1       5.820   3.712  15.463  0.00  0.00    +0.000 A 
ATOM     12  C   UNL     1       5.938   3.758  14.075  0.00  0.00    +0.000 A 
ATOM     13  C   UNL     1       6.852   4.639  13.518  0.00  0.00    +0.000 A 
ATOM     14  N   UNL     1       7.671   5.432  14.243  0.00  0.00    +0.000 NA
ATOM     15  C   UNL     1       7.536   5.363  15.592  0.00  0.00    +0.000 A 
ENDBRANCH   9  10
ENDBRANCH   1   9
BRANCH   7  16
ATOM     16  O   UNL     1       5.090   2.845  19.635  0.00  0.00    +0.000 OA
ATOM     17  H   UNL     1       5.941   2.749  19.173  0.00  0.00    +0.000 HD
ENDBRANCH   7  16
TORSDOF 3
ENDMDL
MODEL 2
REMARK VINA RESULT:      -6.7      3.248      5.465
REMARK  Name = 
REMARK  3 active torsions:
REMARK  status: ('A' for Active; 'I' for Inactive)
REMARK    1  A    between atoms: C_2  and  C_3
REMARK    2  A    between atoms: C_2  and  C_9
REMARK    3  A    between atoms: C_15  and  O_16
REMARK                            x       y       z     vdW  Elec       q    Type
REMARK                         _______ _______ _______ _____ _____    ______ ____
ROOT
ATOM      1  C   UNL     1       4.914   5.217  17.575  0.00  0.00    +0.000 A 
ATOM      2  C   UNL     1       4.949   4.862  16.218  0.00  0.00    +0.000 A 
ATOM      3  C   UNL     1       6.155   4.482  15.631  0.00  0.00    +0.000 A 
ATOM      4 BR   UNL     1       6.200   3.989  13.806  0.00  0.00    +0.000 Br
ATOM      5  C   UNL     1       7.332   4.456  16.376  0.00  0.00    +0.000 A 
ATOM      6  C   UNL     1       7.301   4.775  17.734  0.00  0.00    +0.000 A 
ATOM      7  C   UNL     1       6.092   5.129  18.333  0.00  0.00    +0.000 A 
ENDROOT
BRANCH   1   9
ATOM      8  O   UNL     1       3.335   6.851  18.185  0.00  0.00    +0.000 OA
ATOM      9  C   UNL     1       3.603   5.649  18.144  0.00  0.00    +0.000 C 
BRANCH   9  10
ATOM     10  C   UNL     1       2.621   4.685  18.685  0.00  0.00    +0.000 A 
ATOM     11  C   UNL     1       2.274   4.738  20.035  0.00  0.00    +0.000 A 
ATOM     12  C   UNL     1       1.275   3.892  20.516  0.00  0.00    +0.000 A 
ATOM     13  C   UNL     1       0.675   3.009  19.630  0.00  0.00    +0.000 A 
ATOM     14  N   UNL     1       1.028   2.888  18.332  0.00  0.00    +0.000 NA
ATOM     15  C   UNL     1       2.006   3.721  17.895  0.00  0.00    +0.000 A 
ENDBRANCH   9  10
ENDBRANCH   1   9
BRANCH   7  16
ATOM     16  O   UNL     1       6.070   5.354  19.679  0.00  0.00    +0.000 OA
ATOM     17  H   UNL     1       6.963   5.250  20.052  0.00  0.00    +0.000 HD
ENDBRANCH   7  16
TORSDOF 3
ENDMDL
MODEL 3
REMARK VINA RESULT:      -6.7      3.415      5.447
REMARK  Name = 
REMARK  3 active torsions:
REMARK  status: ('A' for Active; 'I' for Inactive)
REMARK    1  A    between atoms: C_2  and  C_3
REMARK    2  A    between atoms: C_2  and  C_9
REMARK    3  A    between atoms: C_15  and  O_16
REMARK                            x       y       z     vdW  Elec       q    Type
REMARK                         _______ _______ _______ _____ _____    ______ ____
ROOT
ATOM      1  C   UNL     1       4.843   5.351  17.533  0.00  0.00    +0.000 A 
ATOM      2  C   UNL     1       4.909   4.975  16.184  0.00  0.00    +0.000 A 
ATOM      3  C   UNL     1       6.115   4.527  15.645  0.00  0.00    +0.000 A 
ATOM      4 BR   UNL     1       6.200   4.004  13.831  0.00  0.00    +0.000 Br
ATOM      5  C   UNL     1       7.262   4.453  16.433  0.00  0.00    +0.000 A 
ATOM      6  C   UNL     1       7.198   4.794  17.785  0.00  0.00    +0.000 A 
ATOM      7  C   UNL     1       5.988   5.216  18.334  0.00  0.00    +0.000 A 
ENDROOT
BRANCH   1   9
ATOM      8  O   UNL     1       3.259   7.049  17.911  0.00  0.00    +0.000 OA
ATOM      9  C   UNL     1       3.537   5.857  18.048  0.00  0.00    +0.000 C 
BRANCH   9  10
ATOM     10  C   UNL     1       2.570   4.981  18.743  0.00  0.00    +0.000 A 
ATOM     11  C   UNL     1       1.883   4.003  18.023  0.00  0.00    +0.000 A 
ATOM     12  C   UNL     1       1.049   3.117  18.702  0.00  0.00    +0.000 A 
ATOM     13  C   UNL     1       0.916   3.255  20.076  0.00  0.00    +0.000 A 
ATOM     14  N   UNL     1       1.517   4.227  20.796  0.00  0.00    +0.000 NA
ATOM     15  C   UNL     1       2.319   5.078  20.107  0.00  0.00    +0.000 A 
ENDBRANCH   9  10
ENDBRANCH   1   9
BRANCH   7  16
ATOM     16  O   UNL     1       5.929   5.462  19.676  0.00  0.00    +0.000 OA
ATOM     17  H   UNL     1       6.738   5.916  19.970  0.00  0.00    +0.000 HD
ENDBRANCH   7  16
TORSDOF 3
ENDMDL
MODEL 4
REMARK VINA RESULT:      -6.6      3.034      5.374
REMARK  Name = 
REMARK  3 active torsions:
REMARK  status: ('A' for Active; 'I' for Inactive)
REMARK    1  A    between atoms: C_2  and  C_3
REMARK    2  A    between atoms: C_2  and  C_9
REMARK    3  A    between atoms: C_15  and  O_16
REMARK                            x       y       z     vdW  Elec       q    Type
REMARK                         _______ _______ _______ _____ _____    ______ ____
ROOT
ATOM      1  C   UNL     1       4.022   4.323  17.524  0.00  0.00    +0.000 A 
ATOM      2  C   UNL     1       3.309   5.487  17.848  0.00  0.00    +0.000 A 
ATOM      3  C   UNL     1       3.731   6.721  17.353  0.00  0.00    +0.000 A 
ATOM      4 BR   UNL     1       2.761   8.287  17.777  0.00  0.00    +0.000 Br
ATOM      5  C   UNL     1       4.861   6.813  16.544  0.00  0.00    +0.000 A 
ATOM      6  C   UNL     1       5.558   5.657  16.189  0.00  0.00    +0.000 A 
ATOM      7  C   UNL     1       5.123   4.418  16.658  0.00  0.00    +0.000 A 
ENDROOT
BRANCH   1   9
ATOM      8  O   UNL     1       3.731   1.989  17.483  0.00  0.00    +0.000 OA
ATOM      9  C   UNL     1       3.547   3.034  18.108  0.00  0.00    +0.000 C 
BRANCH   9  10
ATOM     10  C   UNL     1       2.837   2.969  19.403  0.00  0.00    +0.000 A 
ATOM     11  C   UNL     1       1.460   3.186  19.448  0.00  0.00    +0.000 A 
ATOM     12  C   UNL     1       0.783   3.024  20.656  0.00  0.00    +0.000 A 
ATOM     13  C   UNL     1       1.515   2.672  21.781  0.00  0.00    +0.000 A 
ATOM     14  N   UNL     1       2.856   2.515  21.788  0.00  0.00    +0.000 NA
ATOM     15  C   UNL     1       3.487   2.683  20.598  0.00  0.00    +0.000 A 
ENDBRANCH   9  10
ENDBRANCH   1   9
BRANCH   7  16
ATOM     16  O   UNL     1       5.768   3.294  16.230  0.00  0.00    +0.000 OA
ATOM     17  H   UNL     1       6.706   3.489  16.060  0.00  0.00    +0.000 HD
ENDBRANCH   7  16
TORSDOF 3
ENDMDL
MODEL 5
REMARK VINA RESULT:      -6.6      3.158      5.508
REMARK  Name = 
REMARK  3 active torsions:
REMARK  status: ('A' for Active; 'I' for Inactive)
REMARK    1  A    between atoms: C_2  and  C_3
REMARK    2  A    between atoms: C_2  and  C_9
REMARK    3  A    between atoms: C_15  and  O_16
REMARK                            x       y       z     vdW  Elec       q    Type
REMARK                         _______ _______ _______ _____ _____    ______ ____
ROOT
ATOM      1  C   UNL     1       5.110   5.155  17.864  0.00  0.00    +0.000 A 
ATOM      2  C   UNL     1       4.990   4.814  16.509  0.00  0.00    +0.000 A 
ATOM      3  C   UNL     1       6.123   4.465  15.776  0.00  0.00    +0.000 A 
ATOM      4 BR   UNL     1       5.957   3.989  13.954  0.00  0.00    +0.000 Br
ATOM      5  C   UNL     1       7.381   4.456  16.374  0.00  0.00    +0.000 A 
ATOM      6  C   UNL     1       7.508   4.763  17.730  0.00  0.00    +0.000 A 
ATOM      7  C   UNL     1       6.373   5.085  18.473  0.00  0.00    +0.000 A 
ENDROOT
BRANCH   1   9
ATOM      8  O   UNL     1       3.498   6.728  18.544  0.00  0.00    +0.000 OA
ATOM      9  C   UNL     1       3.870   5.554  18.591  0.00  0.00    +0.000 C 
BRANCH   9  10
ATOM     10  C   UNL     1       3.080   4.594  19.391  0.00  0.00    +0.000 A 
ATOM     11  C   UNL     1       1.836   4.974  19.896  0.00  0.00    +0.000 A 
ATOM     12  C   UNL     1       1.055   4.032  20.563  0.00  0.00    +0.000 A 
ATOM     13  C   UNL     1       1.557   2.748  20.719  0.00  0.00    +0.000 A 
ATOM     14  N   UNL     1       2.781   2.363  20.298  0.00  0.00    +0.000 NA
ATOM     15  C   UNL     1       3.520   3.302  19.656  0.00  0.00    +0.000 A 
ENDBRANCH   9  10
ENDBRANCH   1   9
BRANCH   7  16
ATOM     16  O   UNL     1       6.509   5.298  19.815  0.00  0.00    +0.000 OA
ATOM     17  H   UNL     1       6.404   4.461  20.300  0.00  0.00    +0.000 HD
ENDBRANCH   7  16
TORSDOF 3
ENDMDL
MODEL 6
REMARK VINA RESULT:      -6.6      3.004      5.362
REMARK  Name = 
REMARK  3 active torsions:
REMARK  status: ('A' for Active; 'I' for Inactive)
REMARK    1  A    between atoms: C_2  and  C_3
REMARK    2  A    between atoms: C_2  and  C_9
REMARK    3  A    between atoms: C_15  and  O_16
REMARK                            x       y       z     vdW  Elec       q    Type
REMARK                         _______ _______ _______ _____ _____    ______ ____
ROOT
ATOM      1  C   UNL     1       5.542   4.234  18.332  0.00  0.00    +0.000 A 
ATOM      2  C   UNL     1       5.297   3.972  16.976  0.00  0.00    +0.000 A 
ATOM      3  C   UNL     1       6.009   4.662  15.996  0.00  0.00    +0.000 A 
ATOM      4 BR   UNL     1       5.691   4.297  14.169  0.00  0.00    +0.000 Br
ATOM      5  C   UNL     1       6.961   5.617  16.347  0.00  0.00    +0.000 A 
ATOM      6  C   UNL     1       7.234   5.861  17.694  0.00  0.00    +0.000 A 
ATOM      7  C   UNL     1       6.545   5.154  18.678  0.00  0.00    +0.000 A 
ENDROOT
BRANCH   1   9
ATOM      8  O   UNL     1       5.224   2.525  19.917  0.00  0.00    +0.000 OA
ATOM      9  C   UNL     1       4.727   3.493  19.339  0.00  0.00    +0.000 C 
BRANCH   9  10
ATOM     10  C   UNL     1       3.331   3.863  19.652  0.00  0.00    +0.000 A 
ATOM     11  C   UNL     1       2.319   2.910  19.531  0.00  0.00    +0.000 A 
ATOM     12  C   UNL     1       1.022   3.239  19.922  0.00  0.00    +0.000 A 
ATOM     13  C   UNL     1       0.781   4.518  20.401  0.00  0.00    +0.000 A 
ATOM     14  N   UNL     1       1.721   5.484  20.474  0.00  0.00    +0.000 NA
ATOM     15  C   UNL     1       2.973   5.136  20.083  0.00  0.00    +0.000 A 
ENDBRANCH   9  10
ENDBRANCH   1   9
BRANCH   7  16
ATOM     16  O   UNL     1       6.889   5.347  19.985  0.00  0.00    +0.000 OA
ATOM     17  H   UNL     1       7.014   6.296  20.162  0.00  0.00    +0.000 HD
ENDBRANCH   7  16
TORSDOF 3
ENDMDL
MODEL 7
REMARK VINA RESULT:      -6.6      1.257      1.426
REMARK  Name = 
REMARK  3 active torsions:
REMARK  status: ('A' for Active; 'I' for Inactive)
REMARK    1  A    between atoms: C_2  and  C_3
REMARK    2  A    between atoms: C_2  and  C_9
REMARK    3  A    between atoms: C_15  and  O_16
REMARK                            x       y       z     vdW  Elec       q    Type
REMARK                         _______ _______ _______ _____ _____    ______ ____
ROOT
ATOM      1  C   UNL     1       4.320   4.461  19.114  0.00  0.00    +0.000 A 
ATOM      2  C   UNL     1       3.684   5.643  19.522  0.00  0.00    +0.000 A 
ATOM      3  C   UNL     1       2.369   5.601  19.982  0.00  0.00    +0.000 A 
ATOM      4 BR   UNL     1       1.518   7.192  20.547  0.00  0.00    +0.000 Br
ATOM      5  C   UNL     1       1.672   4.396  20.037  0.00  0.00    +0.000 A 
ATOM      6  C   UNL     1       2.307   3.210  19.664  0.00  0.00    +0.000 A 
ATOM      7  C   UNL     1       3.632   3.243  19.230  0.00  0.00    +0.000 A 
ENDROOT
BRANCH   1   9
ATOM      8  O   UNL     1       6.648   4.646  19.400  0.00  0.00    +0.000 OA
ATOM      9  C   UNL     1       5.716   4.568  18.598  0.00  0.00    +0.000 C 
BRANCH   9  10
ATOM     10  C   UNL     1       6.022   4.611  17.152  0.00  0.00    +0.000 A 
ATOM     11  C   UNL     1       5.044   4.239  16.228  0.00  0.00    +0.000 A 
ATOM     12  C   UNL     1       5.307   4.376  14.866  0.00  0.00    +0.000 A 
ATOM     13  C   UNL     1       6.547   4.861  14.478  0.00  0.00    +0.000 A 
ATOM     14  N   UNL     1       7.538   5.172  15.341  0.00  0.00    +0.000 NA
ATOM     15  C   UNL     1       7.255   5.024  16.660  0.00  0.00    +0.000 A 
ENDBRANCH   9  10
ENDBRANCH   1   9
BRANCH   7  16
ATOM     16  O   UNL     1       4.259   2.063  18.952  0.00  0.00    +0.000 OA
ATOM     17  H   UNL     1       4.801   2.151  18.149  0.00  0.00    +0.000 HD
ENDBRANCH   7  16
TORSDOF 3
ENDMDL
MODEL 8
REMARK VINA RESULT:      -6.6      3.589      5.857
REMARK  Name = 
REMARK  3 active torsions:
REMARK  status: ('A' for Active; 'I' for Inactive)
REMARK    1  A    between atoms: C_2  and  C_3
REMARK    2  A    between atoms: C_2  and  C_9
REMARK    3  A    between atoms: C_15  and  O_16
REMARK                            x       y       z     vdW  Elec       q    Type
REMARK                         _______ _______ _______ _____ _____    ______ ____
ROOT
ATOM      1  C   UNL     1       3.369   4.870  17.427  0.00  0.00    +0.000 A 
ATOM      2  C   UNL     1       4.210   4.245  16.494  0.00  0.00    +0.000 A 
ATOM      3  C   UNL     1       5.249   4.965  15.904  0.00  0.00    +0.000 A 
ATOM      4 BR   UNL     1       6.391   4.118  14.659  0.00  0.00    +0.000 Br
ATOM      5  C   UNL     1       5.460   6.303  16.227  0.00  0.00    +0.000 A 
ATOM      6  C   UNL     1       4.649   6.924  17.178  0.00  0.00    +0.000 A 
ATOM      7  C   UNL     1       3.626   6.201  17.792  0.00  0.00    +0.000 A 
ENDROOT
BRANCH   1   9
ATOM      8  O   UNL     1       1.254   3.846  17.313  0.00  0.00    +0.000 OA
ATOM      9  C   UNL     1       2.252   4.064  18.002  0.00  0.00    +0.000 C 
BRANCH   9  10
ATOM     10  C   UNL     1       2.288   3.536  19.382  0.00  0.00    +0.000 A 
ATOM     11  C   UNL     1       1.117   3.507  20.141  0.00  0.00    +0.000 A 
ATOM     12  C   UNL     1       1.139   2.917  21.404  0.00  0.00    +0.000 A 
ATOM     13  C   UNL     1       2.337   2.396  21.870  0.00  0.00    +0.000 A 
ATOM     14  N   UNL     1       3.502   2.462  21.189  0.00  0.00    +0.000 NA
ATOM     15  C   UNL     1       3.451   3.046  19.965  0.00  0.00    +0.000 A 
ENDBRANCH   9  10
ENDBRANCH   1   9
BRANCH   7  16
ATOM     16  O   UNL     1       2.902   6.803  18.780  0.00  0.00    +0.000 OA
ATOM     17  H   UNL     1       3.307   7.653  19.023  0.00  0.00    +0.000 HD
ENDBRANCH   7  16
TORSDOF 3
ENDMDL
MODEL 9
REMARK VINA RESULT:      -6.5      1.567      1.850
REMARK  Name = 
REMARK  3 active torsions:
REMARK  status: ('A' for Active; 'I' for Inactive)
REMARK    1  A    between atoms: C_2  and  C_3
REMARK    2  A    between atoms: C_2  and  C_9
REMARK    3  A    between atoms: C_15  and  O_16
REMARK                            x       y       z     vdW  Elec       q    Type
REMARK                         _______ _______ _______ _____ _____    ______ ____
ROOT
ATOM      1  C   UNL     1       3.443   4.667  18.442  0.00  0.00    +0.000 A 
ATOM      2  C   UNL     1       3.204   5.943  17.911  0.00  0.00    +0.000 A 
ATOM      3  C   UNL     1       2.518   6.893  18.666  0.00  0.00    +0.000 A 
ATOM      4 BR   UNL     1       2.210   8.618  17.956  0.00  0.00    +0.000 Br
ATOM      5  C   UNL     1       2.059   6.588  19.946  0.00  0.00    +0.000 A 
ATOM      6  C   UNL     1       2.320   5.332  20.496  0.00  0.00    +0.000 A 
ATOM      7  C   UNL     1       3.031   4.388  19.755  0.00  0.00    +0.000 A 
ENDROOT
BRANCH   1   9
ATOM      8  O   UNL     1       3.816   2.493  17.624  0.00  0.00    +0.000 OA
ATOM      9  C   UNL     1       4.151   3.678  17.578  0.00  0.00    +0.000 C 
BRANCH   9  10
ATOM     10  C   UNL     1       5.262   4.065  16.682  0.00  0.00    +0.000 A 
ATOM     11  C   UNL     1       5.061   4.090  15.302  0.00  0.00    +0.000 A 
ATOM     12  C   UNL     1       6.081   4.551  14.472  0.00  0.00    +0.000 A 
ATOM     13  C   UNL     1       7.275   4.952  15.053  0.00  0.00    +0.000 A 
ATOM     14  N   UNL     1       7.527   4.883  16.378  0.00  0.00    +0.000 NA
ATOM     15  C   UNL     1       6.516   4.426  17.161  0.00  0.00    +0.000 A 
ENDBRANCH   9  10
ENDBRANCH   1   9
BRANCH   7  16
ATOM     16  O   UNL     1       3.348   3.199  20.344  0.00  0.00    +0.000 OA
ATOM     17  H   UNL     1       4.000   2.719  19.804  0.00  0.00    +0.000 HD
ENDBRANCH   7  16
TORSDOF 3
ENDMDL
