MODEL 1
REMARK VINA RESULT:      -7.3      0.000      0.000
REMARK  Name = 
REMARK  8 active torsions:
REMARK  status: ('A' for Active; 'I' for Inactive)
REMARK    1  A    between atoms: C_2  and  C_3
REMARK    2  A    between atoms: C_3  and  C_4
REMARK    3  A    between atoms: C_4  and  C_5
REMARK    4  A    between atoms: C_5  and  C_6
REMARK    5  A    between atoms: C_6  and  O_7
REMARK    6  A    between atoms: O_7  and  C_8
REMARK    7  A    between atoms: C_13  and  N_14
REMARK    8  A    between atoms: C_15  and  C_16
REMARK                            x       y       z     vdW  Elec       q    Type
REMARK                         _______ _______ _______ _____ _____    ______ ____
ROOT
ATOM      1  C   UNL     1       3.243   5.403  19.879  0.00  0.00    +0.000 A 
ATOM      2  C   UNL     1       2.760   6.398  19.025  0.00  0.00    +0.000 A 
ATOM      3  C   UNL     1       3.416   6.679  17.804  0.00  0.00    +0.000 A 
ATOM      4  C   UNL     1       4.551   5.955  17.438  0.00  0.00    +0.000 A 
ATOM      5  C   UNL     1       5.321   6.135  16.207  0.00  0.00    +0.000 A 
ATOM      6  C   UNL     1       6.469   5.474  15.989  0.00  0.00    +0.000 A 
ATOM      7  C   UNL     1       6.955   4.626  17.182  0.00  0.00    +0.000 A 
ATOM      8  O   UNL     1       8.124   4.416  17.476  0.00  0.00    +0.000 OA
ATOM      9  O   UNL     1       5.950   4.033  17.919  0.00  0.00    +0.000 OA
ATOM     10  C   UNL     1       4.944   4.923  18.272  0.00  0.00    +0.000 A 
ATOM     11  C   UNL     1       4.333   4.657  19.479  0.00  0.00    +0.000 A 
ENDROOT
BRANCH   6  12
ATOM     12  N   UNL     1       7.224   5.583  14.821  0.00  0.00    +0.000 N 
ATOM     13  C   UNL     1       7.095   4.847  13.641  0.00  0.00    +0.000 C 
ATOM     14  C   UNL     1       8.145   5.151  12.555  0.00  0.00    +0.000 C 
ATOM     15  O   UNL     1       6.222   4.052  13.426  0.00  0.00    +0.000 OA
ATOM     16  H   UNL     1       7.994   6.248  14.819  0.00  0.00    +0.000 HD
ENDBRANCH   6  12
BRANCH   1  17
ATOM     17  O   UNL     1       2.590   5.170  21.055  0.00  0.00    +0.000 OA
BRANCH  17  18
ATOM     18  C   UNL     1       1.265   4.634  20.881  0.00  0.00    +0.000 C 
BRANCH  18  19
ATOM     19  C   UNL     1       1.352   3.147  20.627  0.00  0.00    +0.000 C 
BRANCH  19  20
ATOM     20  C   UNL     1       0.558   2.766  19.380  0.00  0.00    +0.000 C 
BRANCH  20  21
ATOM     21  C   UNL     1       1.422   2.907  18.140  0.00  0.00    +0.000 C 
BRANCH  21  23
ATOM     22  C   UNL     1       3.699   1.250  18.354  0.00  0.00    +0.000 C 
ATOM     23  C   UNL     1       2.647   2.016  18.255  0.00  0.00    +0.000 C 
ENDBRANCH  21  23
ENDBRANCH  20  21
ENDBRANCH  19  20
ENDBRANCH  18  19
ENDBRANCH  17  18
ENDBRANCH   1  17
TORSDOF 7
ENDMDL
MODEL 2
REMARK VINA RESULT:      -7.0      3.204      7.004
REMARK  Name = 
REMARK  8 active torsions:
REMARK  status: ('A' for Active; 'I' for Inactive)
REMARK    1  A    between atoms: C_2  and  C_3
REMARK    2  A    between atoms: C_3  and  C_4
REMARK    3  A    between atoms: C_4  and  C_5
REMARK    4  A    between atoms: C_5  and  C_6
REMARK    5  A    between atoms: C_6  and  O_7
REMARK    6  A    between atoms: O_7  and  C_8
REMARK    7  A    between atoms: C_13  and  N_14
REMARK    8  A    between atoms: C_15  and  C_16
REMARK                            x       y       z     vdW  Elec       q    Type
REMARK                         _______ _______ _______ _____ _____    ______ ____
ROOT
ATOM      1  C   UNL     1       5.341   4.318  15.658  0.00  0.00    +0.000 A 
ATOM      2  C   UNL     1       5.457   5.701  15.502  0.00  0.00    +0.000 A 
ATOM      3  C   UNL     1       4.851   6.583  16.426  0.00  0.00    +0.000 A 
ATOM      4  C   UNL     1       4.137   6.076  17.511  0.00  0.00    +0.000 A 
ATOM      5  C   UNL     1       3.468   6.868  18.543  0.00  0.00    +0.000 A 
ATOM      6  C   UNL     1       2.703   6.299  19.488  0.00  0.00    +0.000 A 
ATOM      7  C   UNL     1       2.497   4.780  19.312  0.00  0.00    +0.000 A 
ATOM      8  O   UNL     1       1.489   4.159  19.622  0.00  0.00    +0.000 OA
ATOM      9  O   UNL     1       3.588   4.101  18.808  0.00  0.00    +0.000 OA
ATOM     10  C   UNL     1       4.119   4.702  17.675  0.00  0.00    +0.000 A 
ATOM     11  C   UNL     1       4.679   3.829  16.766  0.00  0.00    +0.000 A 
ENDROOT
BRANCH   6  12
ATOM     12  N   UNL     1       2.071   7.003  20.513  0.00  0.00    +0.000 N 
ATOM     13  C   UNL     1       1.501   8.277  20.457  0.00  0.00    +0.000 C 
ATOM     14  C   UNL     1       0.952   8.813  21.793  0.00  0.00    +0.000 C 
ATOM     15  O   UNL     1       1.390   8.930  19.457  0.00  0.00    +0.000 OA
ATOM     16  H   UNL     1       2.043   6.571  21.433  0.00  0.00    +0.000 HD
ENDBRANCH   6  12
BRANCH   1  17
ATOM     17  O   UNL     1       5.929   3.499  14.737  0.00  0.00    +0.000 OA
BRANCH  17  18
ATOM     18  C   UNL     1       5.868   4.008  13.392  0.00  0.00    +0.000 C 
BRANCH  18  19
ATOM     19  C   UNL     1       6.394   2.965  12.434  0.00  0.00    +0.000 C 
BRANCH  19  20
ATOM     20  C   UNL     1       5.405   2.731  11.294  0.00  0.00    +0.000 C 
BRANCH  20  21
ATOM     21  C   UNL     1       4.060   3.354  11.625  0.00  0.00    +0.000 C 
BRANCH  21  23
ATOM     22  C   UNL     1       2.823   4.289   9.264  0.00  0.00    +0.000 C 
ATOM     23  C   UNL     1       3.395   3.858  10.355  0.00  0.00    +0.000 C 
ENDBRANCH  21  23
ENDBRANCH  20  21
ENDBRANCH  19  20
ENDBRANCH  18  19
ENDBRANCH  17  18
ENDBRANCH   1  17
TORSDOF 7
ENDMDL
MODEL 3
REMARK VINA RESULT:      -6.9      2.872      7.048
REMARK  Name = 
REMARK  8 active torsions:
REMARK  status: ('A' for Active; 'I' for Inactive)
REMARK    1  A    between atoms: C_2  and  C_3
REMARK    2  A    between atoms: C_3  and  C_4
REMARK    3  A    between atoms: C_4  and  C_5
REMARK    4  A    between atoms: C_5  and  C_6
REMARK    5  A    between atoms: C_6  and  O_7
REMARK    6  A    between atoms: O_7  and  C_8
REMARK    7  A    between atoms: C_13  and  N_14
REMARK    8  A    between atoms: C_15  and  C_16
REMARK                            x       y       z     vdW  Elec       q    Type
REMARK                         _______ _______ _______ _____ _____    ______ ____
ROOT
ATOM      1  C   UNL     1       6.520   5.030  15.221  0.00  0.00    +0.000 A 
ATOM      2  C   UNL     1       7.397   4.940  16.305  0.00  0.00    +0.000 A 
ATOM      3  C   UNL     1       6.914   4.624  17.596  0.00  0.00    +0.000 A 
ATOM      4  C   UNL     1       5.553   4.392  17.796  0.00  0.00    +0.000 A 
ATOM      5  C   UNL     1       4.921   4.051  19.070  0.00  0.00    +0.000 A 
ATOM      6  C   UNL     1       3.587   3.959  19.196  0.00  0.00    +0.000 A 
ATOM      7  C   UNL     1       2.798   4.361  17.933  0.00  0.00    +0.000 A 
ATOM      8  O   UNL     1       1.697   4.896  17.923  0.00  0.00    +0.000 OA
ATOM      9  O   UNL     1       3.402   4.022  16.739  0.00  0.00    +0.000 OA
ATOM     10  C   UNL     1       4.734   4.408  16.681  0.00  0.00    +0.000 A 
ATOM     11  C   UNL     1       5.186   4.743  15.421  0.00  0.00    +0.000 A 
ENDROOT
BRANCH   6  12
ATOM     12  N   UNL     1       2.935   3.606  20.377  0.00  0.00    +0.000 N 
ATOM     13  C   UNL     1       1.959   2.624  20.560  0.00  0.00    +0.000 C 
ATOM     14  C   UNL     1       1.371   2.535  21.982  0.00  0.00    +0.000 C 
ATOM     15  O   UNL     1       1.598   1.855  19.713  0.00  0.00    +0.000 OA
ATOM     16  H   UNL     1       3.154   4.141  21.213  0.00  0.00    +0.000 HD
ENDBRANCH   6  12
BRANCH   1  17
ATOM     17  O   UNL     1       7.022   5.350  13.992  0.00  0.00    +0.000 OA
BRANCH  17  18
ATOM     18  C   UNL     1       7.522   4.215  13.262  0.00  0.00    +0.000 C 
BRANCH  18  19
ATOM     19  C   UNL     1       6.878   4.171  11.896  0.00  0.00    +0.000 C 
BRANCH  19  20
ATOM     20  C   UNL     1       5.991   2.936  11.756  0.00  0.00    +0.000 C 
BRANCH  20  21
ATOM     21  C   UNL     1       4.554   3.275  12.108  0.00  0.00    +0.000 C 
BRANCH  21  23
ATOM     22  C   UNL     1       3.089   3.831   9.759  0.00  0.00    +0.000 C 
ATOM     23  C   UNL     1       3.766   3.574  10.844  0.00  0.00    +0.000 C 
ENDBRANCH  21  23
ENDBRANCH  20  21
ENDBRANCH  19  20
ENDBRANCH  18  19
ENDBRANCH  17  18
ENDBRANCH   1  17
TORSDOF 7
ENDMDL
MODEL 4
REMARK VINA RESULT:      -6.9      2.688      7.027
REMARK  Name = 
REMARK  8 active torsions:
REMARK  status: ('A' for Active; 'I' for Inactive)
REMARK    1  A    between atoms: C_2  and  C_3
REMARK    2  A    between atoms: C_3  and  C_4
REMARK    3  A    between atoms: C_4  and  C_5
REMARK    4  A    between atoms: C_5  and  C_6
REMARK    5  A    between atoms: C_6  and  O_7
REMARK    6  A    between atoms: O_7  and  C_8
REMARK    7  A    between atoms: C_13  and  N_14
REMARK    8  A    between atoms: C_15  and  C_16
REMARK                            x       y       z     vdW  Elec       q    Type
REMARK                         _______ _______ _______ _____ _____    ______ ____
ROOT
ATOM      1  C   UNL     1       6.852   5.044  15.837  0.00  0.00    +0.000 A 
ATOM      2  C   UNL     1       7.416   5.313  17.087  0.00  0.00    +0.000 A 
ATOM      3  C   UNL     1       6.758   4.915  18.274  0.00  0.00    +0.000 A 
ATOM      4  C   UNL     1       5.540   4.239  18.204  0.00  0.00    +0.000 A 
ATOM      5  C   UNL     1       4.757   3.764  19.345  0.00  0.00    +0.000 A 
ATOM      6  C   UNL     1       3.537   3.225  19.191  0.00  0.00    +0.000 A 
ATOM      7  C   UNL     1       2.997   3.269  17.747  0.00  0.00    +0.000 A 
ATOM      8  O   UNL     1       1.822   3.392  17.430  0.00  0.00    +0.000 OA
ATOM      9  O   UNL     1       3.954   3.100  16.765  0.00  0.00    +0.000 OA
ATOM     10  C   UNL     1       5.061   3.918  16.946  0.00  0.00    +0.000 A 
ATOM     11  C   UNL     1       5.676   4.325  15.781  0.00  0.00    +0.000 A 
ENDROOT
BRANCH   6  12
ATOM     12  N   UNL     1       2.763   2.728  20.240  0.00  0.00    +0.000 N 
ATOM     13  C   UNL     1       1.744   3.377  20.940  0.00  0.00    +0.000 C 
ATOM     14  C   UNL     1       1.135   2.579  22.109  0.00  0.00    +0.000 C 
ATOM     15  O   UNL     1       1.312   4.463  20.666  0.00  0.00    +0.000 OA
ATOM     16  H   UNL     1       2.974   1.793  20.578  0.00  0.00    +0.000 HD
ENDBRANCH   6  12
BRANCH   1  17
ATOM     17  O   UNL     1       7.512   5.456  14.715  0.00  0.00    +0.000 OA
BRANCH  17  18
ATOM     18  C   UNL     1       6.774   5.231  13.500  0.00  0.00    +0.000 C 
BRANCH  18  19
ATOM     19  C   UNL     1       7.639   4.478  12.516  0.00  0.00    +0.000 C 
BRANCH  19  20
ATOM     20  C   UNL     1       6.794   3.526  11.673  0.00  0.00    +0.000 C 
BRANCH  20  21
ATOM     21  C   UNL     1       5.481   3.223  12.373  0.00  0.00    +0.000 C 
BRANCH  21  23
ATOM     22  C   UNL     1       3.353   3.320  10.519  0.00  0.00    +0.000 C 
ATOM     23  C   UNL     1       4.336   3.275  11.375  0.00  0.00    +0.000 C 
ENDBRANCH  21  23
ENDBRANCH  20  21
ENDBRANCH  19  20
ENDBRANCH  18  19
ENDBRANCH  17  18
ENDBRANCH   1  17
TORSDOF 7
ENDMDL
MODEL 5
REMARK VINA RESULT:      -6.9      1.278      2.482
REMARK  Name = 
REMARK  8 active torsions:
REMARK  status: ('A' for Active; 'I' for Inactive)
REMARK    1  A    between atoms: C_2  and  C_3
REMARK    2  A    between atoms: C_3  and  C_4
REMARK    3  A    between atoms: C_4  and  C_5
REMARK    4  A    between atoms: C_5  and  C_6
REMARK    5  A    between atoms: C_6  and  O_7
REMARK    6  A    between atoms: O_7  and  C_8
REMARK    7  A    between atoms: C_13  and  N_14
REMARK    8  A    between atoms: C_15  and  C_16
REMARK                            x       y       z     vdW  Elec       q    Type
REMARK                         _______ _______ _______ _____ _____    ______ ____
ROOT
ATOM      1  C   UNL     1       3.877   2.953  19.422  0.00  0.00    +0.000 A 
ATOM      2  C   UNL     1       3.154   2.745  18.244  0.00  0.00    +0.000 A 
ATOM      3  C   UNL     1       3.661   3.191  17.001  0.00  0.00    +0.000 A 
ATOM      4  C   UNL     1       4.895   3.838  16.941  0.00  0.00    +0.000 A 
ATOM      5  C   UNL     1       5.539   4.343  15.729  0.00  0.00    +0.000 A 
ATOM      6  C   UNL     1       6.676   5.057  15.777  0.00  0.00    +0.000 A 
ATOM      7  C   UNL     1       7.157   5.396  17.203  0.00  0.00    +0.000 A 
ATOM      8  O   UNL     1       7.750   6.415  17.529  0.00  0.00    +0.000 OA
ATOM      9  O   UNL     1       6.922   4.413  18.143  0.00  0.00    +0.000 OA
ATOM     10  C   UNL     1       5.615   3.946  18.118  0.00  0.00    +0.000 A 
ATOM     11  C   UNL     1       5.121   3.543  19.342  0.00  0.00    +0.000 A 
ENDROOT
BRANCH   6  12
ATOM     12  N   UNL     1       7.348   5.533  14.651  0.00  0.00    +0.000 N 
ATOM     13  C   UNL     1       7.364   4.991  13.365  0.00  0.00    +0.000 C 
ATOM     14  C   UNL     1       8.278   5.712  12.356  0.00  0.00    +0.000 C 
ATOM     15  O   UNL     1       6.701   4.055  13.011  0.00  0.00    +0.000 OA
ATOM     16  H   UNL     1       7.936   6.355  14.768  0.00  0.00    +0.000 HD
ENDBRANCH   6  12
BRANCH   1  17
ATOM     17  O   UNL     1       3.348   2.519  20.604  0.00  0.00    +0.000 OA
BRANCH  17  18
ATOM     18  C   UNL     1       1.923   2.328  20.561  0.00  0.00    +0.000 C 
BRANCH  18  19
ATOM     19  C   UNL     1       1.241   3.448  21.312  0.00  0.00    +0.000 C 
BRANCH  19  20
ATOM     20  C   UNL     1       0.927   4.612  20.375  0.00  0.00    +0.000 C 
BRANCH  20  21
ATOM     21  C   UNL     1       1.871   5.772  20.638  0.00  0.00    +0.000 C 
BRANCH  21  23
ATOM     22  C   UNL     1       2.950   6.709  18.202  0.00  0.00    +0.000 C 
ATOM     23  C   UNL     1       2.451   6.276  19.327  0.00  0.00    +0.000 C 
ENDBRANCH  21  23
ENDBRANCH  20  21
ENDBRANCH  19  20
ENDBRANCH  18  19
ENDBRANCH  17  18
ENDBRANCH   1  17
TORSDOF 7
ENDMDL
MODEL 6
REMARK VINA RESULT:      -6.6      3.041      6.871
REMARK  Name = 
REMARK  8 active torsions:
REMARK  status: ('A' for Active; 'I' for Inactive)
REMARK    1  A    between atoms: C_2  and  C_3
REMARK    2  A    between atoms: C_3  and  C_4
REMARK    3  A    between atoms: C_4  and  C_5
REMARK    4  A    between atoms: C_5  and  C_6
REMARK    5  A    between atoms: C_6  and  O_7
REMARK    6  A    between atoms: O_7  and  C_8
REMARK    7  A    between atoms: C_13  and  N_14
REMARK    8  A    between atoms: C_15  and  C_16
REMARK                            x       y       z     vdW  Elec       q    Type
REMARK                         _______ _______ _______ _____ _____    ______ ____
ROOT
ATOM      1  C   UNL     1       5.246   4.370  15.940  0.00  0.00    +0.000 A 
ATOM      2  C   UNL     1       5.369   5.751  15.765  0.00  0.00    +0.000 A 
ATOM      3  C   UNL     1       4.744   6.648  16.661  0.00  0.00    +0.000 A 
ATOM      4  C   UNL     1       4.002   6.158  17.737  0.00  0.00    +0.000 A 
ATOM      5  C   UNL     1       3.310   6.968  18.740  0.00  0.00    +0.000 A 
ATOM      6  C   UNL     1       2.522   6.414  19.675  0.00  0.00    +0.000 A 
ATOM      7  C   UNL     1       2.316   4.893  19.517  0.00  0.00    +0.000 A 
ATOM      8  O   UNL     1       1.299   4.279  19.812  0.00  0.00    +0.000 OA
ATOM      9  O   UNL     1       3.418   4.204  19.050  0.00  0.00    +0.000 OA
ATOM     10  C   UNL     1       3.977   4.787  17.921  0.00  0.00    +0.000 A 
ATOM     11  C   UNL     1       4.558   3.899  17.039  0.00  0.00    +0.000 A 
ENDROOT
BRANCH   6  12
ATOM     12  N   UNL     1       1.867   7.135  20.673  0.00  0.00    +0.000 N 
ATOM     13  C   UNL     1       1.300   8.408  20.584  0.00  0.00    +0.000 C 
ATOM     14  C   UNL     1       0.720   8.966  21.897  0.00  0.00    +0.000 C 
ATOM     15  O   UNL     1       1.213   9.046  19.571  0.00  0.00    +0.000 OA
ATOM     16  H   UNL     1       1.816   6.717  21.599  0.00  0.00    +0.000 HD
ENDBRANCH   6  12
BRANCH   1  17
ATOM     17  O   UNL     1       5.855   3.536  15.046  0.00  0.00    +0.000 OA
BRANCH  17  18
ATOM     18  C   UNL     1       6.777   4.207  14.169  0.00  0.00    +0.000 C 
BRANCH  18  19
ATOM     19  C   UNL     1       6.455   3.856  12.735  0.00  0.00    +0.000 C 
BRANCH  19  20
ATOM     20  C   UNL     1       4.952   3.658  12.552  0.00  0.00    +0.000 C 
BRANCH  20  21
ATOM     21  C   UNL     1       4.673   2.865  11.288  0.00  0.00    +0.000 C 
BRANCH  21  23
ATOM     22  C   UNL     1       6.414   0.647  11.136  0.00  0.00    +0.000 C 
ATOM     23  C   UNL     1       5.610   1.672  11.206  0.00  0.00    +0.000 C 
ENDBRANCH  21  23
ENDBRANCH  20  21
ENDBRANCH  19  20
ENDBRANCH  18  19
ENDBRANCH  17  18
ENDBRANCH   1  17
TORSDOF 7
ENDMDL
MODEL 7
REMARK VINA RESULT:      -6.5      2.637      6.905
REMARK  Name = 
REMARK  8 active torsions:
REMARK  status: ('A' for Active; 'I' for Inactive)
REMARK    1  A    between atoms: C_2  and  C_3
REMARK    2  A    between atoms: C_3  and  C_4
REMARK    3  A    between atoms: C_4  and  C_5
REMARK    4  A    between atoms: C_5  and  C_6
REMARK    5  A    between atoms: C_6  and  O_7
REMARK    6  A    between atoms: O_7  and  C_8
REMARK    7  A    between atoms: C_13  and  N_14
REMARK    8  A    between atoms: C_15  and  C_16
REMARK                            x       y       z     vdW  Elec       q    Type
REMARK                         _______ _______ _______ _____ _____    ______ ____
ROOT
ATOM      1  C   UNL     1       5.673   5.615  15.539  0.00  0.00    +0.000 A 
ATOM      2  C   UNL     1       5.198   6.692  16.291  0.00  0.00    +0.000 A 
ATOM      3  C   UNL     1       4.518   6.473  17.511  0.00  0.00    +0.000 A 
ATOM      4  C   UNL     1       4.323   5.173  17.979  0.00  0.00    +0.000 A 
ATOM      5  C   UNL     1       3.646   4.803  19.222  0.00  0.00    +0.000 A 
ATOM      6  C   UNL     1       3.399   3.521  19.539  0.00  0.00    +0.000 A 
ATOM      7  C   UNL     1       3.772   2.509  18.436  0.00  0.00    +0.000 A 
ATOM      8  O   UNL     1       3.186   1.459  18.207  0.00  0.00    +0.000 OA
ATOM      9  O   UNL     1       4.899   2.833  17.708  0.00  0.00    +0.000 OA
ATOM     10  C   UNL     1       4.884   4.142  17.246  0.00  0.00    +0.000 A 
ATOM     11  C   UNL     1       5.523   4.338  16.040  0.00  0.00    +0.000 A 
ENDROOT
BRANCH   6  12
ATOM     12  N   UNL     1       2.788   3.112  20.723  0.00  0.00    +0.000 N 
ATOM     13  C   UNL     1       1.436   2.843  20.946  0.00  0.00    +0.000 C 
ATOM     14  C   UNL     1       1.064   2.489  22.398  0.00  0.00    +0.000 C 
ATOM     15  O   UNL     1       0.593   2.837  20.092  0.00  0.00    +0.000 OA
ATOM     16  H   UNL     1       3.374   3.028  21.550  0.00  0.00    +0.000 HD
ENDBRANCH   6  12
BRANCH   1  17
ATOM     17  O   UNL     1       6.313   5.866  14.359  0.00  0.00    +0.000 OA
BRANCH  17  18
ATOM     18  C   UNL     1       7.184   4.800  13.939  0.00  0.00    +0.000 C 
BRANCH  18  19
ATOM     19  C   UNL     1       7.570   5.005  12.492  0.00  0.00    +0.000 C 
BRANCH  19  20
ATOM     20  C   UNL     1       7.008   3.885  11.620  0.00  0.00    +0.000 C 
BRANCH  20  21
ATOM     21  C   UNL     1       5.877   3.172  12.338  0.00  0.00    +0.000 C 
BRANCH  21  23
ATOM     22  C   UNL     1       3.521   3.287  10.785  0.00  0.00    +0.000 C 
ATOM     23  C   UNL     1       4.609   3.234  11.503  0.00  0.00    +0.000 C 
ENDBRANCH  21  23
ENDBRANCH  20  21
ENDBRANCH  19  20
ENDBRANCH  18  19
ENDBRANCH  17  18
ENDBRANCH   1  17
TORSDOF 7
ENDMDL
MODEL 8
REMARK VINA RESULT:      -6.5      4.558      7.905
REMARK  Name = 
REMARK  8 active torsions:
REMARK  status: ('A' for Active; 'I' for Inactive)
REMARK    1  A    between atoms: C_2  and  C_3
REMARK    2  A    between atoms: C_3  and  C_4
REMARK    3  A    between atoms: C_4  and  C_5
REMARK    4  A    between atoms: C_5  and  C_6
REMARK    5  A    between atoms: C_6  and  O_7
REMARK    6  A    between atoms: O_7  and  C_8
REMARK    7  A    between atoms: C_13  and  N_14
REMARK    8  A    between atoms: C_15  and  C_16
REMARK                            x       y       z     vdW  Elec       q    Type
REMARK                         _______ _______ _______ _____ _____    ______ ____
ROOT
ATOM      1  C   UNL     1       7.568   7.484  17.747  0.00  0.00    +0.000 A 
ATOM      2  C   UNL     1       8.019   6.546  18.679  0.00  0.00    +0.000 A 
ATOM      3  C   UNL     1       7.146   5.554  19.183  0.00  0.00    +0.000 A 
ATOM      4  C   UNL     1       5.823   5.500  18.745  0.00  0.00    +0.000 A 
ATOM      5  C   UNL     1       4.817   4.529  19.175  0.00  0.00    +0.000 A 
ATOM      6  C   UNL     1       3.534   4.621  18.790  0.00  0.00    +0.000 A 
ATOM      7  C   UNL     1       3.202   5.889  17.976  0.00  0.00    +0.000 A 
ATOM      8  O   UNL     1       2.134   6.487  17.996  0.00  0.00    +0.000 OA
ATOM      9  O   UNL     1       4.207   6.315  17.131  0.00  0.00    +0.000 OA
ATOM     10  C   UNL     1       5.442   6.394  17.759  0.00  0.00    +0.000 A 
ATOM     11  C   UNL     1       6.273   7.385  17.280  0.00  0.00    +0.000 A 
ENDROOT
BRANCH   6  12
ATOM     12  N   UNL     1       2.543   3.705  19.143  0.00  0.00    +0.000 N 
ATOM     13  C   UNL     1       1.839   2.835  18.308  0.00  0.00    +0.000 C 
ATOM     14  C   UNL     1       0.741   2.003  18.998  0.00  0.00    +0.000 C 
ATOM     15  O   UNL     1       2.062   2.682  17.139  0.00  0.00    +0.000 OA
ATOM     16  H   UNL     1       2.255   3.677  20.118  0.00  0.00    +0.000 HD
ENDBRANCH   6  12
BRANCH   1  17
ATOM     17  O   UNL     1       8.437   8.433  17.294  0.00  0.00    +0.000 OA
BRANCH  17  18
ATOM     18  C   UNL     1       8.256   9.721  17.910  0.00  0.00    +0.000 C 
BRANCH  18  19
ATOM     19  C   UNL     1       9.168   9.839  19.109  0.00  0.00    +0.000 C 
BRANCH  19  20
ATOM     20  C   UNL     1      10.011  11.109  19.024  0.00  0.00    +0.000 C 
BRANCH  20  21
ATOM     21  C   UNL     1       9.418  12.070  18.008  0.00  0.00    +0.000 C 
BRANCH  21  23
ATOM     22  C   UNL     1      11.484  13.425  16.639  0.00  0.00    +0.000 C 
ATOM     23  C   UNL     1      10.530  12.798  17.272  0.00  0.00    +0.000 C 
ENDBRANCH  21  23
ENDBRANCH  20  21
ENDBRANCH  19  20
ENDBRANCH  18  19
ENDBRANCH  17  18
ENDBRANCH   1  17
TORSDOF 7
ENDMDL
MODEL 9
REMARK VINA RESULT:      -6.5      4.303      7.142
REMARK  Name = 
REMARK  8 active torsions:
REMARK  status: ('A' for Active; 'I' for Inactive)
REMARK    1  A    between atoms: C_2  and  C_3
REMARK    2  A    between atoms: C_3  and  C_4
REMARK    3  A    between atoms: C_4  and  C_5
REMARK    4  A    between atoms: C_5  and  C_6
REMARK    5  A    between atoms: C_6  and  O_7
REMARK    6  A    between atoms: O_7  and  C_8
REMARK    7  A    between atoms: C_13  and  N_14
REMARK    8  A    between atoms: C_15  and  C_16
REMARK                            x       y       z     vdW  Elec       q    Type
REMARK                         _______ _______ _______ _____ _____    ______ ____
ROOT
ATOM      1  C   UNL     1       3.184   6.056  18.910  0.00  0.00    +0.000 A 
ATOM      2  C   UNL     1       3.235   6.914  17.808  0.00  0.00    +0.000 A 
ATOM      3  C   UNL     1       2.565   8.159  17.834  0.00  0.00    +0.000 A 
ATOM      4  C   UNL     1       1.852   8.545  18.969  0.00  0.00    +0.000 A 
ATOM      5  C   UNL     1       1.121   9.802  19.135  0.00  0.00    +0.000 A 
ATOM      6  C   UNL     1       0.363  10.042  20.217  0.00  0.00    +0.000 A 
ATOM      7  C   UNL     1       0.237   8.847  21.185  0.00  0.00    +0.000 A 
ATOM      8  O   UNL     1      -0.746   8.585  21.865  0.00  0.00    +0.000 OA
ATOM      9  O   UNL     1       1.371   8.069  21.298  0.00  0.00    +0.000 OA
ATOM     10  C   UNL     1       1.898   7.704  20.067  0.00  0.00    +0.000 A 
ATOM     11  C   UNL     1       2.522   6.474  20.046  0.00  0.00    +0.000 A 
ENDROOT
BRANCH   6  12
ATOM     12  N   UNL     1      -0.326  11.233  20.441  0.00  0.00    +0.000 N 
ATOM     13  C   UNL     1      -1.452  11.715  19.769  0.00  0.00    +0.000 C 
ATOM     14  C   UNL     1      -1.929  13.115  20.200  0.00  0.00    +0.000 C 
ATOM     15  O   UNL     1      -2.061  11.104  18.935  0.00  0.00    +0.000 OA
ATOM     16  H   UNL     1       0.040  11.863  21.151  0.00  0.00    +0.000 HD
ENDBRANCH   6  12
BRANCH   1  17
ATOM     17  O   UNL     1       3.833   4.857  18.842  0.00  0.00    +0.000 OA
BRANCH  17  18
ATOM     18  C   UNL     1       3.748   4.229  17.550  0.00  0.00    +0.000 C 
BRANCH  18  19
ATOM     19  C   UNL     1       2.823   3.037  17.628  0.00  0.00    +0.000 C 
BRANCH  19  20
ATOM     20  C   UNL     1       1.401   3.478  17.966  0.00  0.00    +0.000 C 
BRANCH  20  21
ATOM     21  C   UNL     1       0.783   2.535  18.983  0.00  0.00    +0.000 C 
BRANCH  21  23
ATOM     22  C   UNL     1       1.833   3.061  21.551  0.00  0.00    +0.000 C 
ATOM     23  C   UNL     1       1.348   2.818  20.365  0.00  0.00    +0.000 C 
ENDBRANCH  21  23
ENDBRANCH  20  21
ENDBRANCH  19  20
ENDBRANCH  18  19
ENDBRANCH  17  18
ENDBRANCH   1  17
TORSDOF 7
ENDMDL
