MODEL 1
REMARK VINA RESULT:      -8.2      0.000      0.000
REMARK  Name = 
REMARK  8 active torsions:
REMARK  status: ('A' for Active; 'I' for Inactive)
REMARK    1  A    between atoms: C_1  and  N_2
REMARK    2  A    between atoms: C_3  and  C_5
REMARK    3  A    between atoms: N_7  and  C_8
REMARK    4  A    between atoms: C_11  and  C_12
REMARK    5  A    between atoms: C_11  and  C_13
REMARK    6  A    between atoms: N_19  and  C_20
REMARK    7  A    between atoms: C_24  and  N_25
REMARK    8  A    between atoms: N_28  and  C_29
REMARK                            x       y       z     vdW  Elec       q    Type
REMARK                         _______ _______ _______ _____ _____    ______ ____
ROOT
ATOM      1  C   UNL     1      -5.419  12.727  18.546  0.00  0.00    +0.000 A 
ATOM      2  C   UNL     1      -4.686  11.939  17.665  0.00  0.00    +0.000 A 
ATOM      3  N   UNL     1      -3.499  11.573  18.250  0.00  0.00    +0.000 N 
ATOM      4  C   UNL     1      -2.509  10.745  17.591  0.00  0.00    +0.000 C 
ATOM      5  C   UNL     1      -3.445  12.080  19.517  0.00  0.00    +0.000 A 
ATOM      6  C   UNL     1      -4.619  12.811  19.740  0.00  0.00    +0.000 A 
ATOM      7  C   UNL     1      -4.835  13.516  21.082  0.00  0.00    +0.000 C 
ATOM      8  C   UNL     1      -6.304  13.580  21.529  0.00  0.00    +0.000 C 
ATOM      9  C   UNL     1      -4.254  14.947  21.022  0.00  0.00    +0.000 C 
ATOM     10  C   UNL     1      -4.086  12.711  22.203  0.00  0.00    +0.000 C 
ATOM     11  C   UNL     1      -2.700  12.275  21.827  0.00  0.00    +0.000 A 
ATOM     12  C   UNL     1      -1.681  12.129  22.738  0.00  0.00    +0.000 A 
ATOM     13  N   UNL     1      -0.451  11.701  22.401  0.00  0.00    +0.000 NA
ATOM     14  C   UNL     1      -0.246  11.380  21.111  0.00  0.00    +0.000 A 
ATOM     15  N   UNL     1       1.053  10.962  20.794  0.00  0.00    +0.000 N 
ATOM     16  N   UNL     1      -1.188  11.461  20.151  0.00  0.00    +0.000 NA
ATOM     17  C   UNL     1      -2.391  11.913  20.530  0.00  0.00    +0.000 A 
ATOM     18  H   UNL     1       1.548  10.866  21.674  0.00  0.00    +0.000 HD
ENDROOT
BRANCH  15  19
ATOM     19  C   UNL     1       1.399   9.958  19.871  0.00  0.00    +0.000 A 
ATOM     20  C   UNL     1       1.514  10.283  18.520  0.00  0.00    +0.000 A 
ATOM     21  C   UNL     1       1.868   9.307  17.592  0.00  0.00    +0.000 A 
ATOM     22  C   UNL     1       2.141   8.003  18.015  0.00  0.00    +0.000 A 
ATOM     23  C   UNL     1       2.077   7.643  19.368  0.00  0.00    +0.000 A 
ATOM     24  C   UNL     1       1.710   8.651  20.273  0.00  0.00    +0.000 A 
BRANCH  23  25
ATOM     25  N   UNL     1       2.302   6.356  19.807  0.00  0.00    +0.000 N 
ATOM     26  C   UNL     1       3.546   5.631  19.522  0.00  0.00    +0.000 C 
ATOM     27  C   UNL     1       3.208   4.164  19.160  0.00  0.00    +0.000 C 
ATOM     28  N   UNL     1       2.415   3.487  20.211  0.00  0.00    +0.000 NA
ATOM     29  C   UNL     1       2.109   2.115  19.824  0.00  0.00    +0.000 C 
ATOM     30  C   UNL     1       1.172   4.257  20.449  0.00  0.00    +0.000 C 
ATOM     31  C   UNL     1       1.453   5.728  20.832  0.00  0.00    +0.000 C 
ENDBRANCH  23  25
ENDBRANCH  15  19
BRANCH   1  34
ATOM     32  C   UNL     1      -7.823  15.348  17.356  0.00  0.00    +0.000 C 
ATOM     33  N   UNL     1      -6.657  14.631  17.801  0.00  0.00    +0.000 N 
ATOM     34  C   UNL     1      -6.724  13.318  18.223  0.00  0.00    +0.000 C 
ATOM     35  O   UNL     1      -7.783  12.708  18.312  0.00  0.00    +0.000 OA
ATOM     36  H   UNL     1      -5.752  15.071  17.720  0.00  0.00    +0.000 HD
ENDBRANCH   1  34
TORSDOF 3
ENDMDL
MODEL 2
REMARK VINA RESULT:      -7.7      3.197      3.489
REMARK  Name = 
REMARK  8 active torsions:
REMARK  status: ('A' for Active; 'I' for Inactive)
REMARK    1  A    between atoms: C_1  and  N_2
REMARK    2  A    between atoms: C_3  and  C_5
REMARK    3  A    between atoms: N_7  and  C_8
REMARK    4  A    between atoms: C_11  and  C_12
REMARK    5  A    between atoms: C_11  and  C_13
REMARK    6  A    between atoms: N_19  and  C_20
REMARK    7  A    between atoms: C_24  and  N_25
REMARK    8  A    between atoms: N_28  and  C_29
REMARK                            x       y       z     vdW  Elec       q    Type
REMARK                         _______ _______ _______ _____ _____    ______ ____
ROOT
ATOM      1  C   UNL     1      -1.208  15.760  20.069  0.00  0.00    +0.000 A 
ATOM      2  C   UNL     1      -0.495  15.114  19.066  0.00  0.00    +0.000 A 
ATOM      3  N   UNL     1      -0.206  13.831  19.457  0.00  0.00    +0.000 N 
ATOM      4  C   UNL     1       0.528  12.892  18.631  0.00  0.00    +0.000 C 
ATOM      5  C   UNL     1      -0.743  13.603  20.692  0.00  0.00    +0.000 A 
ATOM      6  C   UNL     1      -1.371  14.783  21.113  0.00  0.00    +0.000 A 
ATOM      7  C   UNL     1      -2.055  14.836  22.483  0.00  0.00    +0.000 C 
ATOM      8  C   UNL     1      -3.293  15.745  22.532  0.00  0.00    +0.000 C 
ATOM      9  C   UNL     1      -1.041  15.290  23.557  0.00  0.00    +0.000 C 
ATOM     10  C   UNL     1      -2.571  13.398  22.847  0.00  0.00    +0.000 C 
ATOM     11  C   UNL     1      -1.585  12.302  22.569  0.00  0.00    +0.000 A 
ATOM     12  C   UNL     1      -1.520  11.141  23.304  0.00  0.00    +0.000 A 
ATOM     13  N   UNL     1      -0.660  10.144  23.026  0.00  0.00    +0.000 NA
ATOM     14  C   UNL     1       0.142  10.305  21.958  0.00  0.00    +0.000 A 
ATOM     15  N   UNL     1       1.040   9.258  21.717  0.00  0.00    +0.000 N 
ATOM     16  N   UNL     1       0.132  11.391  21.161  0.00  0.00    +0.000 NA
ATOM     17  C   UNL     1      -0.726  12.366  21.489  0.00  0.00    +0.000 A 
ATOM     18  H   UNL     1       0.792   8.511  22.357  0.00  0.00    +0.000 HD
ENDROOT
BRANCH  15  19
ATOM     19  C   UNL     1       1.431   8.776  20.454  0.00  0.00    +0.000 A 
ATOM     20  C   UNL     1       1.340   9.614  19.345  0.00  0.00    +0.000 A 
ATOM     21  C   UNL     1       1.734   9.161  18.088  0.00  0.00    +0.000 A 
ATOM     22  C   UNL     1       2.253   7.870  17.940  0.00  0.00    +0.000 A 
ATOM     23  C   UNL     1       2.399   7.009  19.035  0.00  0.00    +0.000 A 
ATOM     24  C   UNL     1       1.985   7.499  20.284  0.00  0.00    +0.000 A 
BRANCH  23  25
ATOM     25  N   UNL     1       2.870   5.720  18.911  0.00  0.00    +0.000 N 
ATOM     26  C   UNL     1       1.985   4.550  18.940  0.00  0.00    +0.000 C 
ATOM     27  C   UNL     1       2.649   3.430  19.778  0.00  0.00    +0.000 C 
ATOM     28  N   UNL     1       3.999   3.075  19.284  0.00  0.00    +0.000 NA
ATOM     29  C   UNL     1       4.592   2.028  20.108  0.00  0.00    +0.000 C 
ATOM     30  C   UNL     1       4.848   4.289  19.285  0.00  0.00    +0.000 C 
ATOM     31  C   UNL     1       4.238   5.436  18.446  0.00  0.00    +0.000 C 
ENDBRANCH  23  25
ENDBRANCH  15  19
BRANCH   1  34
ATOM     32  C   UNL     1      -3.459  18.631  19.195  0.00  0.00    +0.000 C 
ATOM     33  N   UNL     1      -2.827  17.342  19.300  0.00  0.00    +0.000 N 
ATOM     34  C   UNL     1      -1.645  17.160  19.991  0.00  0.00    +0.000 C 
ATOM     35  O   UNL     1      -1.027  18.091  20.493  0.00  0.00    +0.000 OA
ATOM     36  H   UNL     1      -3.306  16.531  18.933  0.00  0.00    +0.000 HD
ENDBRANCH   1  34
TORSDOF 3
ENDMDL
MODEL 3
REMARK VINA RESULT:      -7.5      3.507      3.970
REMARK  Name = 
REMARK  8 active torsions:
REMARK  status: ('A' for Active; 'I' for Inactive)
REMARK    1  A    between atoms: C_1  and  N_2
REMARK    2  A    between atoms: C_3  and  C_5
REMARK    3  A    between atoms: N_7  and  C_8
REMARK    4  A    between atoms: C_11  and  C_12
REMARK    5  A    between atoms: C_11  and  C_13
REMARK    6  A    between atoms: N_19  and  C_20
REMARK    7  A    between atoms: C_24  and  N_25
REMARK    8  A    between atoms: N_28  and  C_29
REMARK                            x       y       z     vdW  Elec       q    Type
REMARK                         _______ _______ _______ _____ _____    ______ ____
ROOT
ATOM      1  C   UNL     1       0.030  15.361  19.540  0.00  0.00    +0.000 A 
ATOM      2  C   UNL     1       0.750  14.546  18.674  0.00  0.00    +0.000 A 
ATOM      3  N   UNL     1       0.788  13.266  19.168  0.00  0.00    +0.000 N 
ATOM      4  C   UNL     1       1.463  12.173  18.497  0.00  0.00    +0.000 C 
ATOM      5  C   UNL     1       0.078  13.211  20.334  0.00  0.00    +0.000 A 
ATOM      6  C   UNL     1      -0.406  14.497  20.605  0.00  0.00    +0.000 A 
ATOM      7  C   UNL     1      -1.233  14.750  21.869  0.00  0.00    +0.000 C 
ATOM      8  C   UNL     1      -2.313  15.832  21.708  0.00  0.00    +0.000 C 
ATOM      9  C   UNL     1      -0.298  15.128  23.040  0.00  0.00    +0.000 C 
ATOM     10  C   UNL     1      -2.005  13.433  22.240  0.00  0.00    +0.000 C 
ATOM     11  C   UNL     1      -1.174  12.187  22.153  0.00  0.00    +0.000 A 
ATOM     12  C   UNL     1      -1.377  11.086  22.952  0.00  0.00    +0.000 A 
ATOM     13  N   UNL     1      -0.654   9.957  22.843  0.00  0.00    +0.000 NA
ATOM     14  C   UNL     1       0.285   9.920  21.881  0.00  0.00    +0.000 A 
ATOM     15  N   UNL     1       1.033   8.738  21.815  0.00  0.00    +0.000 N 
ATOM     16  N   UNL     1       0.539  10.935  21.031  0.00  0.00    +0.000 NA
ATOM     17  C   UNL     1      -0.192  12.046  21.192  0.00  0.00    +0.000 A 
ATOM     18  H   UNL     1       0.598   8.084  22.457  0.00  0.00    +0.000 HD
ENDROOT
BRANCH  15  19
ATOM     19  C   UNL     1       1.494   8.113  20.642  0.00  0.00    +0.000 A 
ATOM     20  C   UNL     1       1.858   8.896  19.548  0.00  0.00    +0.000 A 
ATOM     21  C   UNL     1       2.329   8.298  18.382  0.00  0.00    +0.000 A 
ATOM     22  C   UNL     1       2.468   6.908  18.315  0.00  0.00    +0.000 A 
ATOM     23  C   UNL     1       2.152   6.086  19.405  0.00  0.00    +0.000 A 
ATOM     24  C   UNL     1       1.675   6.724  20.560  0.00  0.00    +0.000 A 
BRANCH  23  25
ATOM     25  N   UNL     1       2.242   4.712  19.352  0.00  0.00    +0.000 N 
ATOM     26  C   UNL     1       2.626   3.901  20.513  0.00  0.00    +0.000 C 
ATOM     27  C   UNL     1       3.590   2.779  20.054  0.00  0.00    +0.000 C 
ATOM     28  N   UNL     1       3.017   1.942  18.975  0.00  0.00    +0.000 NA
ATOM     29  C   UNL     1       3.961   0.910  18.565  0.00  0.00    +0.000 C 
ATOM     30  C   UNL     1       2.656   2.811  17.830  0.00  0.00    +0.000 C 
ATOM     31  C   UNL     1       1.680   3.941  18.231  0.00  0.00    +0.000 C 
ENDBRANCH  23  25
ENDBRANCH  15  19
BRANCH   1  34
ATOM     32  C   UNL     1      -1.390  18.453  17.960  0.00  0.00    +0.000 C 
ATOM     33  N   UNL     1      -1.001  17.101  18.265  0.00  0.00    +0.000 N 
ATOM     34  C   UNL     1      -0.174  16.800  19.329  0.00  0.00    +0.000 C 
ATOM     35  O   UNL     1       0.336  17.665  20.031  0.00  0.00    +0.000 OA
ATOM     36  H   UNL     1      -1.416  16.343  17.741  0.00  0.00    +0.000 HD
ENDBRANCH   1  34
TORSDOF 3
ENDMDL
MODEL 4
REMARK VINA RESULT:      -7.4      3.210      3.564
REMARK  Name = 
REMARK  8 active torsions:
REMARK  status: ('A' for Active; 'I' for Inactive)
REMARK    1  A    between atoms: C_1  and  N_2
REMARK    2  A    between atoms: C_3  and  C_5
REMARK    3  A    between atoms: N_7  and  C_8
REMARK    4  A    between atoms: C_11  and  C_12
REMARK    5  A    between atoms: C_11  and  C_13
REMARK    6  A    between atoms: N_19  and  C_20
REMARK    7  A    between atoms: C_24  and  N_25
REMARK    8  A    between atoms: N_28  and  C_29
REMARK                            x       y       z     vdW  Elec       q    Type
REMARK                         _______ _______ _______ _____ _____    ______ ____
ROOT
ATOM      1  C   UNL     1      -1.401  15.046  20.413  0.00  0.00    +0.000 A 
ATOM      2  C   UNL     1      -0.702  14.512  19.337  0.00  0.00    +0.000 A 
ATOM      3  N   UNL     1      -0.297  13.235  19.636  0.00  0.00    +0.000 N 
ATOM      4  C   UNL     1       0.455  12.402  18.719  0.00  0.00    +0.000 C 
ATOM      5  C   UNL     1      -0.741  12.901  20.884  0.00  0.00    +0.000 A 
ATOM      6  C   UNL     1      -1.429  14.005  21.407  0.00  0.00    +0.000 A 
ATOM      7  C   UNL     1      -2.033  13.931  22.812  0.00  0.00    +0.000 C 
ATOM      8  C   UNL     1      -3.330  14.738  22.982  0.00  0.00    +0.000 C 
ATOM      9  C   UNL     1      -0.994  14.404  23.854  0.00  0.00    +0.000 C 
ATOM     10  C   UNL     1      -2.418  12.440  23.120  0.00  0.00    +0.000 C 
ATOM     11  C   UNL     1      -1.371  11.440  22.726  0.00  0.00    +0.000 A 
ATOM     12  C   UNL     1      -1.177  10.250  23.387  0.00  0.00    +0.000 A 
ATOM     13  N   UNL     1      -0.264   9.339  23.006  0.00  0.00    +0.000 NA
ATOM     14  C   UNL     1       0.459   9.619  21.907  0.00  0.00    +0.000 A 
ATOM     15  N   UNL     1       1.417   8.658  21.556  0.00  0.00    +0.000 N 
ATOM     16  N   UNL     1       0.322  10.742  21.176  0.00  0.00    +0.000 NA
ATOM     17  C   UNL     1      -0.585  11.629  21.606  0.00  0.00    +0.000 A 
ATOM     18  H   UNL     1       1.263   7.861  22.164  0.00  0.00    +0.000 HD
ENDROOT
BRANCH  15  19
ATOM     19  C   UNL     1       1.767   8.276  20.248  0.00  0.00    +0.000 A 
ATOM     20  C   UNL     1       1.557   9.167  19.197  0.00  0.00    +0.000 A 
ATOM     21  C   UNL     1       1.908   8.813  17.897  0.00  0.00    +0.000 A 
ATOM     22  C   UNL     1       2.505   7.573  17.645  0.00  0.00    +0.000 A 
ATOM     23  C   UNL     1       2.771   6.665  18.677  0.00  0.00    +0.000 A 
ATOM     24  C   UNL     1       2.396   7.054  19.973  0.00  0.00    +0.000 A 
BRANCH  23  25
ATOM     25  N   UNL     1       3.320   5.421  18.452  0.00  0.00    +0.000 N 
ATOM     26  C   UNL     1       3.106   4.678  17.204  0.00  0.00    +0.000 C 
ATOM     27  C   UNL     1       2.869   3.184  17.535  0.00  0.00    +0.000 C 
ATOM     28  N   UNL     1       3.969   2.597  18.333  0.00  0.00    +0.000 NA
ATOM     29  C   UNL     1       3.699   1.196  18.633  0.00  0.00    +0.000 C 
ATOM     30  C   UNL     1       4.133   3.380  19.580  0.00  0.00    +0.000 C 
ATOM     31  C   UNL     1       4.390   4.880  19.305  0.00  0.00    +0.000 C 
ENDBRANCH  23  25
ENDBRANCH  15  19
BRANCH   1  34
ATOM     32  C   UNL     1      -1.686  18.631  21.483  0.00  0.00    +0.000 C 
ATOM     33  N   UNL     1      -1.348  17.236  21.372  0.00  0.00    +0.000 N 
ATOM     34  C   UNL     1      -1.945  16.410  20.440  0.00  0.00    +0.000 C 
ATOM     35  O   UNL     1      -2.845  16.793  19.702  0.00  0.00    +0.000 OA
ATOM     36  H   UNL     1      -0.590  16.871  21.931  0.00  0.00    +0.000 HD
ENDBRANCH   1  34
TORSDOF 3
ENDMDL
MODEL 5
REMARK VINA RESULT:      -7.4      3.772      5.150
REMARK  Name = 
REMARK  8 active torsions:
REMARK  status: ('A' for Active; 'I' for Inactive)
REMARK    1  A    between atoms: C_1  and  N_2
REMARK    2  A    between atoms: C_3  and  C_5
REMARK    3  A    between atoms: N_7  and  C_8
REMARK    4  A    between atoms: C_11  and  C_12
REMARK    5  A    between atoms: C_11  and  C_13
REMARK    6  A    between atoms: N_19  and  C_20
REMARK    7  A    between atoms: C_24  and  N_25
REMARK    8  A    between atoms: N_28  and  C_29
REMARK                            x       y       z     vdW  Elec       q    Type
REMARK                         _______ _______ _______ _____ _____    ______ ____
ROOT
ATOM      1  C   UNL     1      -1.337  13.646  23.092  0.00  0.00    +0.000 A 
ATOM      2  C   UNL     1      -1.236  12.266  23.224  0.00  0.00    +0.000 A 
ATOM      3  N   UNL     1      -0.481  11.757  22.197  0.00  0.00    +0.000 N 
ATOM      4  C   UNL     1      -0.186  10.346  22.048  0.00  0.00    +0.000 C 
ATOM      5  C   UNL     1      -0.053  12.781  21.401  0.00  0.00    +0.000 A 
ATOM      6  C   UNL     1      -0.569  13.976  21.920  0.00  0.00    +0.000 A 
ATOM      7  C   UNL     1      -0.267  15.305  21.220  0.00  0.00    +0.000 C 
ATOM      8  C   UNL     1      -0.156  16.505  22.173  0.00  0.00    +0.000 C 
ATOM      9  C   UNL     1      -1.349  15.593  20.155  0.00  0.00    +0.000 C 
ATOM     10  C   UNL     1       1.129  15.196  20.509  0.00  0.00    +0.000 C 
ATOM     11  C   UNL     1       1.339  13.915  19.757  0.00  0.00    +0.000 A 
ATOM     12  C   UNL     1       2.121  13.821  18.629  0.00  0.00    +0.000 A 
ATOM     13  N   UNL     1       2.338  12.663  17.981  0.00  0.00    +0.000 NA
ATOM     14  C   UNL     1       1.775  11.556  18.499  0.00  0.00    +0.000 A 
ATOM     15  N   UNL     1       2.003  10.374  17.782  0.00  0.00    +0.000 N 
ATOM     16  N   UNL     1       1.019  11.541  19.613  0.00  0.00    +0.000 NA
ATOM     17  C   UNL     1       0.813  12.722  20.212  0.00  0.00    +0.000 A 
ATOM     18  H   UNL     1       2.681  10.599  17.063  0.00  0.00    +0.000 HD
ENDROOT
BRANCH  15  19
ATOM     19  C   UNL     1       2.208   9.097  18.334  0.00  0.00    +0.000 A 
ATOM     20  C   UNL     1       1.461   8.704  19.443  0.00  0.00    +0.000 A 
ATOM     21  C   UNL     1       1.639   7.439  19.997  0.00  0.00    +0.000 A 
ATOM     22  C   UNL     1       2.548   6.544  19.423  0.00  0.00    +0.000 A 
ATOM     23  C   UNL     1       3.289   6.883  18.284  0.00  0.00    +0.000 A 
ATOM     24  C   UNL     1       3.087   8.169  17.758  0.00  0.00    +0.000 A 
BRANCH  23  25
ATOM     25  N   UNL     1       4.220   6.036  17.721  0.00  0.00    +0.000 N 
ATOM     26  C   UNL     1       5.554   6.489  17.312  0.00  0.00    +0.000 C 
ATOM     27  C   UNL     1       5.918   5.839  15.955  0.00  0.00    +0.000 C 
ATOM     28  N   UNL     1       5.836   4.361  15.991  0.00  0.00    +0.000 NA
ATOM     29  C   UNL     1       6.173   3.792  14.691  0.00  0.00    +0.000 C 
ATOM     30  C   UNL     1       4.468   3.964  16.401  0.00  0.00    +0.000 C 
ATOM     31  C   UNL     1       4.060   4.573  17.762  0.00  0.00    +0.000 C 
ENDBRANCH  23  25
ENDBRANCH  15  19
BRANCH   1  34
ATOM     32  C   UNL     1      -1.918  15.985  25.966  0.00  0.00    +0.000 C 
ATOM     33  N   UNL     1      -1.357  15.050  25.027  0.00  0.00    +0.000 N 
ATOM     34  C   UNL     1      -2.106  14.501  24.004  0.00  0.00    +0.000 C 
ATOM     35  O   UNL     1      -3.306  14.720  23.877  0.00  0.00    +0.000 OA
ATOM     36  H   UNL     1      -0.367  14.857  25.062  0.00  0.00    +0.000 HD
ENDBRANCH   1  34
TORSDOF 3
ENDMDL
MODEL 6
REMARK VINA RESULT:      -7.3      3.344      3.805
REMARK  Name = 
REMARK  8 active torsions:
REMARK  status: ('A' for Active; 'I' for Inactive)
REMARK    1  A    between atoms: C_1  and  N_2
REMARK    2  A    between atoms: C_3  and  C_5
REMARK    3  A    between atoms: N_7  and  C_8
REMARK    4  A    between atoms: C_11  and  C_12
REMARK    5  A    between atoms: C_11  and  C_13
REMARK    6  A    between atoms: N_19  and  C_20
REMARK    7  A    between atoms: C_24  and  N_25
REMARK    8  A    between atoms: N_28  and  C_29
REMARK                            x       y       z     vdW  Elec       q    Type
REMARK                         _______ _______ _______ _____ _____    ______ ____
ROOT
ATOM      1  C   UNL     1      -1.442  15.478  20.576  0.00  0.00    +0.000 A 
ATOM      2  C   UNL     1      -0.736  14.977  19.488  0.00  0.00    +0.000 A 
ATOM      3  N   UNL     1      -0.375  13.675  19.731  0.00  0.00    +0.000 N 
ATOM      4  C   UNL     1       0.371  12.866  18.788  0.00  0.00    +0.000 C 
ATOM      5  C   UNL     1      -0.856  13.293  20.951  0.00  0.00    +0.000 A 
ATOM      6  C   UNL     1      -1.523  14.390  21.515  0.00  0.00    +0.000 A 
ATOM      7  C   UNL     1      -2.159  14.265  22.902  0.00  0.00    +0.000 C 
ATOM      8  C   UNL     1      -3.435  15.102  23.086  0.00  0.00    +0.000 C 
ATOM      9  C   UNL     1      -1.129  14.654  23.987  0.00  0.00    +0.000 C 
ATOM     10  C   UNL     1      -2.595  12.773  23.127  0.00  0.00    +0.000 C 
ATOM     11  C   UNL     1      -1.570  11.762  22.704  0.00  0.00    +0.000 A 
ATOM     12  C   UNL     1      -1.425  10.535  23.309  0.00  0.00    +0.000 A 
ATOM     13  N   UNL     1      -0.531   9.617  22.901  0.00  0.00    +0.000 NA
ATOM     14  C   UNL     1       0.224   9.929  21.832  0.00  0.00    +0.000 A 
ATOM     15  N   UNL     1       1.159   8.958  21.453  0.00  0.00    +0.000 N 
ATOM     16  N   UNL     1       0.136  11.090  21.155  0.00  0.00    +0.000 NA
ATOM     17  C   UNL     1      -0.754  11.982  21.612  0.00  0.00    +0.000 A 
ATOM     18  H   UNL     1       0.969   8.137  22.017  0.00  0.00    +0.000 HD
ENDROOT
BRANCH  15  19
ATOM     19  C   UNL     1       1.527   8.630  20.135  0.00  0.00    +0.000 A 
ATOM     20  C   UNL     1       0.961   9.334  19.073  0.00  0.00    +0.000 A 
ATOM     21  C   UNL     1       1.321   9.034  17.762  0.00  0.00    +0.000 A 
ATOM     22  C   UNL     1       2.276   8.046  17.505  0.00  0.00    +0.000 A 
ATOM     23  C   UNL     1       2.899   7.342  18.545  0.00  0.00    +0.000 A 
ATOM     24  C   UNL     1       2.506   7.668  19.852  0.00  0.00    +0.000 A 
BRANCH  23  25
ATOM     25  N   UNL     1       3.814   6.336  18.319  0.00  0.00    +0.000 N 
ATOM     26  C   UNL     1       4.275   5.436  19.382  0.00  0.00    +0.000 C 
ATOM     27  C   UNL     1       5.800   5.213  19.234  0.00  0.00    +0.000 C 
ATOM     28  N   UNL     1       6.174   4.705  17.894  0.00  0.00    +0.000 NA
ATOM     29  C   UNL     1       7.617   4.523  17.795  0.00  0.00    +0.000 C 
ATOM     30  C   UNL     1       5.691   5.656  16.866  0.00  0.00    +0.000 C 
ATOM     31  C   UNL     1       4.167   5.901  16.958  0.00  0.00    +0.000 C 
ENDBRANCH  23  25
ENDBRANCH  15  19
BRANCH   1  34
ATOM     32  C   UNL     1      -3.551  18.445  19.669  0.00  0.00    +0.000 C 
ATOM     33  N   UNL     1      -2.879  17.172  19.692  0.00  0.00    +0.000 N 
ATOM     34  C   UNL     1      -1.946  16.855  20.660  0.00  0.00    +0.000 C 
ATOM     35  O   UNL     1      -1.582  17.658  21.511  0.00  0.00    +0.000 OA
ATOM     36  H   UNL     1      -3.161  16.458  19.036  0.00  0.00    +0.000 HD
ENDBRANCH   1  34
TORSDOF 3
ENDMDL
MODEL 7
REMARK VINA RESULT:      -7.3      3.547      4.727
REMARK  Name = 
REMARK  8 active torsions:
REMARK  status: ('A' for Active; 'I' for Inactive)
REMARK    1  A    between atoms: C_1  and  N_2
REMARK    2  A    between atoms: C_3  and  C_5
REMARK    3  A    between atoms: N_7  and  C_8
REMARK    4  A    between atoms: C_11  and  C_12
REMARK    5  A    between atoms: C_11  and  C_13
REMARK    6  A    between atoms: N_19  and  C_20
REMARK    7  A    between atoms: C_24  and  N_25
REMARK    8  A    between atoms: N_28  and  C_29
REMARK                            x       y       z     vdW  Elec       q    Type
REMARK                         _______ _______ _______ _____ _____    ______ ____
ROOT
ATOM      1  C   UNL     1      -2.033  13.991  23.400  0.00  0.00    +0.000 A 
ATOM      2  C   UNL     1      -1.850  12.624  23.575  0.00  0.00    +0.000 A 
ATOM      3  N   UNL     1      -1.088  12.124  22.549  0.00  0.00    +0.000 N 
ATOM      4  C   UNL     1      -0.715  10.728  22.440  0.00  0.00    +0.000 C 
ATOM      5  C   UNL     1      -0.737  13.143  21.709  0.00  0.00    +0.000 A 
ATOM      6  C   UNL     1      -1.310  14.323  22.200  0.00  0.00    +0.000 A 
ATOM      7  C   UNL     1      -1.101  15.642  21.450  0.00  0.00    +0.000 C 
ATOM      8  C   UNL     1      -1.038  16.879  22.359  0.00  0.00    +0.000 C 
ATOM      9  C   UNL     1      -2.220  15.832  20.401  0.00  0.00    +0.000 C 
ATOM     10  C   UNL     1       0.284  15.589  20.711  0.00  0.00    +0.000 C 
ATOM     11  C   UNL     1       0.552  14.297  19.997  0.00  0.00    +0.000 A 
ATOM     12  C   UNL     1       1.314  14.209  18.855  0.00  0.00    +0.000 A 
ATOM     13  N   UNL     1       1.583  13.043  18.241  0.00  0.00    +0.000 NA
ATOM     14  C   UNL     1       1.097  11.925  18.808  0.00  0.00    +0.000 A 
ATOM     15  N   UNL     1       1.377  10.734  18.126  0.00  0.00    +0.000 N 
ATOM     16  N   UNL     1       0.366  11.905  19.939  0.00  0.00    +0.000 NA
ATOM     17  C   UNL     1       0.106  13.093  20.504  0.00  0.00    +0.000 A 
ATOM     18  H   UNL     1       2.026  10.971  17.384  0.00  0.00    +0.000 HD
ENDROOT
BRANCH  15  19
ATOM     19  C   UNL     1       1.667   9.490  18.715  0.00  0.00    +0.000 A 
ATOM     20  C   UNL     1       1.019   9.124  19.894  0.00  0.00    +0.000 A 
ATOM     21  C   UNL     1       1.283   7.892  20.487  0.00  0.00    +0.000 A 
ATOM     22  C   UNL     1       2.177   7.001  19.884  0.00  0.00    +0.000 A 
ATOM     23  C   UNL     1       2.819   7.311  18.678  0.00  0.00    +0.000 A 
ATOM     24  C   UNL     1       2.533   8.565  18.114  0.00  0.00    +0.000 A 
BRANCH  23  25
ATOM     25  N   UNL     1       3.733   6.469  18.083  0.00  0.00    +0.000 N 
ATOM     26  C   UNL     1       3.791   5.032  18.378  0.00  0.00    +0.000 C 
ATOM     27  C   UNL     1       5.273   4.596  18.495  0.00  0.00    +0.000 C 
ATOM     28  N   UNL     1       6.061   4.933  17.288  0.00  0.00    +0.000 NA
ATOM     29  C   UNL     1       7.450   4.518  17.446  0.00  0.00    +0.000 C 
ATOM     30  C   UNL     1       5.973   6.392  17.046  0.00  0.00    +0.000 C 
ATOM     31  C   UNL     1       4.513   6.879  16.904  0.00  0.00    +0.000 C 
ENDBRANCH  23  25
ENDBRANCH  15  19
BRANCH   1  34
ATOM     32  C   UNL     1      -4.865  16.220  24.439  0.00  0.00    +0.000 C 
ATOM     33  N   UNL     1      -3.917  15.432  23.696  0.00  0.00    +0.000 N 
ATOM     34  C   UNL     1      -2.831  14.832  24.301  0.00  0.00    +0.000 C 
ATOM     35  O   UNL     1      -2.568  14.991  25.487  0.00  0.00    +0.000 OA
ATOM     36  H   UNL     1      -4.099  15.240  22.721  0.00  0.00    +0.000 HD
ENDBRANCH   1  34
TORSDOF 3
ENDMDL
MODEL 8
REMARK VINA RESULT:      -7.3      3.864      4.844
REMARK  Name = 
REMARK  8 active torsions:
REMARK  status: ('A' for Active; 'I' for Inactive)
REMARK    1  A    between atoms: C_1  and  N_2
REMARK    2  A    between atoms: C_3  and  C_5
REMARK    3  A    between atoms: N_7  and  C_8
REMARK    4  A    between atoms: C_11  and  C_12
REMARK    5  A    between atoms: C_11  and  C_13
REMARK    6  A    between atoms: N_19  and  C_20
REMARK    7  A    between atoms: C_24  and  N_25
REMARK    8  A    between atoms: N_28  and  C_29
REMARK                            x       y       z     vdW  Elec       q    Type
REMARK                         _______ _______ _______ _____ _____    ______ ____
ROOT
ATOM      1  C   UNL     1      -1.036  14.943  22.533  0.00  0.00    +0.000 A 
ATOM      2  C   UNL     1      -1.159  13.621  22.944  0.00  0.00    +0.000 A 
ATOM      3  N   UNL     1      -0.484  12.801  22.073  0.00  0.00    +0.000 N 
ATOM      4  C   UNL     1      -0.417  11.361  22.223  0.00  0.00    +0.000 C 
ATOM      5  C   UNL     1       0.111  13.562  21.107  0.00  0.00    +0.000 A 
ATOM      6  C   UNL     1      -0.213  14.903  21.353  0.00  0.00    +0.000 A 
ATOM      7  C   UNL     1       0.305  15.997  20.415  0.00  0.00    +0.000 C 
ATOM      8  C   UNL     1       0.598  17.335  21.111  0.00  0.00    +0.000 C 
ATOM      9  C   UNL     1      -0.705  16.225  19.268  0.00  0.00    +0.000 C 
ATOM     10  C   UNL     1       1.674  15.531  19.800  0.00  0.00    +0.000 C 
ATOM     11  C   UNL     1       1.684  14.107  19.330  0.00  0.00    +0.000 A 
ATOM     12  C   UNL     1       2.452  13.664  18.279  0.00  0.00    +0.000 A 
ATOM     13  N   UNL     1       2.487  12.378  17.886  0.00  0.00    +0.000 NA
ATOM     14  C   UNL     1       1.749  11.501  18.590  0.00  0.00    +0.000 A 
ATOM     15  N   UNL     1       1.792  10.177  18.136  0.00  0.00    +0.000 N 
ATOM     16  N   UNL     1       0.989  11.832  19.652  0.00  0.00    +0.000 NA
ATOM     17  C   UNL     1       0.969  13.128  19.992  0.00  0.00    +0.000 A 
ATOM     18  H   UNL     1       2.505  10.141  17.416  0.00  0.00    +0.000 HD
ENDROOT
BRANCH  15  19
ATOM     19  C   UNL     1       1.785   9.023  18.941  0.00  0.00    +0.000 A 
ATOM     20  C   UNL     1       1.193   9.075  20.202  0.00  0.00    +0.000 A 
ATOM     21  C   UNL     1       1.164   7.941  21.010  0.00  0.00    +0.000 A 
ATOM     22  C   UNL     1       1.699   6.735  20.546  0.00  0.00    +0.000 A 
ATOM     23  C   UNL     1       2.267   6.629  19.269  0.00  0.00    +0.000 A 
ATOM     24  C   UNL     1       2.284   7.794  18.487  0.00  0.00    +0.000 A 
BRANCH  23  25
ATOM     25  N   UNL     1       2.837   5.465  18.802  0.00  0.00    +0.000 N 
ATOM     26  C   UNL     1       2.297   4.726  17.654  0.00  0.00    +0.000 C 
ATOM     27  C   UNL     1       2.344   3.209  17.958  0.00  0.00    +0.000 C 
ATOM     28  N   UNL     1       3.703   2.741  18.311  0.00  0.00    +0.000 NA
ATOM     29  C   UNL     1       3.699   1.312  18.602  0.00  0.00    +0.000 C 
ATOM     30  C   UNL     1       4.192   3.514  19.477  0.00  0.00    +0.000 C 
ATOM     31  C   UNL     1       4.182   5.038  19.221  0.00  0.00    +0.000 C 
ENDBRANCH  23  25
ENDBRANCH  15  19
BRANCH   1  34
ATOM     32  C   UNL     1      -3.572  17.641  23.133  0.00  0.00    +0.000 C 
ATOM     33  N   UNL     1      -2.770  16.588  22.567  0.00  0.00    +0.000 N 
ATOM     34  C   UNL     1      -1.668  16.075  23.222  0.00  0.00    +0.000 C 
ATOM     35  O   UNL     1      -1.264  16.530  24.286  0.00  0.00    +0.000 OA
ATOM     36  H   UNL     1      -3.072  16.152  21.708  0.00  0.00    +0.000 HD
ENDBRANCH   1  34
TORSDOF 3
ENDMDL
MODEL 9
REMARK VINA RESULT:      -7.0      3.467      5.015
REMARK  Name = 
REMARK  8 active torsions:
REMARK  status: ('A' for Active; 'I' for Inactive)
REMARK    1  A    between atoms: C_1  and  N_2
REMARK    2  A    between atoms: C_3  and  C_5
REMARK    3  A    between atoms: N_7  and  C_8
REMARK    4  A    between atoms: C_11  and  C_12
REMARK    5  A    between atoms: C_11  and  C_13
REMARK    6  A    between atoms: N_19  and  C_20
REMARK    7  A    between atoms: C_24  and  N_25
REMARK    8  A    between atoms: N_28  and  C_29
REMARK                            x       y       z     vdW  Elec       q    Type
REMARK                         _______ _______ _______ _____ _____    ______ ____
ROOT
ATOM      1  C   UNL     1      -1.795  12.165  23.008  0.00  0.00    +0.000 A 
ATOM      2  C   UNL     1      -1.504  10.806  23.050  0.00  0.00    +0.000 A 
ATOM      3  N   UNL     1      -0.640  10.486  22.032  0.00  0.00    +0.000 N 
ATOM      4  C   UNL     1      -0.141   9.145  21.803  0.00  0.00    +0.000 C 
ATOM      5  C   UNL     1      -0.329  11.617  21.332  0.00  0.00    +0.000 A 
ATOM      6  C   UNL     1      -1.032  12.686  21.904  0.00  0.00    +0.000 A 
ATOM      7  C   UNL     1      -0.893  14.092  21.314  0.00  0.00    +0.000 C 
ATOM      8  C   UNL     1      -0.995  15.222  22.352  0.00  0.00    +0.000 C 
ATOM      9  C   UNL     1      -1.959  14.307  20.216  0.00  0.00    +0.000 C 
ATOM     10  C   UNL     1       0.533  14.234  20.672  0.00  0.00    +0.000 C 
ATOM     11  C   UNL     1       0.956  13.055  19.846  0.00  0.00    +0.000 A 
ATOM     12  C   UNL     1       1.790  13.156  18.757  0.00  0.00    +0.000 A 
ATOM     13  N   UNL     1       2.197  12.091  18.044  0.00  0.00    +0.000 NA
ATOM     14  C   UNL     1       1.777  10.881  18.454  0.00  0.00    +0.000 A 
ATOM     15  N   UNL     1       2.201   9.799  17.671  0.00  0.00    +0.000 N 
ATOM     16  N   UNL     1       0.983  10.677  19.523  0.00  0.00    +0.000 NA
ATOM     17  C   UNL     1       0.586  11.769  20.190  0.00  0.00    +0.000 A 
ATOM     18  H   UNL     1       2.871  10.170  17.005  0.00  0.00    +0.000 HD
ENDROOT
BRANCH  15  19
ATOM     19  C   UNL     1       2.563   8.525  18.144  0.00  0.00    +0.000 A 
ATOM     20  C   UNL     1       1.988   8.044  19.319  0.00  0.00    +0.000 A 
ATOM     21  C   UNL     1       2.322   6.780  19.798  0.00  0.00    +0.000 A 
ATOM     22  C   UNL     1       3.214   5.973  19.083  0.00  0.00    +0.000 A 
ATOM     23  C   UNL     1       3.783   6.401  17.877  0.00  0.00    +0.000 A 
ATOM     24  C   UNL     1       3.427   7.683  17.430  0.00  0.00    +0.000 A 
BRANCH  23  25
ATOM     25  N   UNL     1       4.695   5.643  17.174  0.00  0.00    +0.000 N 
ATOM     26  C   UNL     1       5.957   6.195  16.668  0.00  0.00    +0.000 C 
ATOM     27  C   UNL     1       6.216   5.649  15.242  0.00  0.00    +0.000 C 
ATOM     28  N   UNL     1       6.213   4.169  15.191  0.00  0.00    +0.000 NA
ATOM     29  C   UNL     1       6.447   3.699  13.830  0.00  0.00    +0.000 C 
ATOM     30  C   UNL     1       4.916   3.671  15.704  0.00  0.00    +0.000 C 
ATOM     31  C   UNL     1       4.615   4.174  17.134  0.00  0.00    +0.000 C 
ENDBRANCH  23  25
ENDBRANCH  15  19
BRANCH   1  34
ATOM     32  C   UNL     1      -4.890  12.610  25.080  0.00  0.00    +0.000 C 
ATOM     33  N   UNL     1      -3.902  12.155  24.137  0.00  0.00    +0.000 N 
ATOM     34  C   UNL     1      -2.716  12.834  23.936  0.00  0.00    +0.000 C 
ATOM     35  O   UNL     1      -2.464  13.897  24.491  0.00  0.00    +0.000 OA
ATOM     36  H   UNL     1      -4.040  11.268  23.674  0.00  0.00    +0.000 HD
ENDBRANCH   1  34
TORSDOF 3
ENDMDL
