MODEL 1
REMARK VINA RESULT:      -7.7      0.000      0.000
REMARK  Name = 
REMARK  9 active torsions:
REMARK  status: ('A' for Active; 'I' for Inactive)
REMARK    1  A    between atoms: S_2  and  N_4
REMARK    2  A    between atoms: S_2  and  C_22
REMARK    3  A    between atoms: N_4  and  C_5
REMARK    4  A    between atoms: C_5  and  C_6
REMARK    5  A    between atoms: C_6  and  C_7
REMARK    6  A    between atoms: C_7  and  C_8
REMARK    7  A    between atoms: C_8  and  C_9
REMARK    8  A    between atoms: C_9  and  N_10
REMARK    9  A    between atoms: C_13  and  C_14
REMARK                            x       y       z     vdW  Elec       q    Type
REMARK                         _______ _______ _______ _____ _____    ______ ____
ROOT
ATOM      1  C   UNL     1       1.206   4.254  20.077  0.00  0.00    +0.000 C 
ENDROOT
BRANCH   1   2
ATOM      2  C   UNL     1       1.926   3.787  18.815  0.00  0.00    +0.000 C 
BRANCH   2   3
ATOM      3  C   UNL     1       2.793   2.540  19.037  0.00  0.00    +0.000 C 
BRANCH   3   4
ATOM      4  C   UNL     1       4.078   2.848  19.798  0.00  0.00    +0.000 C 
BRANCH   4   5
ATOM      5  N   UNL     1       5.203   3.006  18.861  0.00  0.00    +0.000 NA
ATOM      6  H   UNL     1       6.010   2.402  19.029  0.00  0.00    +0.000 HD
BRANCH   5   8
ATOM      7  O   UNL     1       5.321   5.346  19.782  0.00  0.00    +0.000 OA
ATOM      8  S   UNL     1       5.784   4.569  18.657  0.00  0.00    +0.000 S 
ATOM      9  O   UNL     1       7.197   4.409  18.403  0.00  0.00    +0.000 OA
BRANCH   8  10
ATOM     10  C   UNL     1       4.921   5.129  17.158  0.00  0.00    +0.000 C 
ATOM     11  C   UNL     1       5.632   6.347  16.566  0.00  0.00    +0.000 C 
ATOM     12  C   UNL     1       6.948   5.983  15.888  0.00  0.00    +0.000 C 
ATOM     13  C   UNL     1       6.777   4.875  14.852  0.00  0.00    +0.000 C 
ATOM     14  C   UNL     1       6.017   3.658  15.378  0.00  0.00    +0.000 C 
ATOM     15  C   UNL     1       4.729   4.039  16.104  0.00  0.00    +0.000 C 
ENDBRANCH   8  10
ENDBRANCH   5   8
ENDBRANCH   4   5
ENDBRANCH   3   4
ENDBRANCH   2   3
ENDBRANCH   1   2
BRANCH   1  16
ATOM     16  C   UNL     1       2.030   5.264  20.882  0.00  0.00    +0.000 C 
BRANCH  16  17
ATOM     17  N   UNL     1       2.655   6.209  19.979  0.00  0.00    +0.000 N 
ATOM     18  C   UNL     1       2.062   7.421  19.852  0.00  0.00    +0.000 A 
ATOM     19  N   UNL     1       1.353   8.009  20.783  0.00  0.00    +0.000 NA
ATOM     20  C   UNL     1       0.905   9.250  20.340  0.00  0.00    +0.000 A 
ATOM     21  C   UNL     1       1.241   9.548  19.035  0.00  0.00    +0.000 A 
ATOM     22  S   UNL     1       2.191   8.289  18.372  0.00  0.00    +0.000 S 
ATOM     23  H   UNL     1       2.990   5.810  19.111  0.00  0.00    +0.000 HD
BRANCH  20  24
ATOM     24  C   UNL     1       0.162  10.157  21.210  0.00  0.00    +0.000 A 
ATOM     25  C   UNL     1      -0.127  11.452  20.786  0.00  0.00    +0.000 A 
ATOM     26  C   UNL     1      -0.874  12.282  21.616  0.00  0.00    +0.000 A 
ATOM     27  C   UNL     1      -1.311  11.799  22.842  0.00  0.00    +0.000 A 
ATOM     28  C   UNL     1      -0.979  10.500  23.192  0.00  0.00    +0.000 A 
ATOM     29  N   UNL     1      -0.254   9.670  22.409  0.00  0.00    +0.000 NA
ENDBRANCH  20  24
ENDBRANCH  16  17
ENDBRANCH   1  16
TORSDOF 9
ENDMDL
MODEL 2
REMARK VINA RESULT:      -7.4      1.678      2.326
REMARK  Name = 
REMARK  9 active torsions:
REMARK  status: ('A' for Active; 'I' for Inactive)
REMARK    1  A    between atoms: S_2  and  N_4
REMARK    2  A    between atoms: S_2  and  C_22
REMARK    3  A    between atoms: N_4  and  C_5
REMARK    4  A    between atoms: C_5  and  C_6
REMARK    5  A    between atoms: C_6  and  C_7
REMARK    6  A    between atoms: C_7  and  C_8
REMARK    7  A    between atoms: C_8  and  C_9
REMARK    8  A    between atoms: C_9  and  N_10
REMARK    9  A    between atoms: C_13  and  C_14
REMARK                            x       y       z     vdW  Elec       q    Type
REMARK                         _______ _______ _______ _____ _____    ______ ____
ROOT
ATOM      1  C   UNL     1       2.486   3.366  20.121  0.00  0.00    +0.000 C 
ENDROOT
BRANCH   1   2
ATOM      2  C   UNL     1       3.877   3.344  19.491  0.00  0.00    +0.000 C 
BRANCH   2   3
ATOM      3  C   UNL     1       3.890   2.763  18.071  0.00  0.00    +0.000 C 
BRANCH   3   4
ATOM      4  C   UNL     1       4.213   3.812  17.012  0.00  0.00    +0.000 C 
BRANCH   4   5
ATOM      5  N   UNL     1       5.489   3.495  16.348  0.00  0.00    +0.000 NA
ATOM      6  H   UNL     1       5.962   2.650  16.673  0.00  0.00    +0.000 HD
BRANCH   5   8
ATOM      7  O   UNL     1       7.860   4.182  16.842  0.00  0.00    +0.000 OA
ATOM      8  S   UNL     1       6.632   4.726  16.314  0.00  0.00    +0.000 S 
ATOM      9  O   UNL     1       6.574   5.247  14.968  0.00  0.00    +0.000 OA
BRANCH   8  10
ATOM     10  C   UNL     1       5.963   5.932  17.498  0.00  0.00    +0.000 C 
ATOM     11  C   UNL     1       6.423   5.589  18.916  0.00  0.00    +0.000 C 
ATOM     12  C   UNL     1       7.896   5.912  19.146  0.00  0.00    +0.000 C 
ATOM     13  C   UNL     1       8.234   7.354  18.781  0.00  0.00    +0.000 C 
ATOM     14  C   UNL     1       7.740   7.766  17.395  0.00  0.00    +0.000 C 
ATOM     15  C   UNL     1       6.280   7.388  17.155  0.00  0.00    +0.000 C 
ENDBRANCH   8  10
ENDBRANCH   5   8
ENDBRANCH   4   5
ENDBRANCH   3   4
ENDBRANCH   2   3
ENDBRANCH   1   2
BRANCH   1  16
ATOM     16  C   UNL     1       2.036   4.781  20.497  0.00  0.00    +0.000 C 
BRANCH  16  17
ATOM     17  N   UNL     1       2.741   5.748  19.681  0.00  0.00    +0.000 N 
ATOM     18  C   UNL     1       2.216   6.995  19.616  0.00  0.00    +0.000 A 
ATOM     19  N   UNL     1       1.505   7.559  20.560  0.00  0.00    +0.000 NA
ATOM     20  C   UNL     1       1.137   8.848  20.186  0.00  0.00    +0.000 A 
ATOM     21  C   UNL     1       1.536   9.212  18.916  0.00  0.00    +0.000 A 
ATOM     22  S   UNL     1       2.444   7.950  18.202  0.00  0.00    +0.000 S 
ATOM     23  H   UNL     1       3.087   5.389  18.800  0.00  0.00    +0.000 HD
BRANCH  20  24
ATOM     24  C   UNL     1       0.411   9.736  21.090  0.00  0.00    +0.000 A 
ATOM     25  C   UNL     1       0.008  10.996  20.657  0.00  0.00    +0.000 A 
ATOM     26  C   UNL     1      -0.721  11.805  21.524  0.00  0.00    +0.000 A 
ATOM     27  C   UNL     1      -1.027  11.335  22.793  0.00  0.00    +0.000 A 
ATOM     28  C   UNL     1      -0.587  10.070  23.149  0.00  0.00    +0.000 A 
ATOM     29  N   UNL     1       0.124   9.261  22.331  0.00  0.00    +0.000 NA
ENDBRANCH  20  24
ENDBRANCH  16  17
ENDBRANCH   1  16
TORSDOF 9
ENDMDL
MODEL 3
REMARK VINA RESULT:      -7.1      6.165      7.653
REMARK  Name = 
REMARK  9 active torsions:
REMARK  status: ('A' for Active; 'I' for Inactive)
REMARK    1  A    between atoms: S_2  and  N_4
REMARK    2  A    between atoms: S_2  and  C_22
REMARK    3  A    between atoms: N_4  and  C_5
REMARK    4  A    between atoms: C_5  and  C_6
REMARK    5  A    between atoms: C_6  and  C_7
REMARK    6  A    between atoms: C_7  and  C_8
REMARK    7  A    between atoms: C_8  and  C_9
REMARK    8  A    between atoms: C_9  and  N_10
REMARK    9  A    between atoms: C_13  and  C_14
REMARK                            x       y       z     vdW  Elec       q    Type
REMARK                         _______ _______ _______ _____ _____    ______ ____
ROOT
ATOM      1  C   UNL     1       8.377   8.273  18.173  0.00  0.00    +0.000 C 
ENDROOT
BRANCH   1   2
ATOM      2  C   UNL     1       7.168   7.544  17.593  0.00  0.00    +0.000 C 
BRANCH   2   3
ATOM      3  C   UNL     1       7.359   6.024  17.506  0.00  0.00    +0.000 C 
BRANCH   3   4
ATOM      4  C   UNL     1       6.903   5.304  18.770  0.00  0.00    +0.000 C 
BRANCH   4   5
ATOM      5  N   UNL     1       6.260   4.024  18.428  0.00  0.00    +0.000 NA
ATOM      6  H   UNL     1       6.159   3.829  17.430  0.00  0.00    +0.000 HD
BRANCH   5   8
ATOM      7  O   UNL     1       4.960   2.658  20.095  0.00  0.00    +0.000 OA
ATOM      8  S   UNL     1       4.770   3.729  19.147  0.00  0.00    +0.000 S 
ATOM      9  O   UNL     1       4.306   5.026  19.582  0.00  0.00    +0.000 OA
BRANCH   8  10
ATOM     10  C   UNL     1       3.765   3.120  17.760  0.00  0.00    +0.000 C 
ATOM     11  C   UNL     1       3.188   1.743  18.092  0.00  0.00    +0.000 C 
ATOM     12  C   UNL     1       2.057   1.815  19.113  0.00  0.00    +0.000 C 
ATOM     13  C   UNL     1       0.964   2.795  18.696  0.00  0.00    +0.000 C 
ATOM     14  C   UNL     1       1.497   4.169  18.293  0.00  0.00    +0.000 C 
ATOM     15  C   UNL     1       2.666   4.083  17.314  0.00  0.00    +0.000 C 
ENDBRANCH   8  10
ENDBRANCH   5   8
ENDBRANCH   4   5
ENDBRANCH   3   4
ENDBRANCH   2   3
ENDBRANCH   1   2
BRANCH   1  16
ATOM     16  C   UNL     1       8.305   9.789  17.961  0.00  0.00    +0.000 C 
BRANCH  16  17
ATOM     17  N   UNL     1       9.604  10.377  18.218  0.00  0.00    +0.000 N 
ATOM     18  C   UNL     1       9.701  11.724  18.103  0.00  0.00    +0.000 A 
ATOM     19  N   UNL     1       8.718  12.566  18.307  0.00  0.00    +0.000 NA
ATOM     20  C   UNL     1       9.156  13.874  18.127  0.00  0.00    +0.000 A 
ATOM     21  C   UNL     1      10.471  13.988  17.722  0.00  0.00    +0.000 A 
ATOM     22  S   UNL     1      11.193  12.440  17.632  0.00  0.00    +0.000 S 
ATOM     23  H   UNL     1      10.387   9.862  17.835  0.00  0.00    +0.000 HD
BRANCH  20  24
ATOM     24  C   UNL     1       8.286  15.020  18.376  0.00  0.00    +0.000 A 
ATOM     25  C   UNL     1       8.834  16.287  18.560  0.00  0.00    +0.000 A 
ATOM     26  C   UNL     1       7.980  17.369  18.751  0.00  0.00    +0.000 A 
ATOM     27  C   UNL     1       6.608  17.158  18.753  0.00  0.00    +0.000 A 
ATOM     28  C   UNL     1       6.142  15.866  18.566  0.00  0.00    +0.000 A 
ATOM     29  N   UNL     1       6.945  14.794  18.378  0.00  0.00    +0.000 NA
ENDBRANCH  20  24
ENDBRANCH  16  17
ENDBRANCH   1  16
TORSDOF 9
ENDMDL
MODEL 4
REMARK VINA RESULT:      -7.0      3.020      4.641
REMARK  Name = 
REMARK  9 active torsions:
REMARK  status: ('A' for Active; 'I' for Inactive)
REMARK    1  A    between atoms: S_2  and  N_4
REMARK    2  A    between atoms: S_2  and  C_22
REMARK    3  A    between atoms: N_4  and  C_5
REMARK    4  A    between atoms: C_5  and  C_6
REMARK    5  A    between atoms: C_6  and  C_7
REMARK    6  A    between atoms: C_7  and  C_8
REMARK    7  A    between atoms: C_8  and  C_9
REMARK    8  A    between atoms: C_9  and  N_10
REMARK    9  A    between atoms: C_13  and  C_14
REMARK                            x       y       z     vdW  Elec       q    Type
REMARK                         _______ _______ _______ _____ _____    ______ ____
ROOT
ATOM      1  C   UNL     1       3.429   6.957  18.182  0.00  0.00    +0.000 C 
ENDROOT
BRANCH   1   2
ATOM      2  C   UNL     1       4.451   6.763  17.065  0.00  0.00    +0.000 C 
BRANCH   2   3
ATOM      3  C   UNL     1       5.682   5.958  17.503  0.00  0.00    +0.000 C 
BRANCH   3   4
ATOM      4  C   UNL     1       5.489   5.281  18.856  0.00  0.00    +0.000 C 
BRANCH   4   5
ATOM      5  N   UNL     1       5.456   3.818  18.698  0.00  0.00    +0.000 NA
ATOM      6  H   UNL     1       5.352   3.475  17.741  0.00  0.00    +0.000 HD
BRANCH   5   8
ATOM      7  O   UNL     1       5.068   1.993  20.388  0.00  0.00    +0.000 OA
ATOM      8  S   UNL     1       4.340   2.995  19.647  0.00  0.00    +0.000 S 
ATOM      9  O   UNL     1       3.604   4.031  20.334  0.00  0.00    +0.000 OA
BRANCH   8  10
ATOM     10  C   UNL     1       3.289   2.172  18.413  0.00  0.00    +0.000 C 
ATOM     11  C   UNL     1       2.064   1.557  19.092  0.00  0.00    +0.000 C 
ATOM     12  C   UNL     1       1.045   2.608  19.521  0.00  0.00    +0.000 C 
ATOM     13  C   UNL     1       0.646   3.528  18.371  0.00  0.00    +0.000 C 
ATOM     14  C   UNL     1       1.838   4.120  17.620  0.00  0.00    +0.000 C 
ATOM     15  C   UNL     1       2.878   3.067  17.245  0.00  0.00    +0.000 C 
ENDBRANCH   8  10
ENDBRANCH   5   8
ENDBRANCH   4   5
ENDBRANCH   3   4
ENDBRANCH   2   3
ENDBRANCH   1   2
BRANCH   1  16
ATOM     16  C   UNL     1       2.606   8.238  18.007  0.00  0.00    +0.000 C 
BRANCH  16  17
ATOM     17  N   UNL     1       2.047   8.633  19.284  0.00  0.00    +0.000 N 
ATOM     18  C   UNL     1       0.965   9.449  19.253  0.00  0.00    +0.000 A 
ATOM     19  N   UNL     1       0.085   9.491  18.284  0.00  0.00    +0.000 NA
ATOM     20  C   UNL     1      -0.910  10.419  18.572  0.00  0.00    +0.000 A 
ATOM     21  C   UNL     1      -0.720  11.117  19.748  0.00  0.00    +0.000 A 
ATOM     22  S   UNL     1       0.688  10.555  20.542  0.00  0.00    +0.000 S 
ATOM     23  H   UNL     1       2.730   8.863  19.995  0.00  0.00    +0.000 HD
BRANCH  20  24
ATOM     24  C   UNL     1      -2.066  10.607  17.700  0.00  0.00    +0.000 A 
ATOM     25  C   UNL     1      -3.157  11.355  18.137  0.00  0.00    +0.000 A 
ATOM     26  C   UNL     1      -4.227  11.555  17.269  0.00  0.00    +0.000 A 
ATOM     27  C   UNL     1      -4.178  11.007  15.995  0.00  0.00    +0.000 A 
ATOM     28  C   UNL     1      -3.058  10.274  15.638  0.00  0.00    +0.000 A 
ATOM     29  N   UNL     1      -2.003  10.060  16.457  0.00  0.00    +0.000 NA
ENDBRANCH  20  24
ENDBRANCH  16  17
ENDBRANCH   1  16
TORSDOF 9
ENDMDL
MODEL 5
REMARK VINA RESULT:      -7.0      0.800      1.193
REMARK  Name = 
REMARK  9 active torsions:
REMARK  status: ('A' for Active; 'I' for Inactive)
REMARK    1  A    between atoms: S_2  and  N_4
REMARK    2  A    between atoms: S_2  and  C_22
REMARK    3  A    between atoms: N_4  and  C_5
REMARK    4  A    between atoms: C_5  and  C_6
REMARK    5  A    between atoms: C_6  and  C_7
REMARK    6  A    between atoms: C_7  and  C_8
REMARK    7  A    between atoms: C_8  and  C_9
REMARK    8  A    between atoms: C_9  and  N_10
REMARK    9  A    between atoms: C_13  and  C_14
REMARK                            x       y       z     vdW  Elec       q    Type
REMARK                         _______ _______ _______ _____ _____    ______ ____
ROOT
ATOM      1  C   UNL     1       1.399   3.860  20.261  0.00  0.00    +0.000 C 
ENDROOT
BRANCH   1   2
ATOM      2  C   UNL     1       2.443   2.761  20.447  0.00  0.00    +0.000 C 
BRANCH   2   3
ATOM      3  C   UNL     1       3.242   2.461  19.173  0.00  0.00    +0.000 C 
BRANCH   3   4
ATOM      4  C   UNL     1       4.743   2.648  19.366  0.00  0.00    +0.000 C 
BRANCH   4   5
ATOM      5  N   UNL     1       5.304   3.467  18.278  0.00  0.00    +0.000 NA
ATOM      6  H   UNL     1       5.952   2.988  17.649  0.00  0.00    +0.000 HD
BRANCH   5   8
ATOM      7  O   UNL     1       5.298   5.412  19.875  0.00  0.00    +0.000 OA
ATOM      8  S   UNL     1       6.028   4.912  18.735  0.00  0.00    +0.000 S 
ATOM      9  O   UNL     1       7.436   4.603  18.838  0.00  0.00    +0.000 OA
BRANCH   8  10
ATOM     10  C   UNL     1       5.712   5.993  17.309  0.00  0.00    +0.000 C 
ATOM     11  C   UNL     1       7.003   6.217  16.521  0.00  0.00    +0.000 C 
ATOM     12  C   UNL     1       7.422   4.987  15.723  0.00  0.00    +0.000 C 
ATOM     13  C   UNL     1       6.300   4.473  14.825  0.00  0.00    +0.000 C 
ATOM     14  C   UNL     1       4.969   4.291  15.552  0.00  0.00    +0.000 C 
ATOM     15  C   UNL     1       4.588   5.507  16.394  0.00  0.00    +0.000 C 
ENDBRANCH   8  10
ENDBRANCH   5   8
ENDBRANCH   4   5
ENDBRANCH   3   4
ENDBRANCH   2   3
ENDBRANCH   1   2
BRANCH   1  16
ATOM     16  C   UNL     1       1.766   5.148  21.006  0.00  0.00    +0.000 C 
BRANCH  16  17
ATOM     17  N   UNL     1       2.515   6.020  20.126  0.00  0.00    +0.000 N 
ATOM     18  C   UNL     1       2.025   7.271  19.940  0.00  0.00    +0.000 A 
ATOM     19  N   UNL     1       1.309   7.933  20.814  0.00  0.00    +0.000 NA
ATOM     20  C   UNL     1       0.985   9.193  20.322  0.00  0.00    +0.000 A 
ATOM     21  C   UNL     1       1.421   9.434  19.034  0.00  0.00    +0.000 A 
ATOM     22  S   UNL     1       2.309   8.092  18.455  0.00  0.00    +0.000 S 
ATOM     23  H   UNL     1       2.870   5.577  19.288  0.00  0.00    +0.000 HD
BRANCH  20  24
ATOM     24  C   UNL     1       0.264  10.174  21.128  0.00  0.00    +0.000 A 
ATOM     25  C   UNL     1      -0.347   9.787  22.318  0.00  0.00    +0.000 A 
ATOM     26  C   UNL     1      -0.991  10.751  23.089  0.00  0.00    +0.000 A 
ATOM     27  C   UNL     1      -1.004  12.069  22.653  0.00  0.00    +0.000 A 
ATOM     28  C   UNL     1      -0.375  12.372  21.456  0.00  0.00    +0.000 A 
ATOM     29  N   UNL     1       0.256  11.459  20.684  0.00  0.00    +0.000 NA
ENDBRANCH  20  24
ENDBRANCH  16  17
ENDBRANCH   1  16
TORSDOF 9
ENDMDL
MODEL 6
REMARK VINA RESULT:      -7.0      1.338      1.666
REMARK  Name = 
REMARK  9 active torsions:
REMARK  status: ('A' for Active; 'I' for Inactive)
REMARK    1  A    between atoms: S_2  and  N_4
REMARK    2  A    between atoms: S_2  and  C_22
REMARK    3  A    between atoms: N_4  and  C_5
REMARK    4  A    between atoms: C_5  and  C_6
REMARK    5  A    between atoms: C_6  and  C_7
REMARK    6  A    between atoms: C_7  and  C_8
REMARK    7  A    between atoms: C_8  and  C_9
REMARK    8  A    between atoms: C_9  and  N_10
REMARK    9  A    between atoms: C_13  and  C_14
REMARK                            x       y       z     vdW  Elec       q    Type
REMARK                         _______ _______ _______ _____ _____    ______ ____
ROOT
ATOM      1  C   UNL     1       1.089   4.650  20.300  0.00  0.00    +0.000 C 
ENDROOT
BRANCH   1   2
ATOM      2  C   UNL     1       1.193   3.248  20.894  0.00  0.00    +0.000 C 
BRANCH   2   3
ATOM      3  C   UNL     1       2.632   2.720  20.957  0.00  0.00    +0.000 C 
BRANCH   3   4
ATOM      4  C   UNL     1       3.155   2.282  19.593  0.00  0.00    +0.000 C 
BRANCH   4   5
ATOM      5  N   UNL     1       4.253   3.161  19.158  0.00  0.00    +0.000 NA
ATOM      6  H   UNL     1       4.539   3.880  19.825  0.00  0.00    +0.000 HD
BRANCH   5   8
ATOM      7  O   UNL     1       4.618   3.038  16.670  0.00  0.00    +0.000 OA
ATOM      8  S   UNL     1       4.053   3.913  17.669  0.00  0.00    +0.000 S 
ATOM      9  O   UNL     1       2.655   4.278  17.624  0.00  0.00    +0.000 OA
BRANCH   8  10
ATOM     10  C   UNL     1       5.098   5.393  17.819  0.00  0.00    +0.000 C 
ATOM     11  C   UNL     1       6.564   4.988  17.980  0.00  0.00    +0.000 C 
ATOM     12  C   UNL     1       7.173   4.471  16.681  0.00  0.00    +0.000 C 
ATOM     13  C   UNL     1       6.986   5.451  15.526  0.00  0.00    +0.000 C 
ATOM     14  C   UNL     1       5.546   5.935  15.362  0.00  0.00    +0.000 C 
ATOM     15  C   UNL     1       4.927   6.397  16.680  0.00  0.00    +0.000 C 
ENDBRANCH   8  10
ENDBRANCH   5   8
ENDBRANCH   4   5
ENDBRANCH   3   4
ENDBRANCH   2   3
ENDBRANCH   1   2
BRANCH   1  16
ATOM     16  C   UNL     1       2.036   5.646  20.978  0.00  0.00    +0.000 C 
BRANCH  16  17
ATOM     17  N   UNL     1       2.560   6.566  19.990  0.00  0.00    +0.000 N 
ATOM     18  C   UNL     1       1.892   7.734  19.824  0.00  0.00    +0.000 A 
ATOM     19  N   UNL     1       1.197   8.338  20.754  0.00  0.00    +0.000 NA
ATOM     20  C   UNL     1       0.657   9.523  20.264  0.00  0.00    +0.000 A 
ATOM     21  C   UNL     1       0.911   9.758  18.927  0.00  0.00    +0.000 A 
ATOM     22  S   UNL     1       1.899   8.515  18.291  0.00  0.00    +0.000 S 
ATOM     23  H   UNL     1       2.876   6.134  19.131  0.00  0.00    +0.000 HD
BRANCH  20  24
ATOM     24  C   UNL     1      -0.094  10.440  21.117  0.00  0.00    +0.000 A 
ATOM     25  C   UNL     1      -0.503  11.676  20.624  0.00  0.00    +0.000 A 
ATOM     26  C   UNL     1      -1.255  12.513  21.443  0.00  0.00    +0.000 A 
ATOM     27  C   UNL     1      -1.577  12.094  22.727  0.00  0.00    +0.000 A 
ATOM     28  C   UNL     1      -1.129  10.851  23.143  0.00  0.00    +0.000 A 
ATOM     29  N   UNL     1      -0.396  10.016  22.372  0.00  0.00    +0.000 NA
ENDBRANCH  20  24
ENDBRANCH  16  17
ENDBRANCH   1  16
TORSDOF 9
ENDMDL
MODEL 7
REMARK VINA RESULT:      -6.9      1.305      1.617
REMARK  Name = 
REMARK  9 active torsions:
REMARK  status: ('A' for Active; 'I' for Inactive)
REMARK    1  A    between atoms: S_2  and  N_4
REMARK    2  A    between atoms: S_2  and  C_22
REMARK    3  A    between atoms: N_4  and  C_5
REMARK    4  A    between atoms: C_5  and  C_6
REMARK    5  A    between atoms: C_6  and  C_7
REMARK    6  A    between atoms: C_7  and  C_8
REMARK    7  A    between atoms: C_8  and  C_9
REMARK    8  A    between atoms: C_9  and  N_10
REMARK    9  A    between atoms: C_13  and  C_14
REMARK                            x       y       z     vdW  Elec       q    Type
REMARK                         _______ _______ _______ _____ _____    ______ ____
ROOT
ATOM      1  C   UNL     1       1.112   4.435  20.363  0.00  0.00    +0.000 C 
ENDROOT
BRANCH   1   2
ATOM      2  C   UNL     1       1.335   2.947  20.622  0.00  0.00    +0.000 C 
BRANCH   2   3
ATOM      3  C   UNL     1       1.801   2.178  19.380  0.00  0.00    +0.000 C 
BRANCH   3   4
ATOM      4  C   UNL     1       1.636   2.984  18.096  0.00  0.00    +0.000 C 
BRANCH   4   5
ATOM      5  N   UNL     1       2.713   3.980  17.973  0.00  0.00    +0.000 NA
ATOM      6  H   UNL     1       2.557   4.723  17.289  0.00  0.00    +0.000 HD
BRANCH   5   8
ATOM      7  O   UNL     1       5.040   3.670  18.883  0.00  0.00    +0.000 OA
ATOM      8  S   UNL     1       4.257   3.373  17.708  0.00  0.00    +0.000 S 
ATOM      9  O   UNL     1       4.049   2.007  17.285  0.00  0.00    +0.000 OA
BRANCH   8  10
ATOM     10  C   UNL     1       4.859   4.388  16.325  0.00  0.00    +0.000 C 
ATOM     11  C   UNL     1       4.656   5.872  16.634  0.00  0.00    +0.000 C 
ATOM     12  C   UNL     1       5.641   6.391  17.677  0.00  0.00    +0.000 C 
ATOM     13  C   UNL     1       7.089   6.089  17.303  0.00  0.00    +0.000 C 
ATOM     14  C   UNL     1       7.331   4.629  16.925  0.00  0.00    +0.000 C 
ATOM     15  C   UNL     1       6.306   4.103  15.923  0.00  0.00    +0.000 C 
ENDBRANCH   8  10
ENDBRANCH   5   8
ENDBRANCH   4   5
ENDBRANCH   3   4
ENDBRANCH   2   3
ENDBRANCH   1   2
BRANCH   1  16
ATOM     16  C   UNL     1       2.143   5.315  21.077  0.00  0.00    +0.000 C 
BRANCH  16  17
ATOM     17  N   UNL     1       2.734   6.236  20.127  0.00  0.00    +0.000 N 
ATOM     18  C   UNL     1       2.104   7.423  19.950  0.00  0.00    +0.000 A 
ATOM     19  N   UNL     1       1.382   8.031  20.858  0.00  0.00    +0.000 NA
ATOM     20  C   UNL     1       0.895   9.236  20.362  0.00  0.00    +0.000 A 
ATOM     21  C   UNL     1       1.215   9.484  19.042  0.00  0.00    +0.000 A 
ATOM     22  S   UNL     1       2.199   8.226  18.431  0.00  0.00    +0.000 S 
ATOM     23  H   UNL     1       3.077   5.808  19.276  0.00  0.00    +0.000 HD
BRANCH  20  24
ATOM     24  C   UNL     1       0.130  10.160  21.195  0.00  0.00    +0.000 A 
ATOM     25  C   UNL     1      -0.171  11.437  20.728  0.00  0.00    +0.000 A 
ATOM     26  C   UNL     1      -0.938  12.282  21.524  0.00  0.00    +0.000 A 
ATOM     27  C   UNL     1      -1.384  11.830  22.758  0.00  0.00    +0.000 A 
ATOM     28  C   UNL     1      -1.040  10.547  23.151  0.00  0.00    +0.000 A 
ATOM     29  N   UNL     1      -0.295   9.703  22.403  0.00  0.00    +0.000 NA
ENDBRANCH  20  24
ENDBRANCH  16  17
ENDBRANCH   1  16
TORSDOF 9
ENDMDL
MODEL 8
REMARK VINA RESULT:      -6.9      6.569      8.494
REMARK  Name = 
REMARK  9 active torsions:
REMARK  status: ('A' for Active; 'I' for Inactive)
REMARK    1  A    between atoms: S_2  and  N_4
REMARK    2  A    between atoms: S_2  and  C_22
REMARK    3  A    between atoms: N_4  and  C_5
REMARK    4  A    between atoms: C_5  and  C_6
REMARK    5  A    between atoms: C_6  and  C_7
REMARK    6  A    between atoms: C_7  and  C_8
REMARK    7  A    between atoms: C_8  and  C_9
REMARK    8  A    between atoms: C_9  and  N_10
REMARK    9  A    between atoms: C_13  and  C_14
REMARK                            x       y       z     vdW  Elec       q    Type
REMARK                         _______ _______ _______ _____ _____    ______ ____
ROOT
ATOM      1  C   UNL     1       7.657   8.374  17.646  0.00  0.00    +0.000 C 
ENDROOT
BRANCH   1   2
ATOM      2  C   UNL     1       8.134   7.195  18.491  0.00  0.00    +0.000 C 
BRANCH   2   3
ATOM      3  C   UNL     1       7.486   5.863  18.094  0.00  0.00    +0.000 C 
BRANCH   3   4
ATOM      4  C   UNL     1       6.435   5.401  19.098  0.00  0.00    +0.000 C 
BRANCH   4   5
ATOM      5  N   UNL     1       5.081   5.616  18.559  0.00  0.00    +0.000 NA
ATOM      6  H   UNL     1       4.519   6.323  19.037  0.00  0.00    +0.000 HD
BRANCH   5   8
ATOM      7  O   UNL     1       4.282   3.775  17.040  0.00  0.00    +0.000 OA
ATOM      8  S   UNL     1       4.124   4.245  18.395  0.00  0.00    +0.000 S 
ATOM      9  O   UNL     1       4.484   3.406  19.515  0.00  0.00    +0.000 OA
BRANCH   8  10
ATOM     10  C   UNL     1       2.441   4.901  18.600  0.00  0.00    +0.000 C 
ATOM     11  C   UNL     1       1.417   3.902  18.058  0.00  0.00    +0.000 C 
ATOM     12  C   UNL     1       1.247   2.689  18.967  0.00  0.00    +0.000 C 
ATOM     13  C   UNL     1       0.935   3.085  20.406  0.00  0.00    +0.000 C 
ATOM     14  C   UNL     1       1.894   4.130  20.975  0.00  0.00    +0.000 C 
ATOM     15  C   UNL     1       2.101   5.313  20.032  0.00  0.00    +0.000 C 
ENDBRANCH   8  10
ENDBRANCH   5   8
ENDBRANCH   4   5
ENDBRANCH   3   4
ENDBRANCH   2   3
ENDBRANCH   1   2
BRANCH   1  16
ATOM     16  C   UNL     1       8.609   9.572  17.719  0.00  0.00    +0.000 C 
BRANCH  16  17
ATOM     17  N   UNL     1       8.743  10.000  19.097  0.00  0.00    +0.000 N 
ATOM     18  C   UNL     1       9.359  11.188  19.312  0.00  0.00    +0.000 A 
ATOM     19  N   UNL     1       9.367  12.192  18.471  0.00  0.00    +0.000 NA
ATOM     20  C   UNL     1      10.068  13.268  19.005  0.00  0.00    +0.000 A 
ATOM     21  C   UNL     1      10.638  13.024  20.239  0.00  0.00    +0.000 A 
ATOM     22  S   UNL     1      10.234  11.449  20.771  0.00  0.00    +0.000 S 
ATOM     23  H   UNL     1       8.998   9.268  19.748  0.00  0.00    +0.000 HD
BRANCH  20  24
ATOM     24  C   UNL     1      10.160  14.550  18.312  0.00  0.00    +0.000 A 
ATOM     25  C   UNL     1      11.256  14.828  17.500  0.00  0.00    +0.000 A 
ATOM     26  C   UNL     1      11.298  16.040  16.817  0.00  0.00    +0.000 A 
ATOM     27  C   UNL     1      10.247  16.936  16.961  0.00  0.00    +0.000 A 
ATOM     28  C   UNL     1       9.194  16.584  17.790  0.00  0.00    +0.000 A 
ATOM     29  N   UNL     1       9.125  15.417  18.468  0.00  0.00    +0.000 NA
ENDBRANCH  20  24
ENDBRANCH  16  17
ENDBRANCH   1  16
TORSDOF 9
ENDMDL
MODEL 9
REMARK VINA RESULT:      -6.8      3.168      4.357
REMARK  Name = 
REMARK  9 active torsions:
REMARK  status: ('A' for Active; 'I' for Inactive)
REMARK    1  A    between atoms: S_2  and  N_4
REMARK    2  A    between atoms: S_2  and  C_22
REMARK    3  A    between atoms: N_4  and  C_5
REMARK    4  A    between atoms: C_5  and  C_6
REMARK    5  A    between atoms: C_6  and  C_7
REMARK    6  A    between atoms: C_7  and  C_8
REMARK    7  A    between atoms: C_8  and  C_9
REMARK    8  A    between atoms: C_9  and  N_10
REMARK    9  A    between atoms: C_13  and  C_14
REMARK                            x       y       z     vdW  Elec       q    Type
REMARK                         _______ _______ _______ _____ _____    ______ ____
ROOT
ATOM      1  C   UNL     1       1.476   8.375  21.498  0.00  0.00    +0.000 C 
ENDROOT
BRANCH   1   2
ATOM      2  C   UNL     1       1.809   7.365  20.403  0.00  0.00    +0.000 C 
BRANCH   2   3
ATOM      3  C   UNL     1       1.424   5.926  20.767  0.00  0.00    +0.000 C 
BRANCH   3   4
ATOM      4  C   UNL     1       2.525   4.923  20.438  0.00  0.00    +0.000 C 
BRANCH   4   5
ATOM      5  N   UNL     1       3.682   5.610  19.841  0.00  0.00    +0.000 NA
ATOM      6  H   UNL     1       3.501   6.541  19.460  0.00  0.00    +0.000 HD
BRANCH   5   8
ATOM      7  O   UNL     1       5.455   3.886  19.368  0.00  0.00    +0.000 OA
ATOM      8  S   UNL     1       4.532   4.751  18.673  0.00  0.00    +0.000 S 
ATOM      9  O   UNL     1       3.515   4.200  17.807  0.00  0.00    +0.000 OA
BRANCH   8  10
ATOM     10  C   UNL     1       5.470   6.051  17.816  0.00  0.00    +0.000 C 
ATOM     11  C   UNL     1       6.971   5.784  17.937  0.00  0.00    +0.000 C 
ATOM     12  C   UNL     1       7.430   4.625  17.058  0.00  0.00    +0.000 C 
ATOM     13  C   UNL     1       7.008   4.802  15.603  0.00  0.00    +0.000 C 
ATOM     14  C   UNL     1       5.526   5.132  15.432  0.00  0.00    +0.000 C 
ATOM     15  C   UNL     1       5.064   6.256  16.357  0.00  0.00    +0.000 C 
ENDBRANCH   8  10
ENDBRANCH   5   8
ENDBRANCH   4   5
ENDBRANCH   3   4
ENDBRANCH   2   3
ENDBRANCH   1   2
BRANCH   1  16
ATOM     16  C   UNL     1       1.333   9.801  20.957  0.00  0.00    +0.000 C 
BRANCH  16  17
ATOM     17  N   UNL     1       0.228  10.463  21.620  0.00  0.00    +0.000 N 
ATOM     18  C   UNL     1      -0.716  11.025  20.825  0.00  0.00    +0.000 A 
ATOM     19  N   UNL     1      -1.026  10.612  19.622  0.00  0.00    +0.000 NA
ATOM     20  C   UNL     1      -2.047  11.392  19.089  0.00  0.00    +0.000 A 
ATOM     21  C   UNL     1      -2.449  12.438  19.895  0.00  0.00    +0.000 A 
ATOM     22  S   UNL     1      -1.587  12.405  21.372  0.00  0.00    +0.000 S 
ATOM     23  H   UNL     1       0.485  11.017  22.427  0.00  0.00    +0.000 HD
BRANCH  20  24
ATOM     24  C   UNL     1      -2.647  11.096  17.791  0.00  0.00    +0.000 A 
ATOM     25  C   UNL     1      -2.032  10.193  16.927  0.00  0.00    +0.000 A 
ATOM     26  C   UNL     1      -2.648   9.896  15.714  0.00  0.00    +0.000 A 
ATOM     27  C   UNL     1      -3.856  10.503  15.400  0.00  0.00    +0.000 A 
ATOM     28  C   UNL     1      -4.400  11.392  16.314  0.00  0.00    +0.000 A 
ATOM     29  N   UNL     1      -3.827  11.703  17.498  0.00  0.00    +0.000 NA
ENDBRANCH  20  24
ENDBRANCH  16  17
ENDBRANCH   1  16
TORSDOF 9
ENDMDL
