MODEL 1
REMARK VINA RESULT:      -7.6      0.000      0.000
REMARK  Name = 
REMARK  8 active torsions:
REMARK  status: ('A' for Active; 'I' for Inactive)
REMARK    1  A    between atoms: C_2  and  C_3
REMARK    2  A    between atoms: C_3  and  C_4
REMARK    3  A    between atoms: C_4  and  C_5
REMARK    4  A    between atoms: C_5  and  N_6
REMARK    5  A    between atoms: N_14  and  C_15
REMARK    6  A    between atoms: C_15  and  C_16
REMARK    7  A    between atoms: N_26  and  C_27
REMARK    8  A    between atoms: C_27  and  C_28
REMARK                            x       y       z     vdW  Elec       q    Type
REMARK                         _______ _______ _______ _____ _____    ______ ____
ROOT
ATOM      1  N   UNL     1       2.002   7.955  18.870  0.00  0.00    +0.000 N 
ATOM      2  C   UNL     1       1.802   7.644  20.221  0.00  0.00    +0.000 A 
ATOM      3  O   UNL     1       2.134   6.569  20.716  0.00  0.00    +0.000 OA
ATOM      4  C   UNL     1       1.140   8.683  20.954  0.00  0.00    +0.000 A 
ATOM      5  S   UNL     1       0.890   8.626  22.632  0.00  0.00    +0.000 S 
ATOM      6  C   UNL     1       0.094  10.142  22.609  0.00  0.00    +0.000 A 
ATOM      7  C   UNL     1       0.015  10.664  21.333  0.00  0.00    +0.000 A 
ATOM      8  C   UNL     1       0.649   9.821  20.378  0.00  0.00    +0.000 A 
ATOM      9  N   UNL     1       0.819  10.034  19.008  0.00  0.00    +0.000 N 
ATOM     10  C   UNL     1       1.634   9.168  18.264  0.00  0.00    +0.000 A 
ATOM     11  O   UNL     1       2.000   9.460  17.123  0.00  0.00    +0.000 OA
ENDROOT
BRANCH   1  12
ATOM     12  C   UNL     1       2.653   6.941  18.036  0.00  0.00    +0.000 C 
BRANCH  12  13
ATOM     13  C   UNL     1       4.184   6.978  18.134  0.00  0.00    +0.000 C 
BRANCH  13  14
ATOM     14  C   UNL     1       4.847   5.841  17.358  0.00  0.00    +0.000 C 
BRANCH  14  16
ATOM     15  O   UNL     1       5.654   4.286  19.001  0.00  0.00    +0.000 OA
ATOM     16  C   UNL     1       4.820   4.547  18.136  0.00  0.00    +0.000 C 
ATOM     17  N   UNL     1       3.810   3.694  17.782  0.00  0.00    +0.000 N 
ATOM     18  H   UNL     1       3.227   3.888  16.975  0.00  0.00    +0.000 HD
BRANCH  17  19
ATOM     19  C   UNL     1       3.635   2.402  18.405  0.00  0.00    +0.000 C 
BRANCH  19  20
ATOM     20  C   UNL     1       2.754   2.578  19.587  0.00  0.00    +0.000 A 
ATOM     21  C   UNL     1       1.393   2.743  19.738  0.00  0.00    +0.000 A 
ATOM     22  C   UNL     1       1.152   2.815  21.131  0.00  0.00    +0.000 A 
ATOM     23  C   UNL     1       2.377   2.688  21.740  0.00  0.00    +0.000 A 
ATOM     24  O   UNL     1       3.358   2.549  20.813  0.00  0.00    +0.000 OA
ENDBRANCH  19  20
ENDBRANCH  17  19
ENDBRANCH  14  16
ENDBRANCH  13  14
ENDBRANCH  12  13
ENDBRANCH   1  12
BRANCH   9  25
ATOM     25  C   UNL     1       0.202  11.171  18.312  0.00  0.00    +0.000 C 
BRANCH  25  26
ATOM     26  C   UNL     1      -1.292  11.072  18.068  0.00  0.00    +0.000 A 
ATOM     27  C   UNL     1      -1.840  10.054  17.267  0.00  0.00    +0.000 A 
ATOM     28  C   UNL     1      -3.220   9.884  17.168  0.00  0.00    +0.000 A 
ATOM     29  C   UNL     1      -4.067  10.739  17.857  0.00  0.00    +0.000 A 
ATOM     30  F   UNL     1      -5.390  10.539  17.802  0.00  0.00    +0.000 F 
ATOM     31  C   UNL     1      -3.564  11.790  18.609  0.00  0.00    +0.000 A 
ATOM     32  C   UNL     1      -2.180  11.964  18.703  0.00  0.00    +0.000 A 
ATOM     33 CL   UNL     1      -1.609  13.306  19.632  0.00  0.00    +0.000 Cl
ENDBRANCH  25  26
ENDBRANCH   9  25
TORSDOF 8
ENDMDL
MODEL 2
REMARK VINA RESULT:      -7.4      1.530      2.850
REMARK  Name = 
REMARK  8 active torsions:
REMARK  status: ('A' for Active; 'I' for Inactive)
REMARK    1  A    between atoms: C_2  and  C_3
REMARK    2  A    between atoms: C_3  and  C_4
REMARK    3  A    between atoms: C_4  and  C_5
REMARK    4  A    between atoms: C_5  and  N_6
REMARK    5  A    between atoms: N_14  and  C_15
REMARK    6  A    between atoms: C_15  and  C_16
REMARK    7  A    between atoms: N_26  and  C_27
REMARK    8  A    between atoms: C_27  and  C_28
REMARK                            x       y       z     vdW  Elec       q    Type
REMARK                         _______ _______ _______ _____ _____    ______ ____
ROOT
ATOM      1  N   UNL     1       1.862   8.107  19.345  0.00  0.00    +0.000 N 
ATOM      2  C   UNL     1       1.560   7.899  20.697  0.00  0.00    +0.000 A 
ATOM      3  O   UNL     1       1.881   6.880  21.304  0.00  0.00    +0.000 OA
ATOM      4  C   UNL     1       0.811   8.970  21.285  0.00  0.00    +0.000 A 
ATOM      5  S   UNL     1       0.426   9.040  22.937  0.00  0.00    +0.000 S 
ATOM      6  C   UNL     1      -0.409  10.521  22.724  0.00  0.00    +0.000 A 
ATOM      7  C   UNL     1      -0.397  10.935  21.408  0.00  0.00    +0.000 A 
ATOM      8  C   UNL     1       0.337  10.040  20.580  0.00  0.00    +0.000 A 
ATOM      9  N   UNL     1       0.612  10.147  19.215  0.00  0.00    +0.000 N 
ATOM     10  C   UNL     1       1.510   9.253  18.612  0.00  0.00    +0.000 A 
ATOM     11  O   UNL     1       1.960   9.465  17.484  0.00  0.00    +0.000 OA
ENDROOT
BRANCH   1  12
ATOM     12  C   UNL     1       2.607   7.052  18.653  0.00  0.00    +0.000 C 
BRANCH  12  13
ATOM     13  C   UNL     1       2.016   5.654  18.879  0.00  0.00    +0.000 C 
BRANCH  13  14
ATOM     14  C   UNL     1       2.170   4.749  17.658  0.00  0.00    +0.000 C 
BRANCH  14  16
ATOM     15  O   UNL     1       3.802   3.087  18.245  0.00  0.00    +0.000 OA
ATOM     16  C   UNL     1       3.536   4.107  17.611  0.00  0.00    +0.000 C 
ATOM     17  N   UNL     1       4.445   4.764  16.827  0.00  0.00    +0.000 N 
ATOM     18  H   UNL     1       4.226   5.671  16.430  0.00  0.00    +0.000 HD
BRANCH  17  19
ATOM     19  C   UNL     1       5.807   4.307  16.674  0.00  0.00    +0.000 C 
BRANCH  19  20
ATOM     20  C   UNL     1       6.686   5.209  17.459  0.00  0.00    +0.000 A 
ATOM     21  C   UNL     1       7.130   6.500  17.268  0.00  0.00    +0.000 A 
ATOM     22  C   UNL     1       7.918   6.823  18.399  0.00  0.00    +0.000 A 
ATOM     23  C   UNL     1       7.904   5.711  19.207  0.00  0.00    +0.000 A 
ATOM     24  O   UNL     1       7.163   4.723  18.644  0.00  0.00    +0.000 OA
ENDBRANCH  19  20
ENDBRANCH  17  19
ENDBRANCH  14  16
ENDBRANCH  13  14
ENDBRANCH  12  13
ENDBRANCH   1  12
BRANCH   9  25
ATOM     25  C   UNL     1       0.022  11.202  18.379  0.00  0.00    +0.000 C 
BRANCH  25  26
ATOM     26  C   UNL     1      -1.462  11.074  18.094  0.00  0.00    +0.000 A 
ATOM     27  C   UNL     1      -1.970  10.036  17.293  0.00  0.00    +0.000 A 
ATOM     28  C   UNL     1      -3.344   9.842  17.157  0.00  0.00    +0.000 A 
ATOM     29  C   UNL     1      -4.224  10.691  17.810  0.00  0.00    +0.000 A 
ATOM     30  F   UNL     1      -5.542  10.469  17.720  0.00  0.00    +0.000 F 
ATOM     31  C   UNL     1      -3.760  11.761  18.560  0.00  0.00    +0.000 A 
ATOM     32  C   UNL     1      -2.383  11.960  18.691  0.00  0.00    +0.000 A 
ATOM     33 CL   UNL     1      -1.861  13.324  19.617  0.00  0.00    +0.000 Cl
ENDBRANCH  25  26
ENDBRANCH   9  25
TORSDOF 8
ENDMDL
MODEL 3
REMARK VINA RESULT:      -7.2      4.132      8.347
REMARK  Name = 
REMARK  8 active torsions:
REMARK  status: ('A' for Active; 'I' for Inactive)
REMARK    1  A    between atoms: C_2  and  C_3
REMARK    2  A    between atoms: C_3  and  C_4
REMARK    3  A    between atoms: C_4  and  C_5
REMARK    4  A    between atoms: C_5  and  N_6
REMARK    5  A    between atoms: N_14  and  C_15
REMARK    6  A    between atoms: C_15  and  C_16
REMARK    7  A    between atoms: N_26  and  C_27
REMARK    8  A    between atoms: C_27  and  C_28
REMARK                            x       y       z     vdW  Elec       q    Type
REMARK                         _______ _______ _______ _____ _____    ______ ____
ROOT
ATOM      1  N   UNL     1       2.724   6.427  19.436  0.00  0.00    +0.000 N 
ATOM      2  C   UNL     1       2.012   5.428  20.113  0.00  0.00    +0.000 A 
ATOM      3  O   UNL     1       0.935   5.634  20.668  0.00  0.00    +0.000 OA
ATOM      4  C   UNL     1       2.681   4.161  20.126  0.00  0.00    +0.000 A 
ATOM      5  S   UNL     1       1.987   2.747  20.759  0.00  0.00    +0.000 S 
ATOM      6  C   UNL     1       3.389   1.838  20.385  0.00  0.00    +0.000 A 
ATOM      7  C   UNL     1       4.368   2.616  19.799  0.00  0.00    +0.000 A 
ATOM      8  C   UNL     1       3.938   3.963  19.628  0.00  0.00    +0.000 A 
ATOM      9  N   UNL     1       4.623   5.024  19.032  0.00  0.00    +0.000 N 
ATOM     10  C   UNL     1       3.958   6.236  18.793  0.00  0.00    +0.000 A 
ATOM     11  O   UNL     1       4.447   7.097  18.059  0.00  0.00    +0.000 OA
ENDROOT
BRANCH   1  12
ATOM     12  C   UNL     1       2.126   7.764  19.391  0.00  0.00    +0.000 C 
BRANCH  12  13
ATOM     13  C   UNL     1       1.639   8.155  17.989  0.00  0.00    +0.000 C 
BRANCH  13  14
ATOM     14  C   UNL     1       1.702   9.662  17.747  0.00  0.00    +0.000 C 
BRANCH  14  16
ATOM     15  O   UNL     1      -0.462  10.268  18.594  0.00  0.00    +0.000 OA
ATOM     16  C   UNL     1       0.758  10.411  18.657  0.00  0.00    +0.000 C 
ATOM     17  N   UNL     1       1.372  11.266  19.531  0.00  0.00    +0.000 N 
ATOM     18  H   UNL     1       2.366  11.455  19.460  0.00  0.00    +0.000 HD
BRANCH  17  19
ATOM     19  C   UNL     1       0.630  12.079  20.468  0.00  0.00    +0.000 C 
BRANCH  19  20
ATOM     20  C   UNL     1       0.177  11.204  21.578  0.00  0.00    +0.000 A 
ATOM     21  C   UNL     1      -0.988  11.133  22.313  0.00  0.00    +0.000 A 
ATOM     22  C   UNL     1      -0.827  10.050  23.211  0.00  0.00    +0.000 A 
ATOM     23  C   UNL     1       0.421   9.530  22.966  0.00  0.00    +0.000 A 
ATOM     24  O   UNL     1       1.042  10.226  21.980  0.00  0.00    +0.000 OA
ENDBRANCH  19  20
ENDBRANCH  17  19
ENDBRANCH  14  16
ENDBRANCH  13  14
ENDBRANCH  12  13
ENDBRANCH   1  12
BRANCH   9  25
ATOM     25  C   UNL     1       6.022   4.906  18.597  0.00  0.00    +0.000 C 
BRANCH  25  26
ATOM     26  C   UNL     1       6.240   4.660  17.117  0.00  0.00    +0.000 A 
ATOM     27  C   UNL     1       5.687   3.544  16.467  0.00  0.00    +0.000 A 
ATOM     28  C   UNL     1       5.770   3.405  15.082  0.00  0.00    +0.000 A 
ATOM     29  C   UNL     1       6.420   4.375  14.334  0.00  0.00    +0.000 A 
ATOM     30  F   UNL     1       6.452   4.265  12.999  0.00  0.00    +0.000 F 
ATOM     31  C   UNL     1       7.030   5.459  14.946  0.00  0.00    +0.000 A 
ATOM     32  C   UNL     1       6.951   5.595  16.336  0.00  0.00    +0.000 A 
ATOM     33 CL   UNL     1       7.752   6.952  17.048  0.00  0.00    +0.000 Cl
ENDBRANCH  25  26
ENDBRANCH   9  25
TORSDOF 8
ENDMDL
MODEL 4
REMARK VINA RESULT:      -7.1      2.715      3.442
REMARK  Name = 
REMARK  8 active torsions:
REMARK  status: ('A' for Active; 'I' for Inactive)
REMARK    1  A    between atoms: C_2  and  C_3
REMARK    2  A    between atoms: C_3  and  C_4
REMARK    3  A    between atoms: C_4  and  C_5
REMARK    4  A    between atoms: C_5  and  N_6
REMARK    5  A    between atoms: N_14  and  C_15
REMARK    6  A    between atoms: C_15  and  C_16
REMARK    7  A    between atoms: N_26  and  C_27
REMARK    8  A    between atoms: C_27  and  C_28
REMARK                            x       y       z     vdW  Elec       q    Type
REMARK                         _______ _______ _______ _____ _____    ______ ____
ROOT
ATOM      1  N   UNL     1       1.685   8.460  19.033  0.00  0.00    +0.000 N 
ATOM      2  C   UNL     1       1.320   8.165  20.353  0.00  0.00    +0.000 A 
ATOM      3  O   UNL     1       1.467   7.053  20.854  0.00  0.00    +0.000 OA
ATOM      4  C   UNL     1       0.726   9.273  21.041  0.00  0.00    +0.000 A 
ATOM      5  S   UNL     1       0.314   9.234  22.687  0.00  0.00    +0.000 S 
ATOM      6  C   UNL     1      -0.283  10.839  22.620  0.00  0.00    +0.000 A 
ATOM      7  C   UNL     1      -0.175  11.377  21.353  0.00  0.00    +0.000 A 
ATOM      8  C   UNL     1       0.438  10.468  20.445  0.00  0.00    +0.000 A 
ATOM      9  N   UNL     1       0.761  10.669  19.101  0.00  0.00    +0.000 N 
ATOM     10  C   UNL     1       1.530   9.713  18.419  0.00  0.00    +0.000 A 
ATOM     11  O   UNL     1       2.036   9.967  17.323  0.00  0.00    +0.000 OA
ENDROOT
BRANCH   1  12
ATOM     12  C   UNL     1       2.281   7.378  18.243  0.00  0.00    +0.000 C 
BRANCH  12  13
ATOM     13  C   UNL     1       3.815   7.379  18.288  0.00  0.00    +0.000 C 
BRANCH  13  14
ATOM     14  C   UNL     1       4.433   6.536  17.174  0.00  0.00    +0.000 C 
BRANCH  14  16
ATOM     15  O   UNL     1       4.413   4.191  16.655  0.00  0.00    +0.000 OA
ATOM     16  C   UNL     1       4.427   5.066  17.520  0.00  0.00    +0.000 C 
ATOM     17  N   UNL     1       4.418   4.799  18.862  0.00  0.00    +0.000 N 
ATOM     18  H   UNL     1       4.294   5.546  19.537  0.00  0.00    +0.000 HD
BRANCH  17  19
ATOM     19  C   UNL     1       4.394   3.451  19.382  0.00  0.00    +0.000 C 
BRANCH  19  20
ATOM     20  C   UNL     1       3.107   3.256  20.094  0.00  0.00    +0.000 A 
ATOM     21  C   UNL     1       2.765   2.639  21.279  0.00  0.00    +0.000 A 
ATOM     22  C   UNL     1       1.370   2.824  21.437  0.00  0.00    +0.000 A 
ATOM     23  C   UNL     1       0.952   3.542  20.342  0.00  0.00    +0.000 A 
ATOM     24  O   UNL     1       1.997   3.805  19.518  0.00  0.00    +0.000 OA
ENDBRANCH  19  20
ENDBRANCH  17  19
ENDBRANCH  14  16
ENDBRANCH  13  14
ENDBRANCH  12  13
ENDBRANCH   1  12
BRANCH   9  25
ATOM     25  C   UNL     1       0.360  11.881  18.373  0.00  0.00    +0.000 C 
BRANCH  25  26
ATOM     26  C   UNL     1       1.228  13.105  18.589  0.00  0.00    +0.000 A 
ATOM     27  C   UNL     1       2.587  13.115  18.229  0.00  0.00    +0.000 A 
ATOM     28  C   UNL     1       3.338  14.289  18.296  0.00  0.00    +0.000 A 
ATOM     29  C   UNL     1       2.741  15.460  18.736  0.00  0.00    +0.000 A 
ATOM     30  F   UNL     1       3.451  16.596  18.748  0.00  0.00    +0.000 F 
ATOM     31  C   UNL     1       1.419  15.475  19.156  0.00  0.00    +0.000 A 
ATOM     32  C   UNL     1       0.668  14.297  19.094  0.00  0.00    +0.000 A 
ATOM     33 CL   UNL     1      -0.966  14.367  19.654  0.00  0.00    +0.000 Cl
ENDBRANCH  25  26
ENDBRANCH   9  25
TORSDOF 8
ENDMDL
MODEL 5
REMARK VINA RESULT:      -7.1      4.195      8.699
REMARK  Name = 
REMARK  8 active torsions:
REMARK  status: ('A' for Active; 'I' for Inactive)
REMARK    1  A    between atoms: C_2  and  C_3
REMARK    2  A    between atoms: C_3  and  C_4
REMARK    3  A    between atoms: C_4  and  C_5
REMARK    4  A    between atoms: C_5  and  N_6
REMARK    5  A    between atoms: N_14  and  C_15
REMARK    6  A    between atoms: C_15  and  C_16
REMARK    7  A    between atoms: N_26  and  C_27
REMARK    8  A    between atoms: C_27  and  C_28
REMARK                            x       y       z     vdW  Elec       q    Type
REMARK                         _______ _______ _______ _____ _____    ______ ____
ROOT
ATOM      1  N   UNL     1       2.245   6.736  19.574  0.00  0.00    +0.000 N 
ATOM      2  C   UNL     1       1.969   5.536  20.243  0.00  0.00    +0.000 A 
ATOM      3  O   UNL     1       1.006   5.396  20.993  0.00  0.00    +0.000 OA
ATOM      4  C   UNL     1       2.940   4.511  19.997  0.00  0.00    +0.000 A 
ATOM      5  S   UNL     1       2.782   2.922  20.573  0.00  0.00    +0.000 S 
ATOM      6  C   UNL     1       4.274   2.470  19.864  0.00  0.00    +0.000 A 
ATOM      7  C   UNL     1       4.878   3.528  19.214  0.00  0.00    +0.000 A 
ATOM      8  C   UNL     1       4.082   4.707  19.274  0.00  0.00    +0.000 A 
ATOM      9  N   UNL     1       4.331   5.953  18.695  0.00  0.00    +0.000 N 
ATOM     10  C   UNL     1       3.336   6.942  18.714  0.00  0.00    +0.000 A 
ATOM     11  O   UNL     1       3.426   7.950  18.010  0.00  0.00    +0.000 OA
ENDROOT
BRANCH   1  12
ATOM     12  C   UNL     1       1.317   7.851  19.785  0.00  0.00    +0.000 C 
BRANCH  12  13
ATOM     13  C   UNL     1       1.506   8.540  21.143  0.00  0.00    +0.000 C 
BRANCH  13  14
ATOM     14  C   UNL     1       0.354   9.482  21.486  0.00  0.00    +0.000 C 
BRANCH  14  16
ATOM     15  O   UNL     1       1.144  11.377  20.238  0.00  0.00    +0.000 OA
ATOM     16  C   UNL     1       0.224  10.594  20.472  0.00  0.00    +0.000 C 
ATOM     17  N   UNL     1      -0.998  10.663  19.860  0.00  0.00    +0.000 N 
ATOM     18  H   UNL     1      -1.769  10.086  20.177  0.00  0.00    +0.000 HD
BRANCH  17  19
ATOM     19  C   UNL     1      -1.313  11.671  18.874  0.00  0.00    +0.000 C 
BRANCH  19  20
ATOM     20  C   UNL     1      -1.988  11.003  17.734  0.00  0.00    +0.000 A 
ATOM     21  C   UNL     1      -2.498   9.736  17.545  0.00  0.00    +0.000 A 
ATOM     22  C   UNL     1      -3.059   9.722  16.245  0.00  0.00    +0.000 A 
ATOM     23  C   UNL     1      -2.856  10.977  15.725  0.00  0.00    +0.000 A 
ATOM     24  O   UNL     1      -2.202  11.763  16.618  0.00  0.00    +0.000 OA
ENDBRANCH  19  20
ENDBRANCH  17  19
ENDBRANCH  14  16
ENDBRANCH  13  14
ENDBRANCH  12  13
ENDBRANCH   1  12
BRANCH   9  25
ATOM     25  C   UNL     1       5.599   6.262  18.019  0.00  0.00    +0.000 C 
BRANCH  25  26
ATOM     26  C   UNL     1       5.840   5.549  16.702  0.00  0.00    +0.000 A 
ATOM     27  C   UNL     1       4.978   5.720  15.605  0.00  0.00    +0.000 A 
ATOM     28  C   UNL     1       5.288   5.178  14.358  0.00  0.00    +0.000 A 
ATOM     29  C   UNL     1       6.457   4.449  14.198  0.00  0.00    +0.000 A 
ATOM     30  F   UNL     1       6.777   3.977  12.987  0.00  0.00    +0.000 F 
ATOM     31  C   UNL     1       7.301   4.210  15.272  0.00  0.00    +0.000 A 
ATOM     32  C   UNL     1       6.988   4.748  16.523  0.00  0.00    +0.000 A 
ATOM     33 CL   UNL     1       8.062   4.397  17.831  0.00  0.00    +0.000 Cl
ENDBRANCH  25  26
ENDBRANCH   9  25
TORSDOF 8
ENDMDL
MODEL 6
REMARK VINA RESULT:      -7.0      2.717      4.123
REMARK  Name = 
REMARK  8 active torsions:
REMARK  status: ('A' for Active; 'I' for Inactive)
REMARK    1  A    between atoms: C_2  and  C_3
REMARK    2  A    between atoms: C_3  and  C_4
REMARK    3  A    between atoms: C_4  and  C_5
REMARK    4  A    between atoms: C_5  and  N_6
REMARK    5  A    between atoms: N_14  and  C_15
REMARK    6  A    between atoms: C_15  and  C_16
REMARK    7  A    between atoms: N_26  and  C_27
REMARK    8  A    between atoms: C_27  and  C_28
REMARK                            x       y       z     vdW  Elec       q    Type
REMARK                         _______ _______ _______ _____ _____    ______ ____
ROOT
ATOM      1  N   UNL     1       1.917   8.320  19.365  0.00  0.00    +0.000 N 
ATOM      2  C   UNL     1       1.449   8.053  20.659  0.00  0.00    +0.000 A 
ATOM      3  O   UNL     1       1.671   6.995  21.245  0.00  0.00    +0.000 OA
ATOM      4  C   UNL     1       0.658   9.114  21.209  0.00  0.00    +0.000 A 
ATOM      5  S   UNL     1       0.077   9.111  22.803  0.00  0.00    +0.000 S 
ATOM      6  C   UNL     1      -0.694  10.624  22.571  0.00  0.00    +0.000 A 
ATOM      7  C   UNL     1      -0.513  11.103  21.289  0.00  0.00    +0.000 A 
ATOM      8  C   UNL     1       0.297  10.230  20.509  0.00  0.00    +0.000 A 
ATOM      9  N   UNL     1       0.738  10.398  19.195  0.00  0.00    +0.000 N 
ATOM     10  C   UNL     1       1.683   9.510  18.658  0.00  0.00    +0.000 A 
ATOM     11  O   UNL     1       2.271   9.766  17.605  0.00  0.00    +0.000 OA
ENDROOT
BRANCH   1  12
ATOM     12  C   UNL     1       2.718   7.280  18.713  0.00  0.00    +0.000 C 
BRANCH  12  13
ATOM     13  C   UNL     1       1.876   6.325  17.856  0.00  0.00    +0.000 C 
BRANCH  13  14
ATOM     14  C   UNL     1       1.914   4.888  18.371  0.00  0.00    +0.000 C 
BRANCH  14  16
ATOM     15  O   UNL     1       3.824   3.726  19.251  0.00  0.00    +0.000 OA
ATOM     16  C   UNL     1       3.307   4.308  18.298  0.00  0.00    +0.000 C 
ATOM     17  N   UNL     1       3.940   4.503  17.101  0.00  0.00    +0.000 N 
ATOM     18  H   UNL     1       3.533   5.102  16.391  0.00  0.00    +0.000 HD
BRANCH  17  19
ATOM     19  C   UNL     1       5.283   4.032  16.852  0.00  0.00    +0.000 C 
BRANCH  19  20
ATOM     20  C   UNL     1       6.231   5.035  17.399  0.00  0.00    +0.000 A 
ATOM     21  C   UNL     1       6.531   6.338  17.062  0.00  0.00    +0.000 A 
ATOM     22  C   UNL     1       7.501   6.778  17.994  0.00  0.00    +0.000 A 
ATOM     23  C   UNL     1       7.730   5.719  18.840  0.00  0.00    +0.000 A 
ATOM     24  O   UNL     1       6.968   4.654  18.485  0.00  0.00    +0.000 OA
ENDBRANCH  19  20
ENDBRANCH  17  19
ENDBRANCH  14  16
ENDBRANCH  13  14
ENDBRANCH  12  13
ENDBRANCH   1  12
BRANCH   9  25
ATOM     25  C   UNL     1       0.278  11.510  18.351  0.00  0.00    +0.000 C 
BRANCH  25  26
ATOM     26  C   UNL     1       1.001  12.831  18.539  0.00  0.00    +0.000 A 
ATOM     27  C   UNL     1       2.350  12.988  18.178  0.00  0.00    +0.000 A 
ATOM     28  C   UNL     1       2.962  14.241  18.218  0.00  0.00    +0.000 A 
ATOM     29  C   UNL     1       2.234  15.346  18.632  0.00  0.00    +0.000 A 
ATOM     30  F   UNL     1       2.810  16.555  18.618  0.00  0.00    +0.000 F 
ATOM     31  C   UNL     1       0.919  15.218  19.053  0.00  0.00    +0.000 A 
ATOM     32  C   UNL     1       0.307  13.962  19.018  0.00  0.00    +0.000 A 
ATOM     33 CL   UNL     1      -1.325  13.856  19.578  0.00  0.00    +0.000 Cl
ENDBRANCH  25  26
ENDBRANCH   9  25
TORSDOF 8
ENDMDL
MODEL 7
REMARK VINA RESULT:      -7.0      1.362      1.646
REMARK  Name = 
REMARK  8 active torsions:
REMARK  status: ('A' for Active; 'I' for Inactive)
REMARK    1  A    between atoms: C_2  and  C_3
REMARK    2  A    between atoms: C_3  and  C_4
REMARK    3  A    between atoms: C_4  and  C_5
REMARK    4  A    between atoms: C_5  and  N_6
REMARK    5  A    between atoms: N_14  and  C_15
REMARK    6  A    between atoms: C_15  and  C_16
REMARK    7  A    between atoms: N_26  and  C_27
REMARK    8  A    between atoms: C_27  and  C_28
REMARK                            x       y       z     vdW  Elec       q    Type
REMARK                         _______ _______ _______ _____ _____    ______ ____
ROOT
ATOM      1  N   UNL     1       1.458   8.498  19.106  0.00  0.00    +0.000 N 
ATOM      2  C   UNL     1       1.303   8.160  20.457  0.00  0.00    +0.000 A 
ATOM      3  O   UNL     1       1.695   7.095  20.928  0.00  0.00    +0.000 OA
ATOM      4  C   UNL     1       0.614   9.159  21.219  0.00  0.00    +0.000 A 
ATOM      5  S   UNL     1       0.407   9.069  22.901  0.00  0.00    +0.000 S 
ATOM      6  C   UNL     1      -0.457  10.548  22.918  0.00  0.00    +0.000 A 
ATOM      7  C   UNL     1      -0.589  11.083  21.652  0.00  0.00    +0.000 A 
ATOM      8  C   UNL     1       0.059  10.281  20.671  0.00  0.00    +0.000 A 
ATOM      9  N   UNL     1       0.186  10.519  19.301  0.00  0.00    +0.000 N 
ATOM     10  C   UNL     1       1.022   9.700  18.526  0.00  0.00    +0.000 A 
ATOM     11  O   UNL     1       1.347  10.024  17.381  0.00  0.00    +0.000 OA
ENDROOT
BRANCH   1  12
ATOM     12  C   UNL     1       2.133   7.525  18.243  0.00  0.00    +0.000 C 
BRANCH  12  13
ATOM     13  C   UNL     1       3.661   7.663  18.266  0.00  0.00    +0.000 C 
BRANCH  13  14
ATOM     14  C   UNL     1       4.341   6.825  17.184  0.00  0.00    +0.000 C 
BRANCH  14  16
ATOM     15  O   UNL     1       4.234   4.481  16.668  0.00  0.00    +0.000 OA
ATOM     16  C   UNL     1       4.328   5.355  17.530  0.00  0.00    +0.000 C 
ATOM     17  N   UNL     1       4.408   5.086  18.869  0.00  0.00    +0.000 N 
ATOM     18  H   UNL     1       4.348   5.834  19.552  0.00  0.00    +0.000 HD
BRANCH  17  19
ATOM     19  C   UNL     1       4.393   3.738  19.389  0.00  0.00    +0.000 C 
BRANCH  19  20
ATOM     20  C   UNL     1       3.061   3.495  19.998  0.00  0.00    +0.000 A 
ATOM     21  C   UNL     1       1.776   3.830  19.628  0.00  0.00    +0.000 A 
ATOM     22  C   UNL     1       0.920   3.272  20.610  0.00  0.00    +0.000 A 
ATOM     23  C   UNL     1       1.736   2.632  21.511  0.00  0.00    +0.000 A 
ATOM     24  O   UNL     1       3.038   2.765  21.153  0.00  0.00    +0.000 OA
ENDBRANCH  19  20
ENDBRANCH  17  19
ENDBRANCH  14  16
ENDBRANCH  13  14
ENDBRANCH  12  13
ENDBRANCH   1  12
BRANCH   9  25
ATOM     25  C   UNL     1      -0.497  11.637  18.635  0.00  0.00    +0.000 C 
BRANCH  25  26
ATOM     26  C   UNL     1      -2.013  11.616  18.687  0.00  0.00    +0.000 A 
ATOM     27  C   UNL     1      -2.727  12.388  19.619  0.00  0.00    +0.000 A 
ATOM     28  C   UNL     1      -4.118  12.475  19.563  0.00  0.00    +0.000 A 
ATOM     29  C   UNL     1      -4.810  11.779  18.583  0.00  0.00    +0.000 A 
ATOM     30  F   UNL     1      -6.140  11.907  18.500  0.00  0.00    +0.000 F 
ATOM     31  C   UNL     1      -4.143  10.960  17.685  0.00  0.00    +0.000 A 
ATOM     32  C   UNL     1      -2.749  10.868  17.744  0.00  0.00    +0.000 A 
ATOM     33 CL   UNL     1      -1.973   9.812  16.616  0.00  0.00    +0.000 Cl
ENDBRANCH  25  26
ENDBRANCH   9  25
TORSDOF 8
ENDMDL
MODEL 8
REMARK VINA RESULT:      -7.0      7.013      8.162
REMARK  Name = 
REMARK  8 active torsions:
REMARK  status: ('A' for Active; 'I' for Inactive)
REMARK    1  A    between atoms: C_2  and  C_3
REMARK    2  A    between atoms: C_3  and  C_4
REMARK    3  A    between atoms: C_4  and  C_5
REMARK    4  A    between atoms: C_5  and  N_6
REMARK    5  A    between atoms: N_14  and  C_15
REMARK    6  A    between atoms: C_15  and  C_16
REMARK    7  A    between atoms: N_26  and  C_27
REMARK    8  A    between atoms: C_27  and  C_28
REMARK                            x       y       z     vdW  Elec       q    Type
REMARK                         _______ _______ _______ _____ _____    ______ ____
ROOT
ATOM      1  N   UNL     1       9.277  12.010  19.347  0.00  0.00    +0.000 N 
ATOM      2  C   UNL     1       9.181  11.886  20.740  0.00  0.00    +0.000 A 
ATOM      3  O   UNL     1       9.349  10.821  21.329  0.00  0.00    +0.000 OA
ATOM      4  C   UNL     1       8.830  13.110  21.398  0.00  0.00    +0.000 A 
ATOM      5  S   UNL     1       8.776  13.276  23.086  0.00  0.00    +0.000 S 
ATOM      6  C   UNL     1       8.299  14.916  22.953  0.00  0.00    +0.000 A 
ATOM      7  C   UNL     1       8.175  15.312  21.636  0.00  0.00    +0.000 A 
ATOM      8  C   UNL     1       8.510  14.261  20.736  0.00  0.00    +0.000 A 
ATOM      9  N   UNL     1       8.554  14.294  19.340  0.00  0.00    +0.000 N 
ATOM     10  C   UNL     1       9.087  13.205  18.634  0.00  0.00    +0.000 A 
ATOM     11  O   UNL     1       9.365  13.297  17.436  0.00  0.00    +0.000 OA
ENDROOT
BRANCH   1  12
ATOM     12  C   UNL     1       9.609  10.802  18.587  0.00  0.00    +0.000 C 
BRANCH  12  13
ATOM     13  C   UNL     1       8.627   9.649  18.834  0.00  0.00    +0.000 C 
BRANCH  13  14
ATOM     14  C   UNL     1       8.200   8.956  17.542  0.00  0.00    +0.000 C 
BRANCH  14  16
ATOM     15  O   UNL     1       8.163   6.861  18.716  0.00  0.00    +0.000 OA
ATOM     16  C   UNL     1       7.716   7.549  17.799  0.00  0.00    +0.000 C 
ATOM     17  N   UNL     1       6.766   7.106  16.919  0.00  0.00    +0.000 N 
ATOM     18  H   UNL     1       6.524   7.653  16.100  0.00  0.00    +0.000 HD
BRANCH  17  19
ATOM     19  C   UNL     1       6.198   5.780  16.998  0.00  0.00    +0.000 C 
BRANCH  19  20
ATOM     20  C   UNL     1       6.335   5.141  15.666  0.00  0.00    +0.000 A 
ATOM     21  C   UNL     1       5.546   4.267  14.949  0.00  0.00    +0.000 A 
ATOM     22  C   UNL     1       6.204   4.056  13.713  0.00  0.00    +0.000 A 
ATOM     23  C   UNL     1       7.349   4.814  13.754  0.00  0.00    +0.000 A 
ATOM     24  O   UNL     1       7.442   5.473  14.937  0.00  0.00    +0.000 OA
ENDBRANCH  19  20
ENDBRANCH  17  19
ENDBRANCH  14  16
ENDBRANCH  13  14
ENDBRANCH  12  13
ENDBRANCH   1  12
BRANCH   9  25
ATOM     25  C   UNL     1       8.097  15.460  18.571  0.00  0.00    +0.000 C 
BRANCH  25  26
ATOM     26  C   UNL     1       6.595  15.644  18.471  0.00  0.00    +0.000 A 
ATOM     27  C   UNL     1       5.785  14.716  17.793  0.00  0.00    +0.000 A 
ATOM     28  C   UNL     1       4.394  14.816  17.831  0.00  0.00    +0.000 A 
ATOM     29  C   UNL     1       3.800  15.852  18.536  0.00  0.00    +0.000 A 
ATOM     30  F   UNL     1       2.465  15.913  18.614  0.00  0.00    +0.000 F 
ATOM     31  C   UNL     1       4.569  16.819  19.167  0.00  0.00    +0.000 A 
ATOM     32  C   UNL     1       5.963  16.722  19.124  0.00  0.00    +0.000 A 
ATOM     33 CL   UNL     1       6.871  17.969  19.905  0.00  0.00    +0.000 Cl
ENDBRANCH  25  26
ENDBRANCH   9  25
TORSDOF 8
ENDMDL
MODEL 9
REMARK VINA RESULT:      -6.9      1.379      2.837
REMARK  Name = 
REMARK  8 active torsions:
REMARK  status: ('A' for Active; 'I' for Inactive)
REMARK    1  A    between atoms: C_2  and  C_3
REMARK    2  A    between atoms: C_3  and  C_4
REMARK    3  A    between atoms: C_4  and  C_5
REMARK    4  A    between atoms: C_5  and  N_6
REMARK    5  A    between atoms: N_14  and  C_15
REMARK    6  A    between atoms: C_15  and  C_16
REMARK    7  A    between atoms: N_26  and  C_27
REMARK    8  A    between atoms: C_27  and  C_28
REMARK                            x       y       z     vdW  Elec       q    Type
REMARK                         _______ _______ _______ _____ _____    ______ ____
ROOT
ATOM      1  N   UNL     1       1.842   8.290  19.398  0.00  0.00    +0.000 N 
ATOM      2  C   UNL     1       1.515   8.044  20.738  0.00  0.00    +0.000 A 
ATOM      3  O   UNL     1       1.848   7.019  21.329  0.00  0.00    +0.000 OA
ATOM      4  C   UNL     1       0.724   9.081  21.331  0.00  0.00    +0.000 A 
ATOM      5  S   UNL     1       0.299   9.103  22.974  0.00  0.00    +0.000 S 
ATOM      6  C   UNL     1      -0.570  10.566  22.774  0.00  0.00    +0.000 A 
ATOM      7  C   UNL     1      -0.538  11.010  21.468  0.00  0.00    +0.000 A 
ATOM      8  C   UNL     1       0.239  10.153  20.638  0.00  0.00    +0.000 A 
ATOM      9  N   UNL     1       0.542  10.298  19.282  0.00  0.00    +0.000 N 
ATOM     10  C   UNL     1       1.478   9.442  18.682  0.00  0.00    +0.000 A 
ATOM     11  O   UNL     1       1.948   9.691  17.570  0.00  0.00    +0.000 OA
ENDROOT
BRANCH   1  12
ATOM     12  C   UNL     1       2.632   7.270  18.701  0.00  0.00    +0.000 C 
BRANCH  12  13
ATOM     13  C   UNL     1       1.764   6.224  17.989  0.00  0.00    +0.000 C 
BRANCH  13  14
ATOM     14  C   UNL     1       1.724   4.891  18.734  0.00  0.00    +0.000 C 
BRANCH  14  16
ATOM     15  O   UNL     1       3.795   4.014  19.578  0.00  0.00    +0.000 OA
ATOM     16  C   UNL     1       3.036   4.151  18.620  0.00  0.00    +0.000 C 
ATOM     17  N   UNL     1       3.309   3.672  17.368  0.00  0.00    +0.000 N 
ATOM     18  H   UNL     1       2.723   3.921  16.578  0.00  0.00    +0.000 HD
BRANCH  17  19
ATOM     19  C   UNL     1       4.525   2.953  17.064  0.00  0.00    +0.000 C 
BRANCH  19  20
ATOM     20  C   UNL     1       5.426   3.867  16.318  0.00  0.00    +0.000 A 
ATOM     21  C   UNL     1       5.572   4.171  14.981  0.00  0.00    +0.000 A 
ATOM     22  C   UNL     1       6.584   5.158  14.905  0.00  0.00    +0.000 A 
ATOM     23  C   UNL     1       6.989   5.393  16.196  0.00  0.00    +0.000 A 
ATOM     24  O   UNL     1       6.297   4.611  17.063  0.00  0.00    +0.000 OA
ENDBRANCH  19  20
ENDBRANCH  17  19
ENDBRANCH  14  16
ENDBRANCH  13  14
ENDBRANCH  12  13
ENDBRANCH   1  12
BRANCH   9  25
ATOM     25  C   UNL     1      -0.055  11.357  18.456  0.00  0.00    +0.000 C 
BRANCH  25  26
ATOM     26  C   UNL     1      -1.531  11.201  18.141  0.00  0.00    +0.000 A 
ATOM     27  C   UNL     1      -1.999  10.181  17.295  0.00  0.00    +0.000 A 
ATOM     28  C   UNL     1      -3.365   9.957  17.129  0.00  0.00    +0.000 A 
ATOM     29  C   UNL     1      -4.277  10.760  17.796  0.00  0.00    +0.000 A 
ATOM     30  F   UNL     1      -5.587  10.507  17.676  0.00  0.00    +0.000 F 
ATOM     31  C   UNL     1      -3.853  11.813  18.592  0.00  0.00    +0.000 A 
ATOM     32  C   UNL     1      -2.484  12.042  18.754  0.00  0.00    +0.000 A 
ATOM     33 CL   UNL     1      -2.013  13.384  19.736  0.00  0.00    +0.000 Cl
ENDBRANCH  25  26
ENDBRANCH   9  25
TORSDOF 8
ENDMDL
