MODEL 1
REMARK VINA RESULT:      -7.1      0.000      0.000
REMARK  Name = 
REMARK  5 active torsions:
REMARK  status: ('A' for Active; 'I' for Inactive)
REMARK    1  A    between atoms: C_1  and  C_2
REMARK    2  A    between atoms: C_7  and  C_8
REMARK    3  A    between atoms: C_8  and  N_9
REMARK    4  A    between atoms: N_12  and  C_13
REMARK    5  A    between atoms: C_22  and  C_23
REMARK                            x       y       z     vdW  Elec       q    Type
REMARK                         _______ _______ _______ _____ _____    ______ ____
ROOT
ATOM      1  C   UNL     1       3.027   6.576  17.982  0.00  0.00    +0.000 C 
ENDROOT
BRANCH   1   8
ATOM      2  C   UNL     1      -0.687  11.001  21.563  0.00  0.00    +0.000 C 
ATOM      3  C   UNL     1       0.105   9.905  20.902  0.00  0.00    +0.000 A 
ATOM      4  C   UNL     1       0.226   8.699  21.476  0.00  0.00    +0.000 A 
ATOM      5  C   UNL     1       1.064   7.736  20.874  0.00  0.00    +0.000 A 
ATOM      6  N   UNL     1       1.410   6.548  21.311  0.00  0.00    +0.000 NA
ATOM      7  C   UNL     1       2.219   6.041  20.349  0.00  0.00    +0.000 A 
ATOM      8  C   UNL     1       2.358   6.906  19.276  0.00  0.00    +0.000 A 
ATOM      9  N   UNL     1       1.664   8.059  19.654  0.00  0.00    +0.000 N 
ATOM     10  C   UNL     1       1.453   9.345  19.115  0.00  0.00    +0.000 A 
ATOM     11  C   UNL     1       2.127   9.741  17.844  0.00  0.00    +0.000 C 
ATOM     12  N   UNL     1       0.709  10.239  19.710  0.00  0.00    +0.000 NA
ENDBRANCH   1   8
BRANCH   1  13
ATOM     13  N   UNL     1       4.397   6.085  18.143  0.00  0.00    +0.000 NA
ATOM     14  C   UNL     1       4.567   4.641  17.849  0.00  0.00    +0.000 C 
ATOM     15  C   UNL     1       4.576   4.208  16.354  0.00  0.00    +0.000 C 
ATOM     16  N   UNL     1       5.468   5.069  15.553  0.00  0.00    +0.000 N 
ATOM     17  C   UNL     1       5.281   6.511  15.761  0.00  0.00    +0.000 C 
ATOM     18  C   UNL     1       5.336   6.840  17.273  0.00  0.00    +0.000 C 
BRANCH  16  19
ATOM     19  C   UNL     1       6.009   4.598  14.359  0.00  0.00    +0.000 A 
ATOM     20  C   UNL     1       5.351   3.676  13.531  0.00  0.00    +0.000 A 
ATOM     21  C   UNL     1       5.855   3.308  12.276  0.00  0.00    +0.000 A 
ATOM     22  C   UNL     1       7.047   3.857  11.811  0.00  0.00    +0.000 A 
ATOM     23  C   UNL     1       7.737   4.753  12.618  0.00  0.00    +0.000 A 
ATOM     24  C   UNL     1       7.225   5.109  13.874  0.00  0.00    +0.000 A 
ENDBRANCH  16  19
ENDBRANCH   1  13
TORSDOF 3
ENDMDL
MODEL 2
REMARK VINA RESULT:      -6.9      0.282      1.016
REMARK  Name = 
REMARK  5 active torsions:
REMARK  status: ('A' for Active; 'I' for Inactive)
REMARK    1  A    between atoms: C_1  and  C_2
REMARK    2  A    between atoms: C_7  and  C_8
REMARK    3  A    between atoms: C_8  and  N_9
REMARK    4  A    between atoms: N_12  and  C_13
REMARK    5  A    between atoms: C_22  and  C_23
REMARK                            x       y       z     vdW  Elec       q    Type
REMARK                         _______ _______ _______ _____ _____    ______ ____
ROOT
ATOM      1  C   UNL     1       2.909   6.089  18.091  0.00  0.00    +0.000 C 
ENDROOT
BRANCH   1   8
ATOM      2  C   UNL     1      -0.255  11.151  21.341  0.00  0.00    +0.000 C 
ATOM      3  C   UNL     1       0.410   9.930  20.765  0.00  0.00    +0.000 A 
ATOM      4  C   UNL     1       0.448   8.777  21.449  0.00  0.00    +0.000 A 
ATOM      5  C   UNL     1       1.173   7.689  20.918  0.00  0.00    +0.000 A 
ATOM      6  N   UNL     1       1.431   6.521  21.457  0.00  0.00    +0.000 NA
ATOM      7  C   UNL     1       2.154   5.855  20.523  0.00  0.00    +0.000 A 
ATOM      8  C   UNL     1       2.325   6.599  19.368  0.00  0.00    +0.000 A 
ATOM      9  N   UNL     1       1.750   7.840  19.654  0.00  0.00    +0.000 N 
ATOM     10  C   UNL     1       1.631   9.084  18.999  0.00  0.00    +0.000 A 
ATOM     11  C   UNL     1       2.286   9.296  17.675  0.00  0.00    +0.000 C 
ATOM     12  N   UNL     1       0.993  10.094  19.527  0.00  0.00    +0.000 NA
ENDBRANCH   1   8
BRANCH   1  13
ATOM     13  N   UNL     1       4.339   5.788  18.185  0.00  0.00    +0.000 NA
ATOM     14  C   UNL     1       4.696   4.397  17.810  0.00  0.00    +0.000 C 
ATOM     15  C   UNL     1       4.709   4.041  16.296  0.00  0.00    +0.000 C 
ATOM     16  N   UNL     1       5.443   5.055  15.514  0.00  0.00    +0.000 N 
ATOM     17  C   UNL     1       5.066   6.445  15.803  0.00  0.00    +0.000 C 
ATOM     18  C   UNL     1       5.132   6.707  17.327  0.00  0.00    +0.000 C 
BRANCH  16  19
ATOM     19  C   UNL     1       5.999   4.722  14.282  0.00  0.00    +0.000 A 
ATOM     20  C   UNL     1       7.224   5.235  13.830  0.00  0.00    +0.000 A 
ATOM     21  C   UNL     1       7.827   4.794  12.643  0.00  0.00    +0.000 A 
ATOM     22  C   UNL     1       7.209   3.819  11.865  0.00  0.00    +0.000 A 
ATOM     23  C   UNL     1       5.982   3.309  12.269  0.00  0.00    +0.000 A 
ATOM     24  C   UNL     1       5.387   3.762  13.456  0.00  0.00    +0.000 A 
ENDBRANCH  16  19
ENDBRANCH   1  13
TORSDOF 3
ENDMDL
MODEL 3
REMARK VINA RESULT:      -6.8      0.905      1.970
REMARK  Name = 
REMARK  5 active torsions:
REMARK  status: ('A' for Active; 'I' for Inactive)
REMARK    1  A    between atoms: C_1  and  C_2
REMARK    2  A    between atoms: C_7  and  C_8
REMARK    3  A    between atoms: C_8  and  N_9
REMARK    4  A    between atoms: N_12  and  C_13
REMARK    5  A    between atoms: C_22  and  C_23
REMARK                            x       y       z     vdW  Elec       q    Type
REMARK                         _______ _______ _______ _____ _____    ______ ____
ROOT
ATOM      1  C   UNL     1       3.067   5.835  18.071  0.00  0.00    +0.000 C 
ENDROOT
BRANCH   1   8
ATOM      2  C   UNL     1       0.014   9.799  22.672  0.00  0.00    +0.000 C 
ATOM      3  C   UNL     1       0.703   9.067  21.552  0.00  0.00    +0.000 A 
ATOM      4  C   UNL     1       1.077   9.710  20.436  0.00  0.00    +0.000 A 
ATOM      5  C   UNL     1       1.623   8.965  19.368  0.00  0.00    +0.000 A 
ATOM      6  N   UNL     1       1.952   9.363  18.162  0.00  0.00    +0.000 NA
ATOM      7  C   UNL     1       2.432   8.256  17.545  0.00  0.00    +0.000 A 
ATOM      8  C   UNL     1       2.436   7.153  18.382  0.00  0.00    +0.000 A 
ATOM      9  N   UNL     1       1.827   7.596  19.560  0.00  0.00    +0.000 N 
ATOM     10  C   UNL     1       1.427   7.016  20.782  0.00  0.00    +0.000 A 
ATOM     11  C   UNL     1       1.578   5.547  20.995  0.00  0.00    +0.000 C 
ATOM     12  N   UNL     1       0.882   7.714  21.742  0.00  0.00    +0.000 NA
ENDBRANCH   1   8
BRANCH   1  13
ATOM     13  N   UNL     1       4.529   5.859  18.142  0.00  0.00    +0.000 NA
ATOM     14  C   UNL     1       5.172   4.539  17.923  0.00  0.00    +0.000 C 
ATOM     15  C   UNL     1       5.241   4.007  16.462  0.00  0.00    +0.000 C 
ATOM     16  N   UNL     1       5.728   5.048  15.536  0.00  0.00    +0.000 N 
ATOM     17  C   UNL     1       5.064   6.352  15.672  0.00  0.00    +0.000 C 
ATOM     18  C   UNL     1       5.092   6.810  17.150  0.00  0.00    +0.000 C 
BRANCH  16  19
ATOM     19  C   UNL     1       6.325   4.689  14.331  0.00  0.00    +0.000 A 
ATOM     20  C   UNL     1       5.823   3.677  13.498  0.00  0.00    +0.000 A 
ATOM     21  C   UNL     1       6.366   3.413  12.233  0.00  0.00    +0.000 A 
ATOM     22  C   UNL     1       7.442   4.161  11.762  0.00  0.00    +0.000 A 
ATOM     23  C   UNL     1       7.980   5.152  12.573  0.00  0.00    +0.000 A 
ATOM     24  C   UNL     1       7.431   5.404  13.839  0.00  0.00    +0.000 A 
ENDBRANCH  16  19
ENDBRANCH   1  13
TORSDOF 3
ENDMDL
MODEL 4
REMARK VINA RESULT:      -6.7      1.318      8.498
REMARK  Name = 
REMARK  5 active torsions:
REMARK  status: ('A' for Active; 'I' for Inactive)
REMARK    1  A    between atoms: C_1  and  C_2
REMARK    2  A    between atoms: C_7  and  C_8
REMARK    3  A    between atoms: C_8  and  N_9
REMARK    4  A    between atoms: N_12  and  C_13
REMARK    5  A    between atoms: C_22  and  C_23
REMARK                            x       y       z     vdW  Elec       q    Type
REMARK                         _______ _______ _______ _____ _____    ______ ____
ROOT
ATOM      1  C   UNL     1       4.674   5.480  19.176  0.00  0.00    +0.000 C 
ENDROOT
BRANCH   1   8
ATOM      2  C   UNL     1       6.462   3.621  12.888  0.00  0.00    +0.000 C 
ATOM      3  C   UNL     1       6.192   4.158  14.267  0.00  0.00    +0.000 A 
ATOM      4  C   UNL     1       6.886   5.199  14.750  0.00  0.00    +0.000 A 
ATOM      5  C   UNL     1       6.674   5.603  16.086  0.00  0.00    +0.000 A 
ATOM      6  N   UNL     1       7.308   6.511  16.789  0.00  0.00    +0.000 NA
ATOM      7  C   UNL     1       6.703   6.502  18.002  0.00  0.00    +0.000 A 
ATOM      8  C   UNL     1       5.653   5.601  18.055  0.00  0.00    +0.000 A 
ATOM      9  N   UNL     1       5.682   4.947  16.820  0.00  0.00    +0.000 N 
ATOM     10  C   UNL     1       4.984   3.880  16.214  0.00  0.00    +0.000 A 
ATOM     11  C   UNL     1       3.961   3.122  16.990  0.00  0.00    +0.000 C 
ATOM     12  N   UNL     1       5.226   3.492  14.990  0.00  0.00    +0.000 NA
ENDBRANCH   1   8
BRANCH   1  13
ATOM     13  N   UNL     1       3.279   5.487  18.734  0.00  0.00    +0.000 NA
ATOM     14  C   UNL     1       2.291   5.295  19.825  0.00  0.00    +0.000 C 
ATOM     15  C   UNL     1       2.012   6.506  20.762  0.00  0.00    +0.000 C 
ATOM     16  N   UNL     1       1.783   7.741  19.987  0.00  0.00    +0.000 N 
ATOM     17  C   UNL     1       2.781   8.006  18.943  0.00  0.00    +0.000 C 
ATOM     18  C   UNL     1       2.948   6.759  18.040  0.00  0.00    +0.000 C 
BRANCH  16  19
ATOM     19  C   UNL     1       1.053   8.790  20.541  0.00  0.00    +0.000 A 
ATOM     20  C   UNL     1       0.412   9.769  19.767  0.00  0.00    +0.000 A 
ATOM     21  C   UNL     1      -0.418  10.746  20.336  0.00  0.00    +0.000 A 
ATOM     22  C   UNL     1      -0.629  10.770  21.712  0.00  0.00    +0.000 A 
ATOM     23  C   UNL     1       0.013   9.831  22.510  0.00  0.00    +0.000 A 
ATOM     24  C   UNL     1       0.845   8.862  21.929  0.00  0.00    +0.000 A 
ENDBRANCH  16  19
ENDBRANCH   1  13
TORSDOF 3
ENDMDL
MODEL 5
REMARK VINA RESULT:      -6.7      2.620      5.311
REMARK  Name = 
REMARK  5 active torsions:
REMARK  status: ('A' for Active; 'I' for Inactive)
REMARK    1  A    between atoms: C_1  and  C_2
REMARK    2  A    between atoms: C_7  and  C_8
REMARK    3  A    between atoms: C_8  and  N_9
REMARK    4  A    between atoms: N_12  and  C_13
REMARK    5  A    between atoms: C_22  and  C_23
REMARK                            x       y       z     vdW  Elec       q    Type
REMARK                         _______ _______ _______ _____ _____    ______ ____
ROOT
ATOM      1  C   UNL     1      -0.243   9.644  19.716  0.00  0.00    +0.000 C 
ENDROOT
BRANCH   1   8
ATOM      2  C   UNL     1      -2.020  14.527  24.097  0.00  0.00    +0.000 C 
ATOM      3  C   UNL     1      -1.670  13.561  22.998  0.00  0.00    +0.000 A 
ATOM      4  C   UNL     1      -1.797  13.908  21.709  0.00  0.00    +0.000 A 
ATOM      5  C   UNL     1      -1.559  12.936  20.712  0.00  0.00    +0.000 A 
ATOM      6  N   UNL     1      -1.726  13.022  19.414  0.00  0.00    +0.000 NA
ATOM      7  C   UNL     1      -1.344  11.814  18.930  0.00  0.00    +0.000 A 
ATOM      8  C   UNL     1      -0.900  10.968  19.932  0.00  0.00    +0.000 A 
ATOM      9  N   UNL     1      -1.117  11.675  21.118  0.00  0.00    +0.000 N 
ATOM     10  C   UNL     1      -0.986  11.414  22.499  0.00  0.00    +0.000 A 
ATOM     11  C   UNL     1      -0.572  10.059  22.966  0.00  0.00    +0.000 C 
ATOM     12  N   UNL     1      -1.254  12.313  23.408  0.00  0.00    +0.000 NA
ENDBRANCH   1   8
BRANCH   1  13
ATOM     13  N   UNL     1       1.212   9.684  19.875  0.00  0.00    +0.000 NA
ATOM     14  C   UNL     1       1.769   8.562  20.671  0.00  0.00    +0.000 C 
ATOM     15  C   UNL     1       1.872   7.171  19.981  0.00  0.00    +0.000 C 
ATOM     16  N   UNL     1       2.476   7.283  18.639  0.00  0.00    +0.000 N 
ATOM     17  C   UNL     1       1.902   8.336  17.791  0.00  0.00    +0.000 C 
ATOM     18  C   UNL     1       1.890   9.684  18.553  0.00  0.00    +0.000 C 
BRANCH  16  19
ATOM     19  C   UNL     1       3.106   6.184  18.061  0.00  0.00    +0.000 A 
ATOM     20  C   UNL     1       2.544   4.898  18.050  0.00  0.00    +0.000 A 
ATOM     21  C   UNL     1       3.134   3.831  17.358  0.00  0.00    +0.000 A 
ATOM     22  C   UNL     1       4.318   4.024  16.651  0.00  0.00    +0.000 A 
ATOM     23  C   UNL     1       4.915   5.279  16.664  0.00  0.00    +0.000 A 
ATOM     24  C   UNL     1       4.317   6.336  17.365  0.00  0.00    +0.000 A 
ENDBRANCH  16  19
ENDBRANCH   1  13
TORSDOF 3
ENDMDL
MODEL 6
REMARK VINA RESULT:      -6.6      3.537      6.235
REMARK  Name = 
REMARK  5 active torsions:
REMARK  status: ('A' for Active; 'I' for Inactive)
REMARK    1  A    between atoms: C_1  and  C_2
REMARK    2  A    between atoms: C_7  and  C_8
REMARK    3  A    between atoms: C_8  and  N_9
REMARK    4  A    between atoms: N_12  and  C_13
REMARK    5  A    between atoms: C_22  and  C_23
REMARK                            x       y       z     vdW  Elec       q    Type
REMARK                         _______ _______ _______ _____ _____    ______ ____
ROOT
ATOM      1  C   UNL     1      -0.765  10.104  18.649  0.00  0.00    +0.000 C 
ENDROOT
BRANCH   1   8
ATOM      2  C   UNL     1      -7.002  12.637  17.712  0.00  0.00    +0.000 C 
ATOM      3  C   UNL     1      -5.615  12.175  18.067  0.00  0.00    +0.000 A 
ATOM      4  C   UNL     1      -5.002  12.623  19.173  0.00  0.00    +0.000 A 
ATOM      5  C   UNL     1      -3.662  12.247  19.411  0.00  0.00    +0.000 A 
ATOM      6  N   UNL     1      -2.844  12.646  20.356  0.00  0.00    +0.000 NA
ATOM      7  C   UNL     1      -1.689  11.974  20.129  0.00  0.00    +0.000 A 
ATOM      8  C   UNL     1      -1.790  11.115  19.047  0.00  0.00    +0.000 A 
ATOM      9  N   UNL     1      -3.063  11.352  18.521  0.00  0.00    +0.000 N 
ATOM     10  C   UNL     1      -3.801  10.915  17.400  0.00  0.00    +0.000 A 
ATOM     11  C   UNL     1      -3.169  10.006  16.400  0.00  0.00    +0.000 C 
ATOM     12  N   UNL     1      -5.025  11.309  17.173  0.00  0.00    +0.000 NA
ENDBRANCH   1   8
BRANCH   1  13
ATOM     13  N   UNL     1       0.550  10.343  19.245  0.00  0.00    +0.000 NA
ATOM     14  C   UNL     1       0.927   9.373  20.304  0.00  0.00    +0.000 C 
ATOM     15  C   UNL     1       1.377   7.954  19.852  0.00  0.00    +0.000 C 
ATOM     16  N   UNL     1       2.367   8.029  18.760  0.00  0.00    +0.000 N 
ATOM     17  C   UNL     1       1.998   8.924  17.655  0.00  0.00    +0.000 C 
ATOM     18  C   UNL     1       1.614  10.319  18.207  0.00  0.00    +0.000 C 
BRANCH  16  19
ATOM     19  C   UNL     1       3.250   6.974  18.542  0.00  0.00    +0.000 A 
ATOM     20  C   UNL     1       4.151   6.940  17.467  0.00  0.00    +0.000 A 
ATOM     21  C   UNL     1       5.115   5.930  17.333  0.00  0.00    +0.000 A 
ATOM     22  C   UNL     1       5.202   4.915  18.281  0.00  0.00    +0.000 A 
ATOM     23  C   UNL     1       4.307   4.905  19.344  0.00  0.00    +0.000 A 
ATOM     24  C   UNL     1       3.344   5.918  19.464  0.00  0.00    +0.000 A 
ENDBRANCH  16  19
ENDBRANCH   1  13
TORSDOF 3
ENDMDL
MODEL 7
REMARK VINA RESULT:      -6.6      2.575     10.020
REMARK  Name = 
REMARK  5 active torsions:
REMARK  status: ('A' for Active; 'I' for Inactive)
REMARK    1  A    between atoms: C_1  and  C_2
REMARK    2  A    between atoms: C_7  and  C_8
REMARK    3  A    between atoms: C_8  and  N_9
REMARK    4  A    between atoms: N_12  and  C_13
REMARK    5  A    between atoms: C_22  and  C_23
REMARK                            x       y       z     vdW  Elec       q    Type
REMARK                         _______ _______ _______ _____ _____    ______ ____
ROOT
ATOM      1  C   UNL     1       0.522   8.429  20.754  0.00  0.00    +0.000 C 
ENDROOT
BRANCH   1   8
ATOM      2  C   UNL     1       5.289   6.323  16.390  0.00  0.00    +0.000 C 
ATOM      3  C   UNL     1       4.268   6.641  17.449  0.00  0.00    +0.000 A 
ATOM      4  C   UNL     1       4.078   5.820  18.492  0.00  0.00    +0.000 A 
ATOM      5  C   UNL     1       3.038   6.102  19.405  0.00  0.00    +0.000 A 
ATOM      6  N   UNL     1       2.609   5.391  20.420  0.00  0.00    +0.000 NA
ATOM      7  C   UNL     1       1.603   6.121  20.961  0.00  0.00    +0.000 A 
ATOM      8  C   UNL     1       1.418   7.323  20.299  0.00  0.00    +0.000 A 
ATOM      9  N   UNL     1       2.307   7.279  19.222  0.00  0.00    +0.000 N 
ATOM     10  C   UNL     1       2.602   8.094  18.109  0.00  0.00    +0.000 A 
ATOM     11  C   UNL     1       1.800   9.326  17.854  0.00  0.00    +0.000 C 
ATOM     12  N   UNL     1       3.539   7.793  17.250  0.00  0.00    +0.000 NA
ENDBRANCH   1   8
BRANCH   1  13
ATOM     13  N   UNL     1       1.203   9.426  21.581  0.00  0.00    +0.000 NA
ATOM     14  C   UNL     1       1.105  10.815  21.067  0.00  0.00    +0.000 C 
ATOM     15  C   UNL     1      -0.247  11.560  21.262  0.00  0.00    +0.000 C 
ATOM     16  N   UNL     1      -0.740  11.421  22.647  0.00  0.00    +0.000 N 
ATOM     17  C   UNL     1      -0.728  10.048  23.168  0.00  0.00    +0.000 C 
ATOM     18  C   UNL     1       0.672   9.416  22.969  0.00  0.00    +0.000 C 
BRANCH  16  19
ATOM     19  C   UNL     1      -1.618  12.363  23.175  0.00  0.00    +0.000 A 
ATOM     20  C   UNL     1      -1.276  13.712  23.356  0.00  0.00    +0.000 A 
ATOM     21  C   UNL     1      -2.210  14.670  23.774  0.00  0.00    +0.000 A 
ATOM     22  C   UNL     1      -3.528  14.299  24.029  0.00  0.00    +0.000 A 
ATOM     23  C   UNL     1      -3.893  12.966  23.886  0.00  0.00    +0.000 A 
ATOM     24  C   UNL     1      -2.947  12.016  23.472  0.00  0.00    +0.000 A 
ENDBRANCH  16  19
ENDBRANCH   1  13
TORSDOF 3
ENDMDL
MODEL 8
REMARK VINA RESULT:      -6.5      3.714      6.262
REMARK  Name = 
REMARK  5 active torsions:
REMARK  status: ('A' for Active; 'I' for Inactive)
REMARK    1  A    between atoms: C_1  and  C_2
REMARK    2  A    between atoms: C_7  and  C_8
REMARK    3  A    between atoms: C_8  and  N_9
REMARK    4  A    between atoms: N_12  and  C_13
REMARK    5  A    between atoms: C_22  and  C_23
REMARK                            x       y       z     vdW  Elec       q    Type
REMARK                         _______ _______ _______ _____ _____    ______ ____
ROOT
ATOM      1  C   UNL     1      -0.182  10.182  18.402  0.00  0.00    +0.000 C 
ENDROOT
BRANCH   1   8
ATOM      2  C   UNL     1      -6.537  12.518  18.991  0.00  0.00    +0.000 C 
ATOM      3  C   UNL     1      -5.088  12.115  18.990  0.00  0.00    +0.000 A 
ATOM      4  C   UNL     1      -4.214  12.681  19.837  0.00  0.00    +0.000 A 
ATOM      5  C   UNL     1      -2.846  12.350  19.730  0.00  0.00    +0.000 A 
ATOM      6  N   UNL     1      -1.818  12.855  20.370  0.00  0.00    +0.000 NA
ATOM      7  C   UNL     1      -0.742  12.179  19.897  0.00  0.00    +0.000 A 
ATOM      8  C   UNL     1      -1.100  11.214  18.970  0.00  0.00    +0.000 A 
ATOM      9  N   UNL     1      -2.477  11.378  18.796  0.00  0.00    +0.000 N 
ATOM     10  C   UNL     1      -3.474  10.819  17.970  0.00  0.00    +0.000 A 
ATOM     11  C   UNL     1      -3.103   9.822  16.924  0.00  0.00    +0.000 C 
ATOM     12  N   UNL     1      -4.730  11.170  18.053  0.00  0.00    +0.000 NA
ENDBRANCH   1   8
BRANCH   1  13
ATOM     13  N   UNL     1       1.165  10.223  18.973  0.00  0.00    +0.000 NA
ATOM     14  C   UNL     1       1.281   9.589  20.310  0.00  0.00    +0.000 C 
ATOM     15  C   UNL     1       1.291   8.034  20.369  0.00  0.00    +0.000 C 
ATOM     16  N   UNL     1       2.226   7.466  19.379  0.00  0.00    +0.000 N 
ATOM     17  C   UNL     1       2.094   8.016  18.023  0.00  0.00    +0.000 C 
ATOM     18  C   UNL     1       2.144   9.563  18.070  0.00  0.00    +0.000 C 
BRANCH  16  19
ATOM     19  C   UNL     1       2.762   6.195  19.570  0.00  0.00    +0.000 A 
ATOM     20  C   UNL     1       2.162   5.226  20.388  0.00  0.00    +0.000 A 
ATOM     21  C   UNL     1       2.650   3.914  20.472  0.00  0.00    +0.000 A 
ATOM     22  C   UNL     1       3.766   3.533  19.732  0.00  0.00    +0.000 A 
ATOM     23  C   UNL     1       4.400   4.476  18.933  0.00  0.00    +0.000 A 
ATOM     24  C   UNL     1       3.906   5.787  18.862  0.00  0.00    +0.000 A 
ENDBRANCH  16  19
ENDBRANCH   1  13
TORSDOF 3
ENDMDL
MODEL 9
REMARK VINA RESULT:      -6.4      3.186      5.679
REMARK  Name = 
REMARK  5 active torsions:
REMARK  status: ('A' for Active; 'I' for Inactive)
REMARK    1  A    between atoms: C_1  and  C_2
REMARK    2  A    between atoms: C_7  and  C_8
REMARK    3  A    between atoms: C_8  and  N_9
REMARK    4  A    between atoms: N_12  and  C_13
REMARK    5  A    between atoms: C_22  and  C_23
REMARK                            x       y       z     vdW  Elec       q    Type
REMARK                         _______ _______ _______ _____ _____    ______ ____
ROOT
ATOM      1  C   UNL     1      -0.416   9.906  18.795  0.00  0.00    +0.000 C 
ENDROOT
BRANCH   1   8
ATOM      2  C   UNL     1      -6.556  12.795  18.409  0.00  0.00    +0.000 C 
ATOM      3  C   UNL     1      -5.169  12.258  18.637  0.00  0.00    +0.000 A 
ATOM      4  C   UNL     1      -4.418  12.699  19.658  0.00  0.00    +0.000 A 
ATOM      5  C   UNL     1      -3.085  12.247  19.772  0.00  0.00    +0.000 A 
ATOM      6  N   UNL     1      -2.152  12.622  20.614  0.00  0.00    +0.000 NA
ATOM      7  C   UNL     1      -1.068  11.873  20.294  0.00  0.00    +0.000 A 
ATOM      8  C   UNL     1      -1.332  10.990  19.259  0.00  0.00    +0.000 A 
ATOM      9  N   UNL     1      -2.636  11.291  18.857  0.00  0.00    +0.000 N 
ATOM     10  C   UNL     1      -3.511  10.868  17.834  0.00  0.00    +0.000 A 
ATOM     11  C   UNL     1      -3.042   9.892  16.808  0.00  0.00    +0.000 C 
ATOM     12  N   UNL     1      -4.728  11.331  17.719  0.00  0.00    +0.000 NA
ENDBRANCH   1   8
BRANCH   1  13
ATOM     13  N   UNL     1       0.955  10.052  19.287  0.00  0.00    +0.000 NA
ATOM     14  C   UNL     1       1.368   9.012  20.262  0.00  0.00    +0.000 C 
ATOM     15  C   UNL     1       1.707   7.599  19.705  0.00  0.00    +0.000 C 
ATOM     16  N   UNL     1       2.605   7.685  18.538  0.00  0.00    +0.000 N 
ATOM     17  C   UNL     1       2.192   8.653  17.513  0.00  0.00    +0.000 C 
ATOM     18  C   UNL     1       1.927  10.033  18.163  0.00  0.00    +0.000 C 
BRANCH  16  19
ATOM     19  C   UNL     1       3.413   6.603  18.194  0.00  0.00    +0.000 A 
ATOM     20  C   UNL     1       3.189   5.300  18.665  0.00  0.00    +0.000 A 
ATOM     21  C   UNL     1       3.937   4.204  18.213  0.00  0.00    +0.000 A 
ATOM     22  C   UNL     1       4.943   4.385  17.267  0.00  0.00    +0.000 A 
ATOM     23  C   UNL     1       5.208   5.666  16.801  0.00  0.00    +0.000 A 
ATOM     24  C   UNL     1       4.456   6.756  17.265  0.00  0.00    +0.000 A 
ENDBRANCH  16  19
ENDBRANCH   1  13
TORSDOF 3
ENDMDL
