MODEL 1
REMARK VINA RESULT:      -7.8      0.000      0.000
REMARK  Name = 
REMARK  9 active torsions:
REMARK  status: ('A' for Active; 'I' for Inactive)
REMARK    1  A    between atoms: C_1  and  C_2
REMARK    2  A    between atoms: C_2  and  C_3
REMARK    3  A    between atoms: C_6  and  O_7
REMARK    4  A    between atoms: O_7  and  C_8
REMARK    5  A    between atoms: C_8  and  C_9
REMARK    6  A    between atoms: C_9  and  O_11
REMARK    7  A    between atoms: C_12  and  C_13
REMARK    8  A    between atoms: C_16  and  S_17
REMARK    9  A    between atoms: S_17  and  C_18
REMARK                            x       y       z     vdW  Elec       q    Type
REMARK                         _______ _______ _______ _____ _____    ______ ____
ROOT
ATOM      1  C   UNL     1       6.325   4.145  13.740  0.00  0.00    +0.000 A 
ATOM      2  C   UNL     1       7.424   4.942  14.043  0.00  0.00    +0.000 A 
ATOM      3  C   UNL     1       7.470   5.622  15.260  0.00  0.00    +0.000 A 
ATOM      4  C   UNL     1       6.426   5.537  16.204  0.00  0.00    +0.000 A 
ATOM      5  C   UNL     1       5.322   4.683  15.950  0.00  0.00    +0.000 A 
ATOM      6  C   UNL     1       5.300   4.026  14.689  0.00  0.00    +0.000 A 
ENDROOT
BRANCH   5   7
ATOM      7  C   UNL     1       4.212   4.375  16.892  0.00  0.00    +0.000 A 
ATOM      8  C   UNL     1       3.419   5.391  17.466  0.00  0.00    +0.000 A 
ATOM      9  C   UNL     1       2.434   5.108  18.420  0.00  0.00    +0.000 A 
ATOM     10  C   UNL     1       2.243   3.789  18.824  0.00  0.00    +0.000 A 
ATOM     11  C   UNL     1       2.988   2.759  18.259  0.00  0.00    +0.000 A 
ATOM     12  C   UNL     1       3.912   3.049  17.256  0.00  0.00    +0.000 A 
BRANCH  10  13
ATOM     13  S   UNL     1       1.037   3.403  20.080  0.00  0.00    +0.000 S 
ATOM     14  C   UNL     1       2.032   2.629  21.322  0.00  0.00    +0.000 C 
ATOM     15  O   UNL     1       0.551   4.664  20.607  0.00  0.00    +0.000 OA
ATOM     16  O   UNL     1       0.136   2.419  19.536  0.00  0.00    +0.000 OA
ENDBRANCH  10  13
ENDBRANCH   5   7
BRANCH   1  18
ATOM     17  C   UNL     1       4.859   3.349  11.874  0.00  0.00    +0.000 C 
ATOM     18  C   UNL     1       6.267   3.363  12.453  0.00  0.00    +0.000 C 
ENDBRANCH   1  18
BRANCH   4  19
ATOM     19  O   UNL     1       6.702   6.330  17.295  0.00  0.00    +0.000 OA
BRANCH  19  20
ATOM     20  C   UNL     1       7.737   5.970  18.204  0.00  0.00    +0.000 C 
BRANCH  20  21
ATOM     21  C   UNL     1       7.215   5.471  19.540  0.00  0.00    +0.000 C 
ATOM     22  O   UNL     1       6.087   5.017  19.697  0.00  0.00    +0.000 OA
BRANCH  21  23
ATOM     23  O   UNL     1       8.106   5.566  20.547  0.00  0.00    +0.000 OA
ATOM     24  H   UNL     1       7.901   6.358  21.096  0.00  0.00    +0.000 HD
ENDBRANCH  21  23
ENDBRANCH  20  21
ENDBRANCH  19  20
ENDBRANCH   4  19
TORSDOF 7
ENDMDL
MODEL 2
REMARK VINA RESULT:      -7.8      1.150      1.343
REMARK  Name = 
REMARK  9 active torsions:
REMARK  status: ('A' for Active; 'I' for Inactive)
REMARK    1  A    between atoms: C_1  and  C_2
REMARK    2  A    between atoms: C_2  and  C_3
REMARK    3  A    between atoms: C_6  and  O_7
REMARK    4  A    between atoms: O_7  and  C_8
REMARK    5  A    between atoms: C_8  and  C_9
REMARK    6  A    between atoms: C_9  and  O_11
REMARK    7  A    between atoms: C_12  and  C_13
REMARK    8  A    between atoms: C_16  and  S_17
REMARK    9  A    between atoms: S_17  and  C_18
REMARK                            x       y       z     vdW  Elec       q    Type
REMARK                         _______ _______ _______ _____ _____    ______ ____
ROOT
ATOM      1  C   UNL     1       6.030   3.812  13.159  0.00  0.00    +0.000 A 
ATOM      2  C   UNL     1       7.273   4.421  13.284  0.00  0.00    +0.000 A 
ATOM      3  C   UNL     1       7.629   5.028  14.488  0.00  0.00    +0.000 A 
ATOM      4  C   UNL     1       6.759   5.053  15.598  0.00  0.00    +0.000 A 
ATOM      5  C   UNL     1       5.509   4.385  15.522  0.00  0.00    +0.000 A 
ATOM      6  C   UNL     1       5.174   3.800  14.270  0.00  0.00    +0.000 A 
ENDROOT
BRANCH   5   7
ATOM      7  C   UNL     1       4.540   4.199  16.636  0.00  0.00    +0.000 A 
ATOM      8  C   UNL     1       3.920   5.294  17.273  0.00  0.00    +0.000 A 
ATOM      9  C   UNL     1       3.078   5.125  18.379  0.00  0.00    +0.000 A 
ATOM     10  C   UNL     1       2.860   3.841  18.871  0.00  0.00    +0.000 A 
ATOM     11  C   UNL     1       3.433   2.736  18.252  0.00  0.00    +0.000 A 
ATOM     12  C   UNL     1       4.208   2.915  17.106  0.00  0.00    +0.000 A 
BRANCH  10  13
ATOM     13  S   UNL     1       1.840   3.598  20.314  0.00  0.00    +0.000 S 
ATOM     14  C   UNL     1       1.570   5.260  20.860  0.00  0.00    +0.000 C 
ATOM     15  O   UNL     1       0.574   3.059  19.856  0.00  0.00    +0.000 OA
ATOM     16  O   UNL     1       2.633   2.914  21.304  0.00  0.00    +0.000 OA
ENDBRANCH  10  13
ENDBRANCH   5   7
BRANCH   1  18
ATOM     17  C   UNL     1       4.173   3.362  11.541  0.00  0.00    +0.000 C 
ATOM     18  C   UNL     1       5.635   3.110  11.885  0.00  0.00    +0.000 C 
ENDBRANCH   1  18
BRANCH   4  19
ATOM     19  O   UNL     1       7.335   5.743  16.641  0.00  0.00    +0.000 OA
BRANCH  19  20
ATOM     20  C   UNL     1       7.570   5.098  17.888  0.00  0.00    +0.000 C 
BRANCH  20  21
ATOM     21  C   UNL     1       7.954   6.061  18.999  0.00  0.00    +0.000 C 
ATOM     22  O   UNL     1       8.321   7.212  18.795  0.00  0.00    +0.000 OA
BRANCH  21  23
ATOM     23  O   UNL     1       7.849   5.539  20.237  0.00  0.00    +0.000 OA
ATOM     24  H   UNL     1       7.922   6.259  20.905  0.00  0.00    +0.000 HD
ENDBRANCH  21  23
ENDBRANCH  20  21
ENDBRANCH  19  20
ENDBRANCH   4  19
TORSDOF 7
ENDMDL
MODEL 3
REMARK VINA RESULT:      -7.8      0.933      1.532
REMARK  Name = 
REMARK  9 active torsions:
REMARK  status: ('A' for Active; 'I' for Inactive)
REMARK    1  A    between atoms: C_1  and  C_2
REMARK    2  A    between atoms: C_2  and  C_3
REMARK    3  A    between atoms: C_6  and  O_7
REMARK    4  A    between atoms: O_7  and  C_8
REMARK    5  A    between atoms: C_8  and  C_9
REMARK    6  A    between atoms: C_9  and  O_11
REMARK    7  A    between atoms: C_12  and  C_13
REMARK    8  A    between atoms: C_16  and  S_17
REMARK    9  A    between atoms: S_17  and  C_18
REMARK                            x       y       z     vdW  Elec       q    Type
REMARK                         _______ _______ _______ _____ _____    ______ ____
ROOT
ATOM      1  C   UNL     1       5.586   3.835  13.072  0.00  0.00    +0.000 A 
ATOM      2  C   UNL     1       6.907   4.271  13.072  0.00  0.00    +0.000 A 
ATOM      3  C   UNL     1       7.467   4.780  14.243  0.00  0.00    +0.000 A 
ATOM      4  C   UNL     1       6.732   4.878  15.442  0.00  0.00    +0.000 A 
ATOM      5  C   UNL     1       5.403   4.384  15.490  0.00  0.00    +0.000 A 
ATOM      6  C   UNL     1       4.860   3.894  14.270  0.00  0.00    +0.000 A 
ENDROOT
BRANCH   5   7
ATOM      7  C   UNL     1       4.543   4.285  16.700  0.00  0.00    +0.000 A 
ATOM      8  C   UNL     1       4.230   3.043  17.292  0.00  0.00    +0.000 A 
ATOM      9  C   UNL     1       3.349   2.943  18.376  0.00  0.00    +0.000 A 
ATOM     10  C   UNL     1       2.755   4.100  18.872  0.00  0.00    +0.000 A 
ATOM     11  C   UNL     1       3.061   5.343  18.332  0.00  0.00    +0.000 A 
ATOM     12  C   UNL     1       3.998   5.434  17.302  0.00  0.00    +0.000 A 
BRANCH  10  13
ATOM     13  S   UNL     1       1.584   3.999  20.214  0.00  0.00    +0.000 S 
ATOM     14  C   UNL     1       2.482   3.059  21.417  0.00  0.00    +0.000 C 
ATOM     15  O   UNL     1       1.406   5.343  20.729  0.00  0.00    +0.000 OA
ATOM     16  O   UNL     1       0.464   3.212  19.762  0.00  0.00    +0.000 OA
ENDBRANCH  10  13
ENDBRANCH   5   7
BRANCH   1  18
ATOM     17  C   UNL     1       5.683   1.964  11.412  0.00  0.00    +0.000 C 
ATOM     18  C   UNL     1       4.967   3.239  11.834  0.00  0.00    +0.000 C 
ENDBRANCH   1  18
BRANCH   4  19
ATOM     19  O   UNL     1       7.504   5.447  16.431  0.00  0.00    +0.000 OA
BRANCH  19  20
ATOM     20  C   UNL     1       7.692   4.777  17.673  0.00  0.00    +0.000 C 
BRANCH  20  21
ATOM     21  C   UNL     1       7.588   5.701  18.874  0.00  0.00    +0.000 C 
ATOM     22  O   UNL     1       8.224   6.743  18.980  0.00  0.00    +0.000 OA
BRANCH  21  23
ATOM     23  O   UNL     1       6.725   5.276  19.818  0.00  0.00    +0.000 OA
ATOM     24  H   UNL     1       6.104   4.619  19.426  0.00  0.00    +0.000 HD
ENDBRANCH  21  23
ENDBRANCH  20  21
ENDBRANCH  19  20
ENDBRANCH   4  19
TORSDOF 7
ENDMDL
MODEL 4
REMARK VINA RESULT:      -7.7      0.957      1.040
REMARK  Name = 
REMARK  9 active torsions:
REMARK  status: ('A' for Active; 'I' for Inactive)
REMARK    1  A    between atoms: C_1  and  C_2
REMARK    2  A    between atoms: C_2  and  C_3
REMARK    3  A    between atoms: C_6  and  O_7
REMARK    4  A    between atoms: O_7  and  C_8
REMARK    5  A    between atoms: C_8  and  C_9
REMARK    6  A    between atoms: C_9  and  O_11
REMARK    7  A    between atoms: C_12  and  C_13
REMARK    8  A    between atoms: C_16  and  S_17
REMARK    9  A    between atoms: S_17  and  C_18
REMARK                            x       y       z     vdW  Elec       q    Type
REMARK                         _______ _______ _______ _____ _____    ______ ____
ROOT
ATOM      1  C   UNL     1       5.697   3.879  13.141  0.00  0.00    +0.000 A 
ATOM      2  C   UNL     1       7.031   4.259  13.238  0.00  0.00    +0.000 A 
ATOM      3  C   UNL     1       7.514   4.788  14.435  0.00  0.00    +0.000 A 
ATOM      4  C   UNL     1       6.687   4.959  15.564  0.00  0.00    +0.000 A 
ATOM      5  C   UNL     1       5.337   4.522  15.515  0.00  0.00    +0.000 A 
ATOM      6  C   UNL     1       4.877   4.011  14.271  0.00  0.00    +0.000 A 
ENDROOT
BRANCH   5   7
ATOM      7  C   UNL     1       4.376   4.503  16.651  0.00  0.00    +0.000 A 
ATOM      8  C   UNL     1       4.033   5.676  17.356  0.00  0.00    +0.000 A 
ATOM      9  C   UNL     1       3.198   5.645  18.479  0.00  0.00    +0.000 A 
ATOM     10  C   UNL     1       2.707   4.420  18.922  0.00  0.00    +0.000 A 
ATOM     11  C   UNL     1       3.002   3.247  18.236  0.00  0.00    +0.000 A 
ATOM     12  C   UNL     1       3.772   3.304  17.075  0.00  0.00    +0.000 A 
BRANCH  10  13
ATOM     13  S   UNL     1       1.689   4.340  20.384  0.00  0.00    +0.000 S 
ATOM     14  C   UNL     1       2.635   3.275  21.435  0.00  0.00    +0.000 C 
ATOM     15  O   UNL     1       1.680   5.666  20.971  0.00  0.00    +0.000 OA
ATOM     16  O   UNL     1       0.465   3.665  20.032  0.00  0.00    +0.000 OA
ENDBRANCH  10  13
ENDBRANCH   5   7
BRANCH   1  18
ATOM     17  C   UNL     1       5.864   1.957  11.545  0.00  0.00    +0.000 C 
ATOM     18  C   UNL     1       5.157   3.265  11.875  0.00  0.00    +0.000 C 
ENDBRANCH   1  18
BRANCH   4  19
ATOM     19  O   UNL     1       7.397   5.531  16.596  0.00  0.00    +0.000 OA
BRANCH  19  20
ATOM     20  C   UNL     1       7.707   4.777  17.763  0.00  0.00    +0.000 C 
BRANCH  20  21
ATOM     21  C   UNL     1       7.481   5.547  19.052  0.00  0.00    +0.000 C 
ATOM     22  O   UNL     1       6.564   5.309  19.829  0.00  0.00    +0.000 OA
BRANCH  21  23
ATOM     23  O   UNL     1       8.388   6.519  19.275  0.00  0.00    +0.000 OA
ATOM     24  H   UNL     1       8.777   6.811  18.418  0.00  0.00    +0.000 HD
ENDBRANCH  21  23
ENDBRANCH  20  21
ENDBRANCH  19  20
ENDBRANCH   4  19
TORSDOF 7
ENDMDL
MODEL 5
REMARK VINA RESULT:      -7.6      3.496      5.584
REMARK  Name = 
REMARK  9 active torsions:
REMARK  status: ('A' for Active; 'I' for Inactive)
REMARK    1  A    between atoms: C_1  and  C_2
REMARK    2  A    between atoms: C_2  and  C_3
REMARK    3  A    between atoms: C_6  and  O_7
REMARK    4  A    between atoms: O_7  and  C_8
REMARK    5  A    between atoms: C_8  and  C_9
REMARK    6  A    between atoms: C_9  and  O_11
REMARK    7  A    between atoms: C_12  and  C_13
REMARK    8  A    between atoms: C_16  and  S_17
REMARK    9  A    between atoms: S_17  and  C_18
REMARK                            x       y       z     vdW  Elec       q    Type
REMARK                         _______ _______ _______ _____ _____    ______ ____
ROOT
ATOM      1  C   UNL     1       5.753   5.423  17.320  0.00  0.00    +0.000 A 
ATOM      2  C   UNL     1       5.286   4.219  16.803  0.00  0.00    +0.000 A 
ATOM      3  C   UNL     1       3.946   3.870  16.967  0.00  0.00    +0.000 A 
ATOM      4  C   UNL     1       3.035   4.699  17.653  0.00  0.00    +0.000 A 
ATOM      5  C   UNL     1       3.468   5.962  18.136  0.00  0.00    +0.000 A 
ATOM      6  C   UNL     1       4.846   6.271  17.971  0.00  0.00    +0.000 A 
ENDROOT
BRANCH   5   7
ATOM      7  C   UNL     1       2.610   7.009  18.756  0.00  0.00    +0.000 A 
ATOM      8  C   UNL     1       2.257   8.187  18.064  0.00  0.00    +0.000 A 
ATOM      9  C   UNL     1       1.526   9.211  18.676  0.00  0.00    +0.000 A 
ATOM     10  C   UNL     1       1.150   9.069  20.009  0.00  0.00    +0.000 A 
ATOM     11  C   UNL     1       1.457   7.911  20.714  0.00  0.00    +0.000 A 
ATOM     12  C   UNL     1       2.120   6.868  20.067  0.00  0.00    +0.000 A 
BRANCH  10  13
ATOM     13  S   UNL     1       0.268  10.382  20.835  0.00  0.00    +0.000 S 
ATOM     14  C   UNL     1      -0.282   9.583  22.315  0.00  0.00    +0.000 C 
ATOM     15  O   UNL     1       1.245  11.390  21.199  0.00  0.00    +0.000 OA
ATOM     16  O   UNL     1      -0.886  10.707  20.035  0.00  0.00    +0.000 OA
ENDBRANCH  10  13
ENDBRANCH   5   7
BRANCH   1  18
ATOM     17  C   UNL     1       7.382   7.319  17.460  0.00  0.00    +0.000 C 
ATOM     18  C   UNL     1       7.185   5.848  17.120  0.00  0.00    +0.000 C 
ENDBRANCH   1  18
BRANCH   4  19
ATOM     19  O   UNL     1       1.794   4.107  17.706  0.00  0.00    +0.000 OA
BRANCH  19  20
ATOM     20  C   UNL     1       1.628   2.834  18.321  0.00  0.00    +0.000 C 
BRANCH  20  21
ATOM     21  C   UNL     1       1.618   2.898  19.839  0.00  0.00    +0.000 C 
ATOM     22  O   UNL     1       2.590   2.623  20.532  0.00  0.00    +0.000 OA
BRANCH  21  23
ATOM     23  O   UNL     1       0.440   3.293  20.362  0.00  0.00    +0.000 OA
ATOM     24  H   UNL     1       0.590   4.045  20.981  0.00  0.00    +0.000 HD
ENDBRANCH  21  23
ENDBRANCH  20  21
ENDBRANCH  19  20
ENDBRANCH   4  19
TORSDOF 7
ENDMDL
MODEL 6
REMARK VINA RESULT:      -7.6      3.403      5.473
REMARK  Name = 
REMARK  9 active torsions:
REMARK  status: ('A' for Active; 'I' for Inactive)
REMARK    1  A    between atoms: C_1  and  C_2
REMARK    2  A    between atoms: C_2  and  C_3
REMARK    3  A    between atoms: C_6  and  O_7
REMARK    4  A    between atoms: O_7  and  C_8
REMARK    5  A    between atoms: C_8  and  C_9
REMARK    6  A    between atoms: C_9  and  O_11
REMARK    7  A    between atoms: C_12  and  C_13
REMARK    8  A    between atoms: C_16  and  S_17
REMARK    9  A    between atoms: S_17  and  C_18
REMARK                            x       y       z     vdW  Elec       q    Type
REMARK                         _______ _______ _______ _____ _____    ______ ____
ROOT
ATOM      1  C   UNL     1       5.189   5.049  16.204  0.00  0.00    +0.000 A 
ATOM      2  C   UNL     1       4.816   3.731  16.439  0.00  0.00    +0.000 A 
ATOM      3  C   UNL     1       3.826   3.449  17.380  0.00  0.00    +0.000 A 
ATOM      4  C   UNL     1       3.185   4.465  18.118  0.00  0.00    +0.000 A 
ATOM      5  C   UNL     1       3.499   5.824  17.855  0.00  0.00    +0.000 A 
ATOM      6  C   UNL     1       4.530   6.069  16.907  0.00  0.00    +0.000 A 
ENDROOT
BRANCH   5   7
ATOM      7  C   UNL     1       2.824   7.013  18.441  0.00  0.00    +0.000 A 
ATOM      8  C   UNL     1       2.390   7.037  19.783  0.00  0.00    +0.000 A 
ATOM      9  C   UNL     1       1.675   8.120  20.309  0.00  0.00    +0.000 A 
ATOM     10  C   UNL     1       1.372   9.196  19.479  0.00  0.00    +0.000 A 
ATOM     11  C   UNL     1       1.807   9.219  18.159  0.00  0.00    +0.000 A 
ATOM     12  C   UNL     1       2.582   8.167  17.672  0.00  0.00    +0.000 A 
BRANCH  10  13
ATOM     13  S   UNL     1       0.413  10.565  20.103  0.00  0.00    +0.000 S 
ATOM     14  C   UNL     1       1.037  11.918  19.150  0.00  0.00    +0.000 C 
ATOM     15  O   UNL     1      -0.965  10.333  19.715  0.00  0.00    +0.000 OA
ATOM     16  O   UNL     1       0.782  10.767  21.482  0.00  0.00    +0.000 OA
ENDBRANCH  10  13
ENDBRANCH   5   7
BRANCH   1  18
ATOM     17  C   UNL     1       6.319   4.303  14.099  0.00  0.00    +0.000 C 
ATOM     18  C   UNL     1       6.223   5.388  15.162  0.00  0.00    +0.000 C 
ENDBRANCH   1  18
BRANCH   4  19
ATOM     19  O   UNL     1       2.281   3.918  19.001  0.00  0.00    +0.000 OA
BRANCH  19  20
ATOM     20  C   UNL     1       2.711   3.446  20.273  0.00  0.00    +0.000 C 
BRANCH  20  21
ATOM     21  C   UNL     1       1.572   2.948  21.145  0.00  0.00    +0.000 C 
ATOM     22  O   UNL     1       1.733   2.498  22.274  0.00  0.00    +0.000 OA
BRANCH  21  23
ATOM     23  O   UNL     1       0.358   3.048  20.569  0.00  0.00    +0.000 OA
ATOM     24  H   UNL     1       0.430   3.566  19.735  0.00  0.00    +0.000 HD
ENDBRANCH  21  23
ENDBRANCH  20  21
ENDBRANCH  19  20
ENDBRANCH   4  19
TORSDOF 7
ENDMDL
MODEL 7
REMARK VINA RESULT:      -7.6      3.415      5.351
REMARK  Name = 
REMARK  9 active torsions:
REMARK  status: ('A' for Active; 'I' for Inactive)
REMARK    1  A    between atoms: C_1  and  C_2
REMARK    2  A    between atoms: C_2  and  C_3
REMARK    3  A    between atoms: C_6  and  O_7
REMARK    4  A    between atoms: O_7  and  C_8
REMARK    5  A    between atoms: C_8  and  C_9
REMARK    6  A    between atoms: C_9  and  O_11
REMARK    7  A    between atoms: C_12  and  C_13
REMARK    8  A    between atoms: C_16  and  S_17
REMARK    9  A    between atoms: S_17  and  C_18
REMARK                            x       y       z     vdW  Elec       q    Type
REMARK                         _______ _______ _______ _____ _____    ______ ____
ROOT
ATOM      1  C   UNL     1       5.357   5.156  16.303  0.00  0.00    +0.000 A 
ATOM      2  C   UNL     1       4.991   3.824  16.468  0.00  0.00    +0.000 A 
ATOM      3  C   UNL     1       3.946   3.496  17.331  0.00  0.00    +0.000 A 
ATOM      4  C   UNL     1       3.240   4.476  18.057  0.00  0.00    +0.000 A 
ATOM      5  C   UNL     1       3.548   5.848  17.862  0.00  0.00    +0.000 A 
ATOM      6  C   UNL     1       4.635   6.140  16.993  0.00  0.00    +0.000 A 
ENDROOT
BRANCH   5   7
ATOM      7  C   UNL     1       2.814   7.006  18.440  0.00  0.00    +0.000 A 
ATOM      8  C   UNL     1       2.386   7.020  19.784  0.00  0.00    +0.000 A 
ATOM      9  C   UNL     1       1.619   8.070  20.304  0.00  0.00    +0.000 A 
ATOM     10  C   UNL     1       1.257   9.121  19.466  0.00  0.00    +0.000 A 
ATOM     11  C   UNL     1       1.684   9.154  18.143  0.00  0.00    +0.000 A 
ATOM     12  C   UNL     1       2.510   8.139  17.662  0.00  0.00    +0.000 A 
BRANCH  10  13
ATOM     13  S   UNL     1       0.231  10.444  20.083  0.00  0.00    +0.000 S 
ATOM     14  C   UNL     1       0.025   9.989  21.781  0.00  0.00    +0.000 C 
ATOM     15  O   UNL     1       1.023  11.658  20.030  0.00  0.00    +0.000 OA
ATOM     16  O   UNL     1      -1.048  10.351  19.426  0.00  0.00    +0.000 OA
ENDBRANCH  10  13
ENDBRANCH   5   7
BRANCH   1  18
ATOM     17  C   UNL     1       6.598   4.528  14.221  0.00  0.00    +0.000 C 
ATOM     18  C   UNL     1       6.452   5.546  15.344  0.00  0.00    +0.000 C 
ENDBRANCH   1  18
BRANCH   4  19
ATOM     19  O   UNL     1       2.289   3.886  18.859  0.00  0.00    +0.000 OA
BRANCH  19  20
ATOM     20  C   UNL     1       2.676   3.153  20.016  0.00  0.00    +0.000 C 
BRANCH  20  21
ATOM     21  C   UNL     1       1.537   2.936  20.997  0.00  0.00    +0.000 C 
ATOM     22  O   UNL     1       1.707   2.631  22.172  0.00  0.00    +0.000 OA
BRANCH  21  23
ATOM     23  O   UNL     1       0.312   3.116  20.464  0.00  0.00    +0.000 OA
ATOM     24  H   UNL     1       0.100   2.363  19.864  0.00  0.00    +0.000 HD
ENDBRANCH  21  23
ENDBRANCH  20  21
ENDBRANCH  19  20
ENDBRANCH   4  19
TORSDOF 7
ENDMDL
MODEL 8
REMARK VINA RESULT:      -7.6      3.672      5.863
REMARK  Name = 
REMARK  9 active torsions:
REMARK  status: ('A' for Active; 'I' for Inactive)
REMARK    1  A    between atoms: C_1  and  C_2
REMARK    2  A    between atoms: C_2  and  C_3
REMARK    3  A    between atoms: C_6  and  O_7
REMARK    4  A    between atoms: O_7  and  C_8
REMARK    5  A    between atoms: C_8  and  C_9
REMARK    6  A    between atoms: C_9  and  O_11
REMARK    7  A    between atoms: C_12  and  C_13
REMARK    8  A    between atoms: C_16  and  S_17
REMARK    9  A    between atoms: S_17  and  C_18
REMARK                            x       y       z     vdW  Elec       q    Type
REMARK                         _______ _______ _______ _____ _____    ______ ____
ROOT
ATOM      1  C   UNL     1       5.565   5.517  17.073  0.00  0.00    +0.000 A 
ATOM      2  C   UNL     1       5.052   4.263  16.760  0.00  0.00    +0.000 A 
ATOM      3  C   UNL     1       3.726   3.961  17.069  0.00  0.00    +0.000 A 
ATOM      4  C   UNL     1       2.875   4.891  17.703  0.00  0.00    +0.000 A 
ATOM      5  C   UNL     1       3.351   6.199  17.977  0.00  0.00    +0.000 A 
ATOM      6  C   UNL     1       4.715   6.460  17.669  0.00  0.00    +0.000 A 
ENDROOT
BRANCH   5   7
ATOM      7  C   UNL     1       2.550   7.334  18.511  0.00  0.00    +0.000 A 
ATOM      8  C   UNL     1       2.251   8.468  17.726  0.00  0.00    +0.000 A 
ATOM      9  C   UNL     1       1.574   9.574  18.255  0.00  0.00    +0.000 A 
ATOM     10  C   UNL     1       1.201   9.559  19.596  0.00  0.00    +0.000 A 
ATOM     11  C   UNL     1       1.455   8.448  20.392  0.00  0.00    +0.000 A 
ATOM     12  C   UNL     1       2.062   7.324  19.831  0.00  0.00    +0.000 A 
BRANCH  10  13
ATOM     13  S   UNL     1       0.389  10.976  20.314  0.00  0.00    +0.000 S 
ATOM     14  C   UNL     1       0.326  12.097  18.946  0.00  0.00    +0.000 C 
ATOM     15  O   UNL     1      -0.967  10.575  20.635  0.00  0.00    +0.000 OA
ATOM     16  O   UNL     1       1.268  11.525  21.316  0.00  0.00    +0.000 OA
ENDBRANCH  10  13
ENDBRANCH   5   7
BRANCH   1  18
ATOM     17  C   UNL     1       7.434   7.138  17.451  0.00  0.00    +0.000 C 
ATOM     18  C   UNL     1       6.980   5.888  16.712  0.00  0.00    +0.000 C 
ENDBRANCH   1  18
BRANCH   4  19
ATOM     19  O   UNL     1       1.638   4.331  17.927  0.00  0.00    +0.000 OA
BRANCH  19  20
ATOM     20  C   UNL     1       1.527   2.998  18.413  0.00  0.00    +0.000 C 
BRANCH  20  21
ATOM     21  C   UNL     1       1.642   2.898  19.924  0.00  0.00    +0.000 C 
ATOM     22  O   UNL     1       2.666   2.549  20.500  0.00  0.00    +0.000 OA
BRANCH  21  23
ATOM     23  O   UNL     1       0.516   3.234  20.583  0.00  0.00    +0.000 OA
ATOM     24  H   UNL     1      -0.257   3.159  19.976  0.00  0.00    +0.000 HD
ENDBRANCH  21  23
ENDBRANCH  20  21
ENDBRANCH  19  20
ENDBRANCH   4  19
TORSDOF 7
ENDMDL
MODEL 9
REMARK VINA RESULT:      -7.5      3.511      5.752
REMARK  Name = 
REMARK  9 active torsions:
REMARK  status: ('A' for Active; 'I' for Inactive)
REMARK    1  A    between atoms: C_1  and  C_2
REMARK    2  A    between atoms: C_2  and  C_3
REMARK    3  A    between atoms: C_6  and  O_7
REMARK    4  A    between atoms: O_7  and  C_8
REMARK    5  A    between atoms: C_8  and  C_9
REMARK    6  A    between atoms: C_9  and  O_11
REMARK    7  A    between atoms: C_12  and  C_13
REMARK    8  A    between atoms: C_16  and  S_17
REMARK    9  A    between atoms: S_17  and  C_18
REMARK                            x       y       z     vdW  Elec       q    Type
REMARK                         _______ _______ _______ _____ _____    ______ ____
ROOT
ATOM      1  C   UNL     1       5.172   5.302  16.814  0.00  0.00    +0.000 A 
ATOM      2  C   UNL     1       4.567   4.084  16.522  0.00  0.00    +0.000 A 
ATOM      3  C   UNL     1       3.293   3.808  17.019  0.00  0.00    +0.000 A 
ATOM      4  C   UNL     1       2.589   4.727  17.824  0.00  0.00    +0.000 A 
ATOM      5  C   UNL     1       3.154   6.003  18.086  0.00  0.00    +0.000 A 
ATOM      6  C   UNL     1       4.463   6.237  17.582  0.00  0.00    +0.000 A 
ENDROOT
BRANCH   5   7
ATOM      7  C   UNL     1       2.491   7.130  18.795  0.00  0.00    +0.000 A 
ATOM      8  C   UNL     1       2.157   7.055  20.164  0.00  0.00    +0.000 A 
ATOM      9  C   UNL     1       1.454   8.080  20.809  0.00  0.00    +0.000 A 
ATOM     10  C   UNL     1       1.061   9.196  20.075  0.00  0.00    +0.000 A 
ATOM     11  C   UNL     1       1.397   9.316  18.731  0.00  0.00    +0.000 A 
ATOM     12  C   UNL     1       2.163   8.322  18.122  0.00  0.00    +0.000 A 
BRANCH  10  13
ATOM     13  S   UNL     1       0.114  10.491  20.855  0.00  0.00    +0.000 S 
ATOM     14  C   UNL     1      -0.968  10.994  19.548  0.00  0.00    +0.000 C 
ATOM     15  O   UNL     1      -0.686   9.869  21.892  0.00  0.00    +0.000 OA
ATOM     16  O   UNL     1       1.013  11.578  21.148  0.00  0.00    +0.000 OA
ENDBRANCH  10  13
ENDBRANCH   5   7
BRANCH   1  18
ATOM     17  C   UNL     1       7.336   6.488  17.234  0.00  0.00    +0.000 C 
ATOM     18  C   UNL     1       6.529   5.647  16.256  0.00  0.00    +0.000 C 
ENDBRANCH   1  18
BRANCH   4  19
ATOM     19  O   UNL     1       1.379   4.196  18.210  0.00  0.00    +0.000 OA
BRANCH  19  20
ATOM     20  C   UNL     1       1.306   2.872  18.727  0.00  0.00    +0.000 C 
BRANCH  20  21
ATOM     21  C   UNL     1       1.758   2.767  20.173  0.00  0.00    +0.000 C 
ATOM     22  O   UNL     1       2.915   2.534  20.503  0.00  0.00    +0.000 OA
BRANCH  21  23
ATOM     23  O   UNL     1       0.771   2.960  21.071  0.00  0.00    +0.000 OA
ATOM     24  H   UNL     1       0.140   2.204  21.036  0.00  0.00    +0.000 HD
ENDBRANCH  21  23
ENDBRANCH  20  21
ENDBRANCH  19  20
ENDBRANCH   4  19
TORSDOF 7
ENDMDL
