MODEL 1
REMARK VINA RESULT:      -7.9      0.000      0.000
REMARK  Name = 
REMARK  6 active torsions:
REMARK  status: ('A' for Active; 'I' for Inactive)
REMARK    1  A    between atoms: C_1  and  C_2
REMARK    2  A    between atoms: C_4  and  C_5
REMARK    3  A    between atoms: N_7  and  C_8
REMARK    4  A    between atoms: C_8  and  C_9
REMARK    5  A    between atoms: C_15  and  O_16
REMARK    6  A    between atoms: C_18  and  C_19
REMARK                            x       y       z     vdW  Elec       q    Type
REMARK                         _______ _______ _______ _____ _____    ______ ____
ROOT
ATOM      1  C   UNL     1       5.379   4.494  17.892  0.00  0.00    +0.000 C 
ATOM      2  O   UNL     1       5.172   5.456  18.623  0.00  0.00    +0.000 OA
ATOM      3  N   UNL     1       5.078   3.195  18.251  0.00  0.00    +0.000 N 
ATOM      4  H   UNL     1       5.529   2.432  17.755  0.00  0.00    +0.000 HD
ENDROOT
BRANCH   1   8
ATOM      5  C   UNL     1       5.409   3.434  13.015  0.00  0.00    +0.000 C 
ATOM      6  C   UNL     1       5.993   4.169  14.186  0.00  0.00    +0.000 A 
ATOM      7  C   UNL     1       5.433   4.029  15.460  0.00  0.00    +0.000 A 
ATOM      8  C   UNL     1       5.979   4.708  16.554  0.00  0.00    +0.000 A 
ATOM      9  C   UNL     1       7.089   5.506  16.321  0.00  0.00    +0.000 A 
ATOM     10  N   UNL     1       7.647   5.673  15.105  0.00  0.00    +0.000 NA
ATOM     11  C   UNL     1       7.115   4.999  14.057  0.00  0.00    +0.000 A 
ATOM     12  C   UNL     1       7.823   5.165  12.743  0.00  0.00    +0.000 C 
BRANCH   9  13
ATOM     13  O   UNL     1       7.751   6.169  17.313  0.00  0.00    +0.000 OA
ATOM     14  H   UNL     1       8.073   7.005  16.936  0.00  0.00    +0.000 HD
ENDBRANCH   9  13
ENDBRANCH   1   8
BRANCH   3  15
ATOM     15  C   UNL     1       4.565   2.909  19.576  0.00  0.00    +0.000 C 
BRANCH  15  16
ATOM     16  C   UNL     1       3.065   3.013  19.622  0.00  0.00    +0.000 A 
ATOM     17  C   UNL     1       2.262   2.252  18.761  0.00  0.00    +0.000 A 
ATOM     18  C   UNL     1       0.870   2.338  18.829  0.00  0.00    +0.000 A 
ATOM     19  C   UNL     1       0.266   3.193  19.750  0.00  0.00    +0.000 A 
ATOM     20  C   UNL     1       1.053   3.967  20.599  0.00  0.00    +0.000 A 
ATOM     21  C   UNL     1       2.445   3.882  20.533  0.00  0.00    +0.000 A 
ENDBRANCH  15  16
ENDBRANCH   3  15
TORSDOF 4
ENDMDL
MODEL 2
REMARK VINA RESULT:      -7.8      0.252      1.108
REMARK  Name = 
REMARK  6 active torsions:
REMARK  status: ('A' for Active; 'I' for Inactive)
REMARK    1  A    between atoms: C_1  and  C_2
REMARK    2  A    between atoms: C_4  and  C_5
REMARK    3  A    between atoms: N_7  and  C_8
REMARK    4  A    between atoms: C_8  and  C_9
REMARK    5  A    between atoms: C_15  and  O_16
REMARK    6  A    between atoms: C_18  and  C_19
REMARK                            x       y       z     vdW  Elec       q    Type
REMARK                         _______ _______ _______ _____ _____    ______ ____
ROOT
ATOM      1  C   UNL     1       5.304   4.602  17.906  0.00  0.00    +0.000 C 
ATOM      2  O   UNL     1       4.884   5.582  18.511  0.00  0.00    +0.000 OA
ATOM      3  N   UNL     1       5.229   3.317  18.405  0.00  0.00    +0.000 N 
ATOM      4  H   UNL     1       5.839   2.604  18.018  0.00  0.00    +0.000 HD
ENDROOT
BRANCH   1   8
ATOM      5  C   UNL     1       5.358   3.468  13.046  0.00  0.00    +0.000 C 
ATOM      6  C   UNL     1       5.951   4.203  14.212  0.00  0.00    +0.000 A 
ATOM      7  C   UNL     1       5.371   4.099  15.481  0.00  0.00    +0.000 A 
ATOM      8  C   UNL     1       5.925   4.778  16.572  0.00  0.00    +0.000 A 
ATOM      9  C   UNL     1       7.062   5.538  16.340  0.00  0.00    +0.000 A 
ATOM     10  N   UNL     1       7.638   5.671  15.129  0.00  0.00    +0.000 NA
ATOM     11  C   UNL     1       7.098   4.997  14.085  0.00  0.00    +0.000 A 
ATOM     12  C   UNL     1       7.826   5.122  12.777  0.00  0.00    +0.000 C 
BRANCH   9  13
ATOM     13  O   UNL     1       7.732   6.197  17.330  0.00  0.00    +0.000 OA
ATOM     14  H   UNL     1       7.747   7.139  17.091  0.00  0.00    +0.000 HD
ENDBRANCH   9  13
ENDBRANCH   1   8
BRANCH   3  15
ATOM     15  C   UNL     1       4.707   3.086  19.738  0.00  0.00    +0.000 C 
BRANCH  15  16
ATOM     16  C   UNL     1       3.204   3.021  19.739  0.00  0.00    +0.000 A 
ATOM     17  C   UNL     1       2.462   3.500  20.827  0.00  0.00    +0.000 A 
ATOM     18  C   UNL     1       1.066   3.457  20.807  0.00  0.00    +0.000 A 
ATOM     19  C   UNL     1       0.398   2.926  19.705  0.00  0.00    +0.000 A 
ATOM     20  C   UNL     1       1.125   2.431  18.624  0.00  0.00    +0.000 A 
ATOM     21  C   UNL     1       2.520   2.473  18.642  0.00  0.00    +0.000 A 
ENDBRANCH  15  16
ENDBRANCH   3  15
TORSDOF 4
ENDMDL
MODEL 3
REMARK VINA RESULT:      -7.7      1.114      1.511
REMARK  Name = 
REMARK  6 active torsions:
REMARK  status: ('A' for Active; 'I' for Inactive)
REMARK    1  A    between atoms: C_1  and  C_2
REMARK    2  A    between atoms: C_4  and  C_5
REMARK    3  A    between atoms: N_7  and  C_8
REMARK    4  A    between atoms: C_8  and  C_9
REMARK    5  A    between atoms: C_15  and  O_16
REMARK    6  A    between atoms: C_18  and  C_19
REMARK                            x       y       z     vdW  Elec       q    Type
REMARK                         _______ _______ _______ _____ _____    ______ ____
ROOT
ATOM      1  C   UNL     1       5.331   4.895  18.024  0.00  0.00    +0.000 C 
ATOM      2  O   UNL     1       5.825   4.143  18.858  0.00  0.00    +0.000 OA
ATOM      3  N   UNL     1       4.238   5.697  18.286  0.00  0.00    +0.000 N 
ATOM      4  H   UNL     1       3.699   6.061  17.505  0.00  0.00    +0.000 HD
ENDROOT
BRANCH   1   8
ATOM      5  C   UNL     1       5.131   3.547  13.223  0.00  0.00    +0.000 C 
ATOM      6  C   UNL     1       5.816   4.286  14.335  0.00  0.00    +0.000 A 
ATOM      7  C   UNL     1       5.276   4.282  15.625  0.00  0.00    +0.000 A 
ATOM      8  C   UNL     1       5.916   4.965  16.665  0.00  0.00    +0.000 A 
ATOM      9  C   UNL     1       7.096   5.628  16.361  0.00  0.00    +0.000 A 
ATOM     10  N   UNL     1       7.638   5.663  15.127  0.00  0.00    +0.000 NA
ATOM     11  C   UNL     1       7.013   4.986  14.133  0.00  0.00    +0.000 A 
ATOM     12  C   UNL     1       7.702   4.998  12.799  0.00  0.00    +0.000 C 
BRANCH   9  13
ATOM     13  O   UNL     1       7.847   6.278  17.298  0.00  0.00    +0.000 OA
ATOM     14  H   UNL     1       7.306   7.008  17.645  0.00  0.00    +0.000 HD
ENDBRANCH   9  13
ENDBRANCH   1   8
BRANCH   3  15
ATOM     15  C   UNL     1       3.568   5.616  19.569  0.00  0.00    +0.000 C 
BRANCH  15  16
ATOM     16  C   UNL     1       2.555   4.503  19.593  0.00  0.00    +0.000 A 
ATOM     17  C   UNL     1       2.113   3.957  20.806  0.00  0.00    +0.000 A 
ATOM     18  C   UNL     1       1.154   2.942  20.818  0.00  0.00    +0.000 A 
ATOM     19  C   UNL     1       0.635   2.456  19.619  0.00  0.00    +0.000 A 
ATOM     20  C   UNL     1       1.079   2.979  18.407  0.00  0.00    +0.000 A 
ATOM     21  C   UNL     1       2.037   3.994  18.393  0.00  0.00    +0.000 A 
ENDBRANCH  15  16
ENDBRANCH   3  15
TORSDOF 4
ENDMDL
MODEL 4
REMARK VINA RESULT:      -7.5      0.689      1.256
REMARK  Name = 
REMARK  6 active torsions:
REMARK  status: ('A' for Active; 'I' for Inactive)
REMARK    1  A    between atoms: C_1  and  C_2
REMARK    2  A    between atoms: C_4  and  C_5
REMARK    3  A    between atoms: N_7  and  C_8
REMARK    4  A    between atoms: C_8  and  C_9
REMARK    5  A    between atoms: C_15  and  O_16
REMARK    6  A    between atoms: C_18  and  C_19
REMARK                            x       y       z     vdW  Elec       q    Type
REMARK                         _______ _______ _______ _____ _____    ______ ____
ROOT
ATOM      1  C   UNL     1       5.823   3.926  17.808  0.00  0.00    +0.000 C 
ATOM      2  O   UNL     1       6.346   4.415  18.804  0.00  0.00    +0.000 OA
ATOM      3  N   UNL     1       4.805   2.995  17.871  0.00  0.00    +0.000 N 
ATOM      4  H   UNL     1       4.619   2.416  17.057  0.00  0.00    +0.000 HD
ENDROOT
BRANCH   1   8
ATOM      5  C   UNL     1       5.701   3.243  12.866  0.00  0.00    +0.000 C 
ATOM      6  C   UNL     1       6.231   3.982  14.060  0.00  0.00    +0.000 A 
ATOM      7  C   UNL     1       5.790   3.655  15.347  0.00  0.00    +0.000 A 
ATOM      8  C   UNL     1       6.286   4.337  16.462  0.00  0.00    +0.000 A 
ATOM      9  C   UNL     1       7.227   5.330  16.236  0.00  0.00    +0.000 A 
ATOM     10  N   UNL     1       7.666   5.680  15.010  0.00  0.00    +0.000 NA
ATOM     11  C   UNL     1       7.185   5.001  13.940  0.00  0.00    +0.000 A 
ATOM     12  C   UNL     1       7.765   5.382  12.608  0.00  0.00    +0.000 C 
BRANCH   9  13
ATOM     13  O   UNL     1       7.834   6.025  17.242  0.00  0.00    +0.000 OA
ATOM     14  H   UNL     1       7.203   6.072  17.981  0.00  0.00    +0.000 HD
ENDBRANCH   9  13
ENDBRANCH   1   8
BRANCH   3  15
ATOM     15  C   UNL     1       4.362   2.490  19.156  0.00  0.00    +0.000 C 
BRANCH  15  16
ATOM     16  C   UNL     1       3.092   3.161  19.605  0.00  0.00    +0.000 A 
ATOM     17  C   UNL     1       3.096   4.496  20.034  0.00  0.00    +0.000 A 
ATOM     18  C   UNL     1       1.908   5.117  20.426  0.00  0.00    +0.000 A 
ATOM     19  C   UNL     1       0.707   4.409  20.401  0.00  0.00    +0.000 A 
ATOM     20  C   UNL     1       0.694   3.077  19.993  0.00  0.00    +0.000 A 
ATOM     21  C   UNL     1       1.881   2.454  19.601  0.00  0.00    +0.000 A 
ENDBRANCH  15  16
ENDBRANCH   3  15
TORSDOF 4
ENDMDL
MODEL 5
REMARK VINA RESULT:      -7.5      1.273      1.396
REMARK  Name = 
REMARK  6 active torsions:
REMARK  status: ('A' for Active; 'I' for Inactive)
REMARK    1  A    between atoms: C_1  and  C_2
REMARK    2  A    between atoms: C_4  and  C_5
REMARK    3  A    between atoms: N_7  and  C_8
REMARK    4  A    between atoms: C_8  and  C_9
REMARK    5  A    between atoms: C_15  and  O_16
REMARK    6  A    between atoms: C_18  and  C_19
REMARK                            x       y       z     vdW  Elec       q    Type
REMARK                         _______ _______ _______ _____ _____    ______ ____
ROOT
ATOM      1  C   UNL     1       4.993   5.320  18.124  0.00  0.00    +0.000 C 
ATOM      2  O   UNL     1       5.443   4.699  19.081  0.00  0.00    +0.000 OA
ATOM      3  N   UNL     1       3.835   6.068  18.188  0.00  0.00    +0.000 N 
ATOM      4  H   UNL     1       3.357   6.307  17.324  0.00  0.00    +0.000 HD
ENDROOT
BRANCH   1   8
ATOM      5  C   UNL     1       5.175   3.700  13.407  0.00  0.00    +0.000 C 
ATOM      6  C   UNL     1       5.791   4.470  14.538  0.00  0.00    +0.000 A 
ATOM      7  C   UNL     1       5.132   4.569  15.768  0.00  0.00    +0.000 A 
ATOM      8  C   UNL     1       5.707   5.280  16.826  0.00  0.00    +0.000 A 
ATOM      9  C   UNL     1       6.944   5.866  16.604  0.00  0.00    +0.000 A 
ATOM     10  N   UNL     1       7.601   5.802  15.428  0.00  0.00    +0.000 NA
ATOM     11  C   UNL     1       7.037   5.098  14.416  0.00  0.00    +0.000 A 
ATOM     12  C   UNL     1       7.849   4.998  13.157  0.00  0.00    +0.000 C 
BRANCH   9  13
ATOM     13  O   UNL     1       7.637   6.533  17.572  0.00  0.00    +0.000 OA
ATOM     14  H   UNL     1       7.692   7.464  17.298  0.00  0.00    +0.000 HD
ENDBRANCH   9  13
ENDBRANCH   1   8
BRANCH   3  15
ATOM     15  C   UNL     1       3.045   6.082  19.404  0.00  0.00    +0.000 C 
BRANCH  15  16
ATOM     16  C   UNL     1       2.245   4.816  19.557  0.00  0.00    +0.000 A 
ATOM     17  C   UNL     1       1.728   4.151  18.437  0.00  0.00    +0.000 A 
ATOM     18  C   UNL     1       1.008   2.964  18.588  0.00  0.00    +0.000 A 
ATOM     19  C   UNL     1       0.789   2.436  19.859  0.00  0.00    +0.000 A 
ATOM     20  C   UNL     1       1.283   3.098  20.981  0.00  0.00    +0.000 A 
ATOM     21  C   UNL     1       2.003   4.284  20.832  0.00  0.00    +0.000 A 
ENDBRANCH  15  16
ENDBRANCH   3  15
TORSDOF 4
ENDMDL
MODEL 6
REMARK VINA RESULT:      -7.2      5.711      8.353
REMARK  Name = 
REMARK  6 active torsions:
REMARK  status: ('A' for Active; 'I' for Inactive)
REMARK    1  A    between atoms: C_1  and  C_2
REMARK    2  A    between atoms: C_4  and  C_5
REMARK    3  A    between atoms: N_7  and  C_8
REMARK    4  A    between atoms: C_8  and  C_9
REMARK    5  A    between atoms: C_15  and  O_16
REMARK    6  A    between atoms: C_18  and  C_19
REMARK                            x       y       z     vdW  Elec       q    Type
REMARK                         _______ _______ _______ _____ _____    ______ ____
ROOT
ATOM      1  C   UNL     1       1.589   8.676  19.751  0.00  0.00    +0.000 C 
ATOM      2  O   UNL     1       1.795   8.976  18.579  0.00  0.00    +0.000 OA
ATOM      3  N   UNL     1       2.087   7.528  20.334  0.00  0.00    +0.000 N 
ATOM      4  H   UNL     1       1.654   7.184  21.187  0.00  0.00    +0.000 HD
ENDROOT
BRANCH   1   8
ATOM      5  C   UNL     1      -2.048  12.076  20.095  0.00  0.00    +0.000 C 
ATOM      6  C   UNL     1      -0.990  11.239  20.751  0.00  0.00    +0.000 A 
ATOM      7  C   UNL     1      -0.221  10.349  19.993  0.00  0.00    +0.000 A 
ATOM      8  C   UNL     1       0.770   9.571  20.601  0.00  0.00    +0.000 A 
ATOM      9  C   UNL     1       0.957   9.729  21.966  0.00  0.00    +0.000 A 
ATOM     10  N   UNL     1       0.227  10.567  22.729  0.00  0.00    +0.000 NA
ATOM     11  C   UNL     1      -0.721  11.324  22.124  0.00  0.00    +0.000 A 
ATOM     12  C   UNL     1      -1.450  12.292  23.010  0.00  0.00    +0.000 C 
BRANCH   9  13
ATOM     13  O   UNL     1       1.931   9.076  22.665  0.00  0.00    +0.000 OA
ATOM     14  H   UNL     1       1.592   8.928  23.563  0.00  0.00    +0.000 HD
ENDBRANCH   9  13
ENDBRANCH   1   8
BRANCH   3  15
ATOM     15  C   UNL     1       2.826   6.570  19.536  0.00  0.00    +0.000 C 
BRANCH  15  16
ATOM     16  C   UNL     1       2.154   5.223  19.529  0.00  0.00    +0.000 A 
ATOM     17  C   UNL     1       1.738   4.619  20.723  0.00  0.00    +0.000 A 
ATOM     18  C   UNL     1       1.094   3.380  20.703  0.00  0.00    +0.000 A 
ATOM     19  C   UNL     1       0.867   2.729  19.491  0.00  0.00    +0.000 A 
ATOM     20  C   UNL     1       1.291   3.312  18.299  0.00  0.00    +0.000 A 
ATOM     21  C   UNL     1       1.936   4.550  18.317  0.00  0.00    +0.000 A 
ENDBRANCH  15  16
ENDBRANCH   3  15
TORSDOF 4
ENDMDL
MODEL 7
REMARK VINA RESULT:      -7.1      1.351      1.711
REMARK  Name = 
REMARK  6 active torsions:
REMARK  status: ('A' for Active; 'I' for Inactive)
REMARK    1  A    between atoms: C_1  and  C_2
REMARK    2  A    between atoms: C_4  and  C_5
REMARK    3  A    between atoms: N_7  and  C_8
REMARK    4  A    between atoms: C_8  and  C_9
REMARK    5  A    between atoms: C_15  and  O_16
REMARK    6  A    between atoms: C_18  and  C_19
REMARK                            x       y       z     vdW  Elec       q    Type
REMARK                         _______ _______ _______ _____ _____    ______ ____
ROOT
ATOM      1  C   UNL     1       4.873   3.618  17.112  0.00  0.00    +0.000 C 
ATOM      2  O   UNL     1       3.727   3.245  16.882  0.00  0.00    +0.000 OA
ATOM      3  N   UNL     1       5.443   3.572  18.369  0.00  0.00    +0.000 N 
ATOM      4  H   UNL     1       6.256   4.151  18.560  0.00  0.00    +0.000 HD
ENDROOT
BRANCH   1   8
ATOM      5  C   UNL     1       6.181   3.436  12.299  0.00  0.00    +0.000 C 
ATOM      6  C   UNL     1       6.345   4.035  13.666  0.00  0.00    +0.000 A 
ATOM      7  C   UNL     1       5.551   3.595  14.730  0.00  0.00    +0.000 A 
ATOM      8  C   UNL     1       5.706   4.147  16.006  0.00  0.00    +0.000 A 
ATOM      9  C   UNL     1       6.674   5.127  16.165  0.00  0.00    +0.000 A 
ATOM     10  N   UNL     1       7.448   5.582  15.159  0.00  0.00    +0.000 NA
ATOM     11  C   UNL     1       7.295   5.029  13.931  0.00  0.00    +0.000 A 
ATOM     12  C   UNL     1       8.235   5.523  12.869  0.00  0.00    +0.000 C 
BRANCH   9  13
ATOM     13  O   UNL     1       6.965   5.698  17.370  0.00  0.00    +0.000 OA
ATOM     14  H   UNL     1       7.915   5.905  17.368  0.00  0.00    +0.000 HD
ENDBRANCH   9  13
ENDBRANCH   1   8
BRANCH   3  15
ATOM     15  C   UNL     1       4.656   3.143  19.507  0.00  0.00    +0.000 C 
BRANCH  15  16
ATOM     16  C   UNL     1       3.557   4.124  19.820  0.00  0.00    +0.000 A 
ATOM     17  C   UNL     1       2.330   3.689  20.340  0.00  0.00    +0.000 A 
ATOM     18  C   UNL     1       1.326   4.609  20.649  0.00  0.00    +0.000 A 
ATOM     19  C   UNL     1       1.534   5.971  20.432  0.00  0.00    +0.000 A 
ATOM     20  C   UNL     1       2.743   6.413  19.900  0.00  0.00    +0.000 A 
ATOM     21  C   UNL     1       3.748   5.494  19.590  0.00  0.00    +0.000 A 
ENDBRANCH  15  16
ENDBRANCH   3  15
TORSDOF 4
ENDMDL
MODEL 8
REMARK VINA RESULT:      -7.1      1.330      1.804
REMARK  Name = 
REMARK  6 active torsions:
REMARK  status: ('A' for Active; 'I' for Inactive)
REMARK    1  A    between atoms: C_1  and  C_2
REMARK    2  A    between atoms: C_4  and  C_5
REMARK    3  A    between atoms: N_7  and  C_8
REMARK    4  A    between atoms: C_8  and  C_9
REMARK    5  A    between atoms: C_15  and  O_16
REMARK    6  A    between atoms: C_18  and  C_19
REMARK                            x       y       z     vdW  Elec       q    Type
REMARK                         _______ _______ _______ _____ _____    ______ ____
ROOT
ATOM      1  C   UNL     1       4.809   3.623  17.109  0.00  0.00    +0.000 C 
ATOM      2  O   UNL     1       3.642   3.321  16.883  0.00  0.00    +0.000 OA
ATOM      3  N   UNL     1       5.394   3.496  18.354  0.00  0.00    +0.000 N 
ATOM      4  H   UNL     1       6.239   4.022  18.554  0.00  0.00    +0.000 HD
ENDROOT
BRANCH   1   8
ATOM      5  C   UNL     1       6.174   3.429  12.313  0.00  0.00    +0.000 C 
ATOM      6  C   UNL     1       6.321   4.032  13.679  0.00  0.00    +0.000 A 
ATOM      7  C   UNL     1       5.515   3.594  14.735  0.00  0.00    +0.000 A 
ATOM      8  C   UNL     1       5.654   4.149  16.012  0.00  0.00    +0.000 A 
ATOM      9  C   UNL     1       6.618   5.132  16.178  0.00  0.00    +0.000 A 
ATOM     10  N   UNL     1       7.403   5.587  15.181  0.00  0.00    +0.000 NA
ATOM     11  C   UNL     1       7.266   5.030  13.953  0.00  0.00    +0.000 A 
ATOM     12  C   UNL     1       8.217   5.522  12.900  0.00  0.00    +0.000 C 
BRANCH   9  13
ATOM     13  O   UNL     1       6.894   5.708  17.385  0.00  0.00    +0.000 OA
ATOM     14  H   UNL     1       6.589   5.093  18.074  0.00  0.00    +0.000 HD
ENDBRANCH   9  13
ENDBRANCH   1   8
BRANCH   3  15
ATOM     15  C   UNL     1       4.601   3.065  19.487  0.00  0.00    +0.000 C 
BRANCH  15  16
ATOM     16  C   UNL     1       3.530   4.067  19.826  0.00  0.00    +0.000 A 
ATOM     17  C   UNL     1       3.743   5.440  19.637  0.00  0.00    +0.000 A 
ATOM     18  C   UNL     1       2.735   6.360  19.931  0.00  0.00    +0.000 A 
ATOM     19  C   UNL     1       1.508   5.920  20.426  0.00  0.00    +0.000 A 
ATOM     20  C   UNL     1       1.291   4.559  20.634  0.00  0.00    +0.000 A 
ATOM     21  C   UNL     1       2.298   3.638  20.341  0.00  0.00    +0.000 A 
ENDBRANCH  15  16
ENDBRANCH   3  15
TORSDOF 4
ENDMDL
MODEL 9
REMARK VINA RESULT:      -7.1      4.841      7.329
REMARK  Name = 
REMARK  6 active torsions:
REMARK  status: ('A' for Active; 'I' for Inactive)
REMARK    1  A    between atoms: C_1  and  C_2
REMARK    2  A    between atoms: C_4  and  C_5
REMARK    3  A    between atoms: N_7  and  C_8
REMARK    4  A    between atoms: C_8  and  C_9
REMARK    5  A    between atoms: C_15  and  O_16
REMARK    6  A    between atoms: C_18  and  C_19
REMARK                            x       y       z     vdW  Elec       q    Type
REMARK                         _______ _______ _______ _____ _____    ______ ____
ROOT
ATOM      1  C   UNL     1       2.332   7.635  19.074  0.00  0.00    +0.000 C 
ATOM      2  O   UNL     1       2.590   7.570  17.877  0.00  0.00    +0.000 OA
ATOM      3  N   UNL     1       2.801   6.722  19.998  0.00  0.00    +0.000 N 
ATOM      4  H   UNL     1       2.330   6.647  20.895  0.00  0.00    +0.000 HD
ENDROOT
BRANCH   1   8
ATOM      5  C   UNL     1      -0.430   9.535  22.771  0.00  0.00    +0.000 C 
ATOM      6  C   UNL     1       0.123   9.641  21.380  0.00  0.00    +0.000 A 
ATOM      7  C   UNL     1       0.967   8.644  20.877  0.00  0.00    +0.000 A 
ATOM      8  C   UNL     1       1.479   8.736  19.579  0.00  0.00    +0.000 A 
ATOM      9  C   UNL     1       1.110   9.840  18.825  0.00  0.00    +0.000 A 
ATOM     10  N   UNL     1       0.311  10.825  19.282  0.00  0.00    +0.000 NA
ATOM     11  C   UNL     1      -0.189  10.715  20.537  0.00  0.00    +0.000 A 
ATOM     12  C   UNL     1      -1.133  11.801  20.964  0.00  0.00    +0.000 C 
BRANCH   9  13
ATOM     13  O   UNL     1       1.492  10.015  17.526  0.00  0.00    +0.000 OA
ATOM     14  H   UNL     1       0.734  10.398  17.052  0.00  0.00    +0.000 HD
ENDBRANCH   9  13
ENDBRANCH   1   8
BRANCH   3  15
ATOM     15  C   UNL     1       3.571   5.576  19.558  0.00  0.00    +0.000 C 
BRANCH  15  16
ATOM     16  C   UNL     1       2.689   4.385  19.297  0.00  0.00    +0.000 A 
ATOM     17  C   UNL     1       1.582   4.115  20.114  0.00  0.00    +0.000 A 
ATOM     18  C   UNL     1       0.755   3.021  19.848  0.00  0.00    +0.000 A 
ATOM     19  C   UNL     1       1.032   2.181  18.770  0.00  0.00    +0.000 A 
ATOM     20  C   UNL     1       2.138   2.429  17.962  0.00  0.00    +0.000 A 
ATOM     21  C   UNL     1       2.966   3.522  18.226  0.00  0.00    +0.000 A 
ENDBRANCH  15  16
ENDBRANCH   3  15
TORSDOF 4
ENDMDL
