MODEL 1
REMARK VINA RESULT:      -7.6      0.000      0.000
REMARK  Name = 
REMARK  7 active torsions:
REMARK  status: ('A' for Active; 'I' for Inactive)
REMARK    1  A    between atoms: C_1  and  O_2
REMARK    2  A    between atoms: O_2  and  C_3
REMARK    3  A    between atoms: C_5  and  C_6
REMARK    4  A    between atoms: C_8  and  C_9
REMARK    5  A    between atoms: C_9  and  N_10
REMARK    6  A    between atoms: C_17  and  O_18
REMARK    7  A    between atoms: O_18  and  C_19
REMARK                            x       y       z     vdW  Elec       q    Type
REMARK                         _______ _______ _______ _____ _____    ______ ____
ROOT
ATOM      1  N   UNL     1       2.390   3.776  18.465  0.00  0.00    +0.000 N 
ATOM      2  C   UNL     1       1.940   2.745  19.397  0.00  0.00    +0.000 C 
ATOM      3  C   UNL     1       2.416   3.085  20.804  0.00  0.00    +0.000 C 
ATOM      4  O   UNL     1       1.893   4.345  21.247  0.00  0.00    +0.000 OA
ATOM      5  C   UNL     1       2.022   5.336  20.297  0.00  0.00    +0.000 A 
ATOM      6  C   UNL     1       1.854   6.636  20.777  0.00  0.00    +0.000 A 
ATOM      7  C   UNL     1       1.958   7.723  19.910  0.00  0.00    +0.000 A 
ATOM      8  C   UNL     1       2.229   7.507  18.563  0.00  0.00    +0.000 A 
ATOM      9  C   UNL     1       2.394   6.195  18.090  0.00  0.00    +0.000 A 
ATOM     10  C   UNL     1       2.288   5.078  18.932  0.00  0.00    +0.000 A 
ENDROOT
BRANCH   8  11
ATOM     11  O   UNL     1       2.345   8.475  17.601  0.00  0.00    +0.000 OA
ATOM     12  C   UNL     1       1.879   9.774  17.942  0.00  0.00    +0.000 C 
ENDBRANCH   8  11
BRANCH   1  13
ATOM     13  C   UNL     1       3.016   3.365  17.212  0.00  0.00    +0.000 C 
BRANCH  13  19
ATOM     14  C   UNL     1       6.502   4.574  18.107  0.00  0.00    +0.000 A 
ATOM     15  C   UNL     1       7.028   4.774  16.838  0.00  0.00    +0.000 A 
ATOM     16  C   UNL     1       6.242   4.460  15.734  0.00  0.00    +0.000 A 
ATOM     17  C   UNL     1       6.784   4.619  14.346  0.00  0.00    +0.000 C 
ATOM     18  N   UNL     1       4.973   3.998  15.844  0.00  0.00    +0.000 NA
ATOM     19  C   UNL     1       4.468   3.803  17.095  0.00  0.00    +0.000 A 
ATOM     20  C   UNL     1       5.222   4.047  18.240  0.00  0.00    +0.000 A 
BRANCH  14  22
ATOM     21  C   UNL     1       7.994   5.988  19.274  0.00  0.00    +0.000 C 
ATOM     22  O   UNL     1       7.162   4.831  19.279  0.00  0.00    +0.000 OA
ENDBRANCH  14  22
ENDBRANCH  13  19
ENDBRANCH   1  13
TORSDOF 4
ENDMDL
MODEL 2
REMARK VINA RESULT:      -7.4      1.249      2.274
REMARK  Name = 
REMARK  7 active torsions:
REMARK  status: ('A' for Active; 'I' for Inactive)
REMARK    1  A    between atoms: C_1  and  O_2
REMARK    2  A    between atoms: O_2  and  C_3
REMARK    3  A    between atoms: C_5  and  C_6
REMARK    4  A    between atoms: C_8  and  C_9
REMARK    5  A    between atoms: C_9  and  N_10
REMARK    6  A    between atoms: C_17  and  O_18
REMARK    7  A    between atoms: O_18  and  C_19
REMARK                            x       y       z     vdW  Elec       q    Type
REMARK                         _______ _______ _______ _____ _____    ______ ____
ROOT
ATOM      1  N   UNL     1       2.943   3.754  18.558  0.00  0.00    +0.000 N 
ATOM      2  C   UNL     1       2.541   2.690  19.475  0.00  0.00    +0.000 C 
ATOM      3  C   UNL     1       2.833   3.114  20.909  0.00  0.00    +0.000 C 
ATOM      4  O   UNL     1       2.113   4.304  21.264  0.00  0.00    +0.000 OA
ATOM      5  C   UNL     1       2.205   5.286  20.300  0.00  0.00    +0.000 A 
ATOM      6  C   UNL     1       1.827   6.562  20.723  0.00  0.00    +0.000 A 
ATOM      7  C   UNL     1       1.874   7.637  19.837  0.00  0.00    +0.000 A 
ATOM      8  C   UNL     1       2.298   7.433  18.528  0.00  0.00    +0.000 A 
ATOM      9  C   UNL     1       2.674   6.146  18.112  0.00  0.00    +0.000 A 
ATOM     10  C   UNL     1       2.631   5.040  18.974  0.00  0.00    +0.000 A 
ENDROOT
BRANCH   8  11
ATOM     11  O   UNL     1       2.381   8.391  17.552  0.00  0.00    +0.000 OA
ATOM     12  C   UNL     1       2.014   9.714  17.921  0.00  0.00    +0.000 C 
ENDBRANCH   8  11
BRANCH   1  13
ATOM     13  C   UNL     1       3.733   3.405  17.382  0.00  0.00    +0.000 C 
BRANCH  13  19
ATOM     14  C   UNL     1       6.882   5.018  16.004  0.00  0.00    +0.000 A 
ATOM     15  C   UNL     1       7.515   5.376  17.187  0.00  0.00    +0.000 A 
ATOM     16  C   UNL     1       6.867   5.123  18.391  0.00  0.00    +0.000 A 
ATOM     17  C   UNL     1       7.493   5.531  19.690  0.00  0.00    +0.000 C 
ATOM     18  N   UNL     1       5.660   4.511  18.462  0.00  0.00    +0.000 NA
ATOM     19  C   UNL     1       5.047   4.167  17.294  0.00  0.00    +0.000 A 
ATOM     20  C   UNL     1       5.617   4.441  16.054  0.00  0.00    +0.000 A 
BRANCH  14  22
ATOM     21  C   UNL     1       6.741   4.503  13.701  0.00  0.00    +0.000 C 
ATOM     22  O   UNL     1       7.395   5.214  14.749  0.00  0.00    +0.000 OA
ENDBRANCH  14  22
ENDBRANCH  13  19
ENDBRANCH   1  13
TORSDOF 4
ENDMDL
MODEL 3
REMARK VINA RESULT:      -7.3      2.533      6.546
REMARK  Name = 
REMARK  7 active torsions:
REMARK  status: ('A' for Active; 'I' for Inactive)
REMARK    1  A    between atoms: C_1  and  O_2
REMARK    2  A    between atoms: O_2  and  C_3
REMARK    3  A    between atoms: C_5  and  C_6
REMARK    4  A    between atoms: C_8  and  C_9
REMARK    5  A    between atoms: C_9  and  N_10
REMARK    6  A    between atoms: C_17  and  O_18
REMARK    7  A    between atoms: O_18  and  C_19
REMARK                            x       y       z     vdW  Elec       q    Type
REMARK                         _______ _______ _______ _____ _____    ______ ____
ROOT
ATOM      1  N   UNL     1       5.195   4.603  16.004  0.00  0.00    +0.000 N 
ATOM      2  C   UNL     1       5.704   5.706  16.815  0.00  0.00    +0.000 C 
ATOM      3  C   UNL     1       7.226   5.727  16.751  0.00  0.00    +0.000 C 
ATOM      4  O   UNL     1       7.695   5.909  15.408  0.00  0.00    +0.000 OA
ATOM      5  C   UNL     1       7.052   5.087  14.507  0.00  0.00    +0.000 A 
ATOM      6  C   UNL     1       7.683   4.967  13.267  0.00  0.00    +0.000 A 
ATOM      7  C   UNL     1       7.127   4.165  12.271  0.00  0.00    +0.000 A 
ATOM      8  C   UNL     1       5.938   3.486  12.518  0.00  0.00    +0.000 A 
ATOM      9  C   UNL     1       5.310   3.616  13.767  0.00  0.00    +0.000 A 
ATOM     10  C   UNL     1       5.837   4.420  14.787  0.00  0.00    +0.000 A 
ENDROOT
BRANCH   8  11
ATOM     11  O   UNL     1       5.275   2.678  11.631  0.00  0.00    +0.000 OA
ATOM     12  C   UNL     1       4.012   3.138  11.169  0.00  0.00    +0.000 C 
ENDBRANCH   8  11
BRANCH   1  13
ATOM     13  C   UNL     1       4.178   3.725  16.572  0.00  0.00    +0.000 C 
BRANCH  13  19
ATOM     14  C   UNL     1       2.986   3.727  20.177  0.00  0.00    +0.000 A 
ATOM     15  C   UNL     1       2.553   5.041  20.294  0.00  0.00    +0.000 A 
ATOM     16  C   UNL     1       2.712   5.893  19.207  0.00  0.00    +0.000 A 
ATOM     17  C   UNL     1       2.299   7.331  19.302  0.00  0.00    +0.000 C 
ATOM     18  N   UNL     1       3.240   5.488  18.026  0.00  0.00    +0.000 NA
ATOM     19  C   UNL     1       3.663   4.197  17.924  0.00  0.00    +0.000 A 
ATOM     20  C   UNL     1       3.583   3.308  18.993  0.00  0.00    +0.000 A 
BRANCH  14  22
ATOM     21  C   UNL     1       1.619   2.639  21.769  0.00  0.00    +0.000 C 
ATOM     22  O   UNL     1       2.902   2.782  21.165  0.00  0.00    +0.000 OA
ENDBRANCH  14  22
ENDBRANCH  13  19
ENDBRANCH   1  13
TORSDOF 4
ENDMDL
MODEL 4
REMARK VINA RESULT:      -7.2      2.391      6.506
REMARK  Name = 
REMARK  7 active torsions:
REMARK  status: ('A' for Active; 'I' for Inactive)
REMARK    1  A    between atoms: C_1  and  O_2
REMARK    2  A    between atoms: O_2  and  C_3
REMARK    3  A    between atoms: C_5  and  C_6
REMARK    4  A    between atoms: C_8  and  C_9
REMARK    5  A    between atoms: C_9  and  N_10
REMARK    6  A    between atoms: C_17  and  O_18
REMARK    7  A    between atoms: O_18  and  C_19
REMARK                            x       y       z     vdW  Elec       q    Type
REMARK                         _______ _______ _______ _____ _____    ______ ____
ROOT
ATOM      1  N   UNL     1       5.135   4.665  16.227  0.00  0.00    +0.000 N 
ATOM      2  C   UNL     1       5.630   5.764  17.052  0.00  0.00    +0.000 C 
ATOM      3  C   UNL     1       7.153   5.789  17.011  0.00  0.00    +0.000 C 
ATOM      4  O   UNL     1       7.641   5.979  15.675  0.00  0.00    +0.000 OA
ATOM      5  C   UNL     1       7.013   5.161  14.760  0.00  0.00    +0.000 A 
ATOM      6  C   UNL     1       7.663   5.049  13.529  0.00  0.00    +0.000 A 
ATOM      7  C   UNL     1       7.123   4.251  12.521  0.00  0.00    +0.000 A 
ATOM      8  C   UNL     1       5.932   3.569  12.746  0.00  0.00    +0.000 A 
ATOM      9  C   UNL     1       5.285   3.691  13.986  0.00  0.00    +0.000 A 
ATOM     10  C   UNL     1       5.795   4.490  15.019  0.00  0.00    +0.000 A 
ENDROOT
BRANCH   8  11
ATOM     11  O   UNL     1       5.284   2.765  11.845  0.00  0.00    +0.000 OA
ATOM     12  C   UNL     1       4.085   3.276  11.279  0.00  0.00    +0.000 C 
ENDBRANCH   8  11
BRANCH   1  13
ATOM     13  C   UNL     1       4.111   3.782  16.775  0.00  0.00    +0.000 C 
BRANCH  13  19
ATOM     14  C   UNL     1       2.518   6.240  19.190  0.00  0.00    +0.000 A 
ATOM     15  C   UNL     1       2.312   5.412  20.286  0.00  0.00    +0.000 A 
ATOM     16  C   UNL     1       2.655   4.069  20.180  0.00  0.00    +0.000 A 
ATOM     17  C   UNL     1       2.411   3.129  21.322  0.00  0.00    +0.000 C 
ATOM     18  N   UNL     1       3.214   3.540  19.063  0.00  0.00    +0.000 NA
ATOM     19  C   UNL     1       3.408   4.361  17.994  0.00  0.00    +0.000 A 
ATOM     20  C   UNL     1       3.036   5.702  18.017  0.00  0.00    +0.000 A 
BRANCH  14  22
ATOM     21  C   UNL     1       2.358   8.197  17.875  0.00  0.00    +0.000 C 
ATOM     22  O   UNL     1       2.220   7.576  19.150  0.00  0.00    +0.000 OA
ENDBRANCH  14  22
ENDBRANCH  13  19
ENDBRANCH   1  13
TORSDOF 4
ENDMDL
MODEL 5
REMARK VINA RESULT:      -7.2      2.710      5.083
REMARK  Name = 
REMARK  7 active torsions:
REMARK  status: ('A' for Active; 'I' for Inactive)
REMARK    1  A    between atoms: C_1  and  O_2
REMARK    2  A    between atoms: O_2  and  C_3
REMARK    3  A    between atoms: C_5  and  C_6
REMARK    4  A    between atoms: C_8  and  C_9
REMARK    5  A    between atoms: C_9  and  N_10
REMARK    6  A    between atoms: C_17  and  O_18
REMARK    7  A    between atoms: O_18  and  C_19
REMARK                            x       y       z     vdW  Elec       q    Type
REMARK                         _______ _______ _______ _____ _____    ______ ____
ROOT
ATOM      1  N   UNL     1       5.860   5.036  17.020  0.00  0.00    +0.000 N 
ATOM      2  C   UNL     1       6.459   6.329  17.339  0.00  0.00    +0.000 C 
ATOM      3  C   UNL     1       5.523   7.448  16.899  0.00  0.00    +0.000 C 
ATOM      4  O   UNL     1       4.255   7.368  17.565  0.00  0.00    +0.000 OA
ATOM      5  C   UNL     1       3.734   6.091  17.561  0.00  0.00    +0.000 A 
ATOM      6  C   UNL     1       2.377   6.009  17.881  0.00  0.00    +0.000 A 
ATOM      7  C   UNL     1       1.737   4.771  17.912  0.00  0.00    +0.000 A 
ATOM      8  C   UNL     1       2.458   3.616  17.625  0.00  0.00    +0.000 A 
ATOM      9  C   UNL     1       3.822   3.710  17.307  0.00  0.00    +0.000 A 
ATOM     10  C   UNL     1       4.499   4.937  17.275  0.00  0.00    +0.000 A 
ENDROOT
BRANCH   8  11
ATOM     11  O   UNL     1       1.963   2.339  17.631  0.00  0.00    +0.000 OA
ATOM     12  C   UNL     1       1.653   1.779  18.900  0.00  0.00    +0.000 C 
ENDBRANCH   8  11
BRANCH   1  13
ATOM     13  C   UNL     1       6.679   4.027  16.357  0.00  0.00    +0.000 C 
BRANCH  13  19
ATOM     14  C   UNL     1       6.130   3.531  12.633  0.00  0.00    +0.000 A 
ATOM     15  C   UNL     1       7.052   4.436  12.124  0.00  0.00    +0.000 A 
ATOM     16  C   UNL     1       7.785   5.212  13.016  0.00  0.00    +0.000 A 
ATOM     17  C   UNL     1       8.759   6.233  12.511  0.00  0.00    +0.000 C 
ATOM     18  N   UNL     1       7.662   5.099  14.361  0.00  0.00    +0.000 NA
ATOM     19  C   UNL     1       6.753   4.210  14.848  0.00  0.00    +0.000 A 
ATOM     20  C   UNL     1       5.950   3.442  14.009  0.00  0.00    +0.000 A 
BRANCH  14  22
ATOM     21  C   UNL     1       4.123   3.292  11.409  0.00  0.00    +0.000 C 
ATOM     22  O   UNL     1       5.337   2.711  11.876  0.00  0.00    +0.000 OA
ENDBRANCH  14  22
ENDBRANCH  13  19
ENDBRANCH   1  13
TORSDOF 4
ENDMDL
MODEL 6
REMARK VINA RESULT:      -7.0      2.036      2.936
REMARK  Name = 
REMARK  7 active torsions:
REMARK  status: ('A' for Active; 'I' for Inactive)
REMARK    1  A    between atoms: C_1  and  O_2
REMARK    2  A    between atoms: O_2  and  C_3
REMARK    3  A    between atoms: C_5  and  C_6
REMARK    4  A    between atoms: C_8  and  C_9
REMARK    5  A    between atoms: C_9  and  N_10
REMARK    6  A    between atoms: C_17  and  O_18
REMARK    7  A    between atoms: O_18  and  C_19
REMARK                            x       y       z     vdW  Elec       q    Type
REMARK                         _______ _______ _______ _____ _____    ______ ____
ROOT
ATOM      1  N   UNL     1       4.086   4.195  17.849  0.00  0.00    +0.000 N 
ATOM      2  C   UNL     1       4.003   2.738  17.905  0.00  0.00    +0.000 C 
ATOM      3  C   UNL     1       4.032   2.280  19.357  0.00  0.00    +0.000 C 
ATOM      4  O   UNL     1       2.931   2.818  20.103  0.00  0.00    +0.000 OA
ATOM      5  C   UNL     1       2.755   4.168  19.887  0.00  0.00    +0.000 A 
ATOM      6  C   UNL     1       1.940   4.812  20.820  0.00  0.00    +0.000 A 
ATOM      7  C   UNL     1       1.686   6.178  20.706  0.00  0.00    +0.000 A 
ATOM      8  C   UNL     1       2.245   6.897  19.655  0.00  0.00    +0.000 A 
ATOM      9  C   UNL     1       3.060   6.240  18.720  0.00  0.00    +0.000 A 
ATOM     10  C   UNL     1       3.331   4.867  18.800  0.00  0.00    +0.000 A 
ENDROOT
BRANCH   8  11
ATOM     11  O   UNL     1       2.069   8.234  19.414  0.00  0.00    +0.000 OA
ATOM     12  C   UNL     1       1.131   8.915  20.237  0.00  0.00    +0.000 C 
ENDBRANCH   8  11
BRANCH   1  13
ATOM     13  C   UNL     1       5.029   4.809  16.920  0.00  0.00    +0.000 C 
BRANCH  13  19
ATOM     14  C   UNL     1       7.485   7.592  17.721  0.00  0.00    +0.000 A 
ATOM     15  C   UNL     1       8.186   7.009  18.768  0.00  0.00    +0.000 A 
ATOM     16  C   UNL     1       7.799   5.747  19.208  0.00  0.00    +0.000 A 
ATOM     17  C   UNL     1       8.500   5.098  20.363  0.00  0.00    +0.000 C 
ATOM     18  N   UNL     1       6.789   5.048  18.637  0.00  0.00    +0.000 NA
ATOM     19  C   UNL     1       6.106   5.631  17.612  0.00  0.00    +0.000 A 
ATOM     20  C   UNL     1       6.408   6.913  17.160  0.00  0.00    +0.000 A 
BRANCH  14  22
ATOM     21  C   UNL     1       8.489   9.709  18.032  0.00  0.00    +0.000 C 
ATOM     22  O   UNL     1       7.748   8.827  17.192  0.00  0.00    +0.000 OA
ENDBRANCH  14  22
ENDBRANCH  13  19
ENDBRANCH   1  13
TORSDOF 4
ENDMDL
MODEL 7
REMARK VINA RESULT:      -6.9      1.992      3.046
REMARK  Name = 
REMARK  7 active torsions:
REMARK  status: ('A' for Active; 'I' for Inactive)
REMARK    1  A    between atoms: C_1  and  O_2
REMARK    2  A    between atoms: O_2  and  C_3
REMARK    3  A    between atoms: C_5  and  C_6
REMARK    4  A    between atoms: C_8  and  C_9
REMARK    5  A    between atoms: C_9  and  N_10
REMARK    6  A    between atoms: C_17  and  O_18
REMARK    7  A    between atoms: O_18  and  C_19
REMARK                            x       y       z     vdW  Elec       q    Type
REMARK                         _______ _______ _______ _____ _____    ______ ____
ROOT
ATOM      1  N   UNL     1       2.890   6.610  18.227  0.00  0.00    +0.000 N 
ATOM      2  C   UNL     1       2.819   5.209  18.632  0.00  0.00    +0.000 C 
ATOM      3  C   UNL     1       2.976   5.105  20.144  0.00  0.00    +0.000 C 
ATOM      4  O   UNL     1       1.941   5.820  20.832  0.00  0.00    +0.000 OA
ATOM      5  C   UNL     1       1.739   7.084  20.318  0.00  0.00    +0.000 A 
ATOM      6  C   UNL     1       1.004   7.942  21.140  0.00  0.00    +0.000 A 
ATOM      7  C   UNL     1       0.733   9.246  20.729  0.00  0.00    +0.000 A 
ATOM      8  C   UNL     1       1.196   9.689  19.494  0.00  0.00    +0.000 A 
ATOM      9  C   UNL     1       1.931   8.817  18.674  0.00  0.00    +0.000 A 
ATOM     10  C   UNL     1       2.215   7.498  19.053  0.00  0.00    +0.000 A 
ENDROOT
BRANCH   8  11
ATOM     11  O   UNL     1       0.992  10.934  18.959  0.00  0.00    +0.000 OA
ATOM     12  C   UNL     1      -0.349  11.283  18.644  0.00  0.00    +0.000 C 
ENDBRANCH   8  11
BRANCH   1  13
ATOM     13  C   UNL     1       3.745   6.973  17.102  0.00  0.00    +0.000 C 
BRANCH  13  19
ATOM     14  C   UNL     1       6.374   4.451  16.034  0.00  0.00    +0.000 A 
ATOM     15  C   UNL     1       7.287   4.590  17.071  0.00  0.00    +0.000 A 
ATOM     16  C   UNL     1       7.035   5.539  18.056  0.00  0.00    +0.000 A 
ATOM     17  C   UNL     1       8.014   5.755  19.170  0.00  0.00    +0.000 C 
ATOM     18  N   UNL     1       5.921   6.310  18.066  0.00  0.00    +0.000 NA
ATOM     19  C   UNL     1       5.034   6.166  17.042  0.00  0.00    +0.000 A 
ATOM     20  C   UNL     1       5.253   5.273  15.996  0.00  0.00    +0.000 A 
BRANCH  14  22
ATOM     21  C   UNL     1       6.102   4.062  13.718  0.00  0.00    +0.000 C 
ATOM     22  O   UNL     1       6.496   3.567  14.995  0.00  0.00    +0.000 OA
ENDBRANCH  14  22
ENDBRANCH  13  19
ENDBRANCH   1  13
TORSDOF 4
ENDMDL
MODEL 8
REMARK VINA RESULT:      -6.9      1.100      1.323
REMARK  Name = 
REMARK  7 active torsions:
REMARK  status: ('A' for Active; 'I' for Inactive)
REMARK    1  A    between atoms: C_1  and  O_2
REMARK    2  A    between atoms: O_2  and  C_3
REMARK    3  A    between atoms: C_5  and  C_6
REMARK    4  A    between atoms: C_8  and  C_9
REMARK    5  A    between atoms: C_9  and  N_10
REMARK    6  A    between atoms: C_17  and  O_18
REMARK    7  A    between atoms: O_18  and  C_19
REMARK                            x       y       z     vdW  Elec       q    Type
REMARK                         _______ _______ _______ _____ _____    ______ ____
ROOT
ATOM      1  N   UNL     1       2.865   3.586  17.591  0.00  0.00    +0.000 N 
ATOM      2  C   UNL     1       2.697   2.166  17.892  0.00  0.00    +0.000 C 
ATOM      3  C   UNL     1       3.300   1.859  19.257  0.00  0.00    +0.000 C 
ATOM      4  O   UNL     1       2.662   2.613  20.297  0.00  0.00    +0.000 OA
ATOM      5  C   UNL     1       2.519   3.945  19.973  0.00  0.00    +0.000 A 
ATOM      6  C   UNL     1       2.227   4.784  21.051  0.00  0.00    +0.000 A 
ATOM      7  C   UNL     1       2.057   6.153  20.849  0.00  0.00    +0.000 A 
ATOM      8  C   UNL     1       2.176   6.680  19.567  0.00  0.00    +0.000 A 
ATOM      9  C   UNL     1       2.466   5.827  18.490  0.00  0.00    +0.000 A 
ATOM     10  C   UNL     1       2.636   4.446  18.656  0.00  0.00    +0.000 A 
ENDROOT
BRANCH   8  11
ATOM     11  O   UNL     1       2.021   7.997  19.223  0.00  0.00    +0.000 OA
ATOM     12  C   UNL     1       2.119   8.312  17.840  0.00  0.00    +0.000 C 
ENDBRANCH   8  11
BRANCH   1  13
ATOM     13  C   UNL     1       3.373   3.970  16.278  0.00  0.00    +0.000 C 
BRANCH  13  19
ATOM     14  C   UNL     1       6.945   4.555  17.424  0.00  0.00    +0.000 A 
ATOM     15  C   UNL     1       7.555   4.821  16.206  0.00  0.00    +0.000 A 
ATOM     16  C   UNL     1       6.789   4.750  15.048  0.00  0.00    +0.000 A 
ATOM     17  C   UNL     1       7.415   4.987  13.707  0.00  0.00    +0.000 C 
ATOM     18  N   UNL     1       5.463   4.466  15.060  0.00  0.00    +0.000 NA
ATOM     19  C   UNL     1       4.876   4.205  16.261  0.00  0.00    +0.000 A 
ATOM     20  C   UNL     1       5.599   4.206  17.451  0.00  0.00    +0.000 A 
BRANCH  14  22
ATOM     21  C   UNL     1       7.756   5.871  19.212  0.00  0.00    +0.000 C 
ATOM     22  O   UNL     1       7.576   4.579  18.639  0.00  0.00    +0.000 OA
ENDBRANCH  14  22
ENDBRANCH  13  19
ENDBRANCH   1  13
TORSDOF 4
ENDMDL
MODEL 9
REMARK VINA RESULT:      -6.9      1.653      2.177
REMARK  Name = 
REMARK  7 active torsions:
REMARK  status: ('A' for Active; 'I' for Inactive)
REMARK    1  A    between atoms: C_1  and  O_2
REMARK    2  A    between atoms: O_2  and  C_3
REMARK    3  A    between atoms: C_5  and  C_6
REMARK    4  A    between atoms: C_8  and  C_9
REMARK    5  A    between atoms: C_9  and  N_10
REMARK    6  A    between atoms: C_17  and  O_18
REMARK    7  A    between atoms: O_18  and  C_19
REMARK                            x       y       z     vdW  Elec       q    Type
REMARK                         _______ _______ _______ _____ _____    ______ ____
ROOT
ATOM      1  N   UNL     1       3.046   6.673  18.097  0.00  0.00    +0.000 N 
ATOM      2  C   UNL     1       2.967   5.264  18.470  0.00  0.00    +0.000 C 
ATOM      3  C   UNL     1       3.057   5.130  19.985  0.00  0.00    +0.000 C 
ATOM      4  O   UNL     1       1.987   5.825  20.641  0.00  0.00    +0.000 OA
ATOM      5  C   UNL     1       1.800   7.098  20.144  0.00  0.00    +0.000 A 
ATOM      6  C   UNL     1       1.024   7.935  20.949  0.00  0.00    +0.000 A 
ATOM      7  C   UNL     1       0.763   9.246  20.553  0.00  0.00    +0.000 A 
ATOM      8  C   UNL     1       1.277   9.717  19.349  0.00  0.00    +0.000 A 
ATOM      9  C   UNL     1       2.054   8.866  18.546  0.00  0.00    +0.000 A 
ATOM     10  C   UNL     1       2.330   7.541  18.910  0.00  0.00    +0.000 A 
ENDROOT
BRANCH   8  11
ATOM     11  O   UNL     1       1.090  10.971  18.831  0.00  0.00    +0.000 OA
ATOM     12  C   UNL     1       0.184  11.820  19.523  0.00  0.00    +0.000 C 
ENDBRANCH   8  11
BRANCH   1  13
ATOM     13  C   UNL     1       3.949   7.065  17.019  0.00  0.00    +0.000 C 
BRANCH  13  19
ATOM     14  C   UNL     1       7.083   4.966  17.451  0.00  0.00    +0.000 A 
ATOM     15  C   UNL     1       7.150   4.361  16.202  0.00  0.00    +0.000 A 
ATOM     16  C   UNL     1       6.141   4.622  15.282  0.00  0.00    +0.000 A 
ATOM     17  C   UNL     1       6.148   3.957  13.938  0.00  0.00    +0.000 C 
ATOM     18  N   UNL     1       5.113   5.467  15.538  0.00  0.00    +0.000 NA
ATOM     19  C   UNL     1       5.057   6.053  16.767  0.00  0.00    +0.000 A 
ATOM     20  C   UNL     1       6.005   5.792  17.752  0.00  0.00    +0.000 A 
BRANCH  14  22
ATOM     21  C   UNL     1       7.862   5.676  19.566  0.00  0.00    +0.000 C 
ATOM     22  O   UNL     1       7.998   4.794  18.455  0.00  0.00    +0.000 OA
ENDBRANCH  14  22
ENDBRANCH  13  19
ENDBRANCH   1  13
TORSDOF 4
ENDMDL
