MODEL 1
REMARK VINA RESULT:      -7.9      0.000      0.000
REMARK  Name = 
REMARK  9 active torsions:
REMARK  status: ('A' for Active; 'I' for Inactive)
REMARK    1  A    between atoms: C_1  and  C_2
REMARK    2  A    between atoms: C_2  and  C_3
REMARK    3  A    between atoms: C_3  and  N_4
REMARK    4  A    between atoms: C_5  and  C_7
REMARK    5  A    between atoms: C_9  and  C_10
REMARK    6  A    between atoms: C_11  and  C_12
REMARK    7  A    between atoms: C_12  and  C_13
REMARK    8  A    between atoms: C_16  and  C_17
REMARK    9  A    between atoms: C_23  and  C_24
REMARK                            x       y       z     vdW  Elec       q    Type
REMARK                         _______ _______ _______ _____ _____    ______ ____
ROOT
ATOM      1  C   UNL     1       5.231   4.710  16.239  0.00  0.00    +0.000 A 
ATOM      2  N   UNL     1       4.168   3.862  16.416  0.00  0.00    +0.000 N 
ATOM      3  C   UNL     1       3.390   4.267  17.468  0.00  0.00    +0.000 A 
ATOM      4  C   UNL     1       2.142   3.528  17.795  0.00  0.00    +0.000 C 
ATOM      5  C   UNL     1       4.034   5.331  18.089  0.00  0.00    +0.000 A 
ATOM      6  C   UNL     1       5.199   5.627  17.286  0.00  0.00    +0.000 A 
ATOM      7  C   UNL     1       6.240   6.657  17.572  0.00  0.00    +0.000 C 
ATOM      8  H   UNL     1       3.999   3.052  15.831  0.00  0.00    +0.000 HD
ENDROOT
BRANCH   1  10
ATOM      9  N   UNL     1       5.615   4.049  13.998  0.00  0.00    +0.000 N 
ATOM     10  C   UNL     1       6.180   4.494  15.167  0.00  0.00    +0.000 C 
ATOM     11  O   UNL     1       7.387   4.651  15.311  0.00  0.00    +0.000 OA
ATOM     12  H   UNL     1       4.701   3.623  14.077  0.00  0.00    +0.000 HD
BRANCH   9  13
ATOM     13  C   UNL     1       6.399   3.774  12.815  0.00  0.00    +0.000 C 
BRANCH  13  15
ATOM     14  C   UNL     1       4.335   3.251  11.441  0.00  0.00    +0.000 C 
ATOM     15  C   UNL     1       5.702   2.765  11.909  0.00  0.00    +0.000 C 
ENDBRANCH  13  15
ENDBRANCH   9  13
ENDBRANCH   1  10
BRANCH   5  16
ATOM     16  C   UNL     1       3.670   5.950  19.408  0.00  0.00    +0.000 C 
BRANCH  16  17
ATOM     17  C   UNL     1       2.715   7.089  19.177  0.00  0.00    +0.000 A 
ATOM     18  C   UNL     1       2.618   7.750  17.950  0.00  0.00    +0.000 A 
ATOM     19  C   UNL     1       1.810   8.878  17.820  0.00  0.00    +0.000 A 
ATOM     20  C   UNL     1       1.104   9.343  18.929  0.00  0.00    +0.000 A 
ATOM     21  N   UNL     1       1.167   8.700  20.131  0.00  0.00    +0.000 NA
ATOM     22  C   UNL     1       1.958   7.604  20.223  0.00  0.00    +0.000 A 
BRANCH  20  23
ATOM     23  C   UNL     1       0.275  10.615  18.820  0.00  0.00    +0.000 C 
ATOM     24  F   UNL     1      -0.699  10.544  17.862  0.00  0.00    +0.000 F 
ATOM     25  F   UNL     1      -0.379  10.935  19.974  0.00  0.00    +0.000 F 
ATOM     26  F   UNL     1       1.018  11.711  18.491  0.00  0.00    +0.000 F 
ENDBRANCH  20  23
ENDBRANCH  16  17
ENDBRANCH   5  16
TORSDOF 6
ENDMDL
MODEL 2
REMARK VINA RESULT:      -7.9      1.452      2.251
REMARK  Name = 
REMARK  9 active torsions:
REMARK  status: ('A' for Active; 'I' for Inactive)
REMARK    1  A    between atoms: C_1  and  C_2
REMARK    2  A    between atoms: C_2  and  C_3
REMARK    3  A    between atoms: C_3  and  N_4
REMARK    4  A    between atoms: C_5  and  C_7
REMARK    5  A    between atoms: C_9  and  C_10
REMARK    6  A    between atoms: C_11  and  C_12
REMARK    7  A    between atoms: C_12  and  C_13
REMARK    8  A    between atoms: C_16  and  C_17
REMARK    9  A    between atoms: C_23  and  C_24
REMARK                            x       y       z     vdW  Elec       q    Type
REMARK                         _______ _______ _______ _____ _____    ______ ____
ROOT
ATOM      1  C   UNL     1       6.644   4.843  15.842  0.00  0.00    +0.000 A 
ATOM      2  N   UNL     1       7.502   5.448  16.724  0.00  0.00    +0.000 N 
ATOM      3  C   UNL     1       7.010   5.390  18.001  0.00  0.00    +0.000 A 
ATOM      4  C   UNL     1       7.814   5.927  19.131  0.00  0.00    +0.000 C 
ATOM      5  C   UNL     1       5.728   4.855  17.940  0.00  0.00    +0.000 A 
ATOM      6  C   UNL     1       5.506   4.485  16.561  0.00  0.00    +0.000 A 
ATOM      7  C   UNL     1       4.255   3.915  15.981  0.00  0.00    +0.000 C 
ATOM      8  H   UNL     1       8.379   5.871  16.445  0.00  0.00    +0.000 HD
ENDROOT
BRANCH   1  10
ATOM      9  N   UNL     1       6.305   3.761  13.763  0.00  0.00    +0.000 N 
ATOM     10  C   UNL     1       6.967   4.760  14.433  0.00  0.00    +0.000 C 
ATOM     11  O   UNL     1       7.796   5.489  13.901  0.00  0.00    +0.000 OA
ATOM     12  H   UNL     1       5.930   3.014  14.333  0.00  0.00    +0.000 HD
BRANCH   9  13
ATOM     13  C   UNL     1       6.496   3.519  12.351  0.00  0.00    +0.000 C 
BRANCH  13  15
ATOM     14  C   UNL     1       4.194   3.217  11.334  0.00  0.00    +0.000 C 
ATOM     15  C   UNL     1       5.466   2.530  11.814  0.00  0.00    +0.000 C 
ENDBRANCH  13  15
ENDBRANCH   9  13
ENDBRANCH   1  10
BRANCH   5  16
ATOM     16  C   UNL     1       4.724   4.810  19.057  0.00  0.00    +0.000 C 
BRANCH  16  17
ATOM     17  C   UNL     1       3.754   5.948  18.900  0.00  0.00    +0.000 A 
ATOM     18  C   UNL     1       3.791   6.822  17.811  0.00  0.00    +0.000 A 
ATOM     19  C   UNL     1       2.952   7.934  17.772  0.00  0.00    +0.000 A 
ATOM     20  C   UNL     1       2.081   8.169  18.835  0.00  0.00    +0.000 A 
ATOM     21  N   UNL     1       2.013   7.318  19.899  0.00  0.00    +0.000 NA
ATOM     22  C   UNL     1       2.838   6.243  19.904  0.00  0.00    +0.000 A 
BRANCH  20  23
ATOM     23  C   UNL     1       1.211   9.419  18.839  0.00  0.00    +0.000 C 
ATOM     24  F   UNL     1       0.548   9.618  17.660  0.00  0.00    +0.000 F 
ATOM     25  F   UNL     1       0.240   9.399  19.798  0.00  0.00    +0.000 F 
ATOM     26  F   UNL     1       1.923  10.564  19.045  0.00  0.00    +0.000 F 
ENDBRANCH  20  23
ENDBRANCH  16  17
ENDBRANCH   5  16
TORSDOF 6
ENDMDL
MODEL 3
REMARK VINA RESULT:      -7.7      3.565      4.658
REMARK  Name = 
REMARK  9 active torsions:
REMARK  status: ('A' for Active; 'I' for Inactive)
REMARK    1  A    between atoms: C_1  and  C_2
REMARK    2  A    between atoms: C_2  and  C_3
REMARK    3  A    between atoms: C_3  and  N_4
REMARK    4  A    between atoms: C_5  and  C_7
REMARK    5  A    between atoms: C_9  and  C_10
REMARK    6  A    between atoms: C_11  and  C_12
REMARK    7  A    between atoms: C_12  and  C_13
REMARK    8  A    between atoms: C_16  and  C_17
REMARK    9  A    between atoms: C_23  and  C_24
REMARK                            x       y       z     vdW  Elec       q    Type
REMARK                         _______ _______ _______ _____ _____    ______ ____
ROOT
ATOM      1  C   UNL     1       6.444   5.543  15.409  0.00  0.00    +0.000 A 
ATOM      2  N   UNL     1       5.314   6.319  15.439  0.00  0.00    +0.000 N 
ATOM      3  C   UNL     1       5.013   6.693  16.722  0.00  0.00    +0.000 A 
ATOM      4  C   UNL     1       3.862   7.598  16.980  0.00  0.00    +0.000 C 
ATOM      5  C   UNL     1       5.888   6.029  17.575  0.00  0.00    +0.000 A 
ATOM      6  C   UNL     1       6.816   5.313  16.731  0.00  0.00    +0.000 A 
ATOM      7  C   UNL     1       7.915   4.409  17.180  0.00  0.00    +0.000 C 
ATOM      8  H   UNL     1       4.792   6.573  14.610  0.00  0.00    +0.000 HD
ENDROOT
BRANCH   1  10
ATOM      9  N   UNL     1       6.202   4.073  13.568  0.00  0.00    +0.000 N 
ATOM     10  C   UNL     1       6.970   5.049  14.153  0.00  0.00    +0.000 C 
ATOM     11  O   UNL     1       8.033   5.437  13.684  0.00  0.00    +0.000 OA
ATOM     12  H   UNL     1       5.561   3.583  14.178  0.00  0.00    +0.000 HD
BRANCH   9  13
ATOM     13  C   UNL     1       6.563   3.454  12.312  0.00  0.00    +0.000 C 
BRANCH  13  15
ATOM     14  C   UNL     1       6.012   1.268  11.155  0.00  0.00    +0.000 C 
ATOM     15  C   UNL     1       5.460   2.526  11.814  0.00  0.00    +0.000 C 
ENDBRANCH  13  15
ENDBRANCH   9  13
ENDBRANCH   1  10
BRANCH   5  16
ATOM     16  C   UNL     1       5.792   5.956  19.073  0.00  0.00    +0.000 C 
BRANCH  16  17
ATOM     17  C   UNL     1       4.669   5.033  19.455  0.00  0.00    +0.000 A 
ATOM     18  C   UNL     1       4.748   3.647  19.298  0.00  0.00    +0.000 A 
ATOM     19  C   UNL     1       3.637   2.845  19.550  0.00  0.00    +0.000 A 
ATOM     20  C   UNL     1       2.443   3.441  19.954  0.00  0.00    +0.000 A 
ATOM     21  N   UNL     1       2.348   4.790  20.135  0.00  0.00    +0.000 NA
ATOM     22  C   UNL     1       3.448   5.541  19.886  0.00  0.00    +0.000 A 
BRANCH  20  23
ATOM     23  C   UNL     1       1.202   2.585  20.163  0.00  0.00    +0.000 C 
ATOM     24  F   UNL     1       1.289   1.355  19.570  0.00  0.00    +0.000 F 
ATOM     25  F   UNL     1       0.934   2.331  21.477  0.00  0.00    +0.000 F 
ATOM     26  F   UNL     1       0.071   3.148  19.649  0.00  0.00    +0.000 F 
ENDBRANCH  20  23
ENDBRANCH  16  17
ENDBRANCH   5  16
TORSDOF 6
ENDMDL
MODEL 4
REMARK VINA RESULT:      -7.7      3.719      4.706
REMARK  Name = 
REMARK  9 active torsions:
REMARK  status: ('A' for Active; 'I' for Inactive)
REMARK    1  A    between atoms: C_1  and  C_2
REMARK    2  A    between atoms: C_2  and  C_3
REMARK    3  A    between atoms: C_3  and  N_4
REMARK    4  A    between atoms: C_5  and  C_7
REMARK    5  A    between atoms: C_9  and  C_10
REMARK    6  A    between atoms: C_11  and  C_12
REMARK    7  A    between atoms: C_12  and  C_13
REMARK    8  A    between atoms: C_16  and  C_17
REMARK    9  A    between atoms: C_23  and  C_24
REMARK                            x       y       z     vdW  Elec       q    Type
REMARK                         _______ _______ _______ _____ _____    ______ ____
ROOT
ATOM      1  C   UNL     1       6.458   5.555  15.352  0.00  0.00    +0.000 A 
ATOM      2  N   UNL     1       5.355   6.369  15.372  0.00  0.00    +0.000 N 
ATOM      3  C   UNL     1       5.035   6.726  16.655  0.00  0.00    +0.000 A 
ATOM      4  C   UNL     1       3.910   7.664  16.905  0.00  0.00    +0.000 C 
ATOM      5  C   UNL     1       5.866   6.016  17.515  0.00  0.00    +0.000 A 
ATOM      6  C   UNL     1       6.791   5.286  16.677  0.00  0.00    +0.000 A 
ATOM      7  C   UNL     1       7.847   4.336  17.133  0.00  0.00    +0.000 C 
ATOM      8  H   UNL     1       4.861   6.658  14.536  0.00  0.00    +0.000 HD
ENDROOT
BRANCH   1  10
ATOM      9  N   UNL     1       6.251   4.079  13.511  0.00  0.00    +0.000 N 
ATOM     10  C   UNL     1       6.998   5.070  14.099  0.00  0.00    +0.000 C 
ATOM     11  O   UNL     1       8.055   5.478  13.633  0.00  0.00    +0.000 OA
ATOM     12  H   UNL     1       5.616   3.578  14.120  0.00  0.00    +0.000 HD
BRANCH   9  13
ATOM     13  C   UNL     1       6.627   3.466  12.258  0.00  0.00    +0.000 C 
BRANCH  13  15
ATOM     14  C   UNL     1       4.249   3.254  11.408  0.00  0.00    +0.000 C 
ATOM     15  C   UNL     1       5.541   2.523  11.753  0.00  0.00    +0.000 C 
ENDBRANCH  13  15
ENDBRANCH   9  13
ENDBRANCH   1  10
BRANCH   5  16
ATOM     16  C   UNL     1       5.732   5.915  19.007  0.00  0.00    +0.000 C 
BRANCH  16  17
ATOM     17  C   UNL     1       4.506   5.112  19.344  0.00  0.00    +0.000 A 
ATOM     18  C   UNL     1       3.333   5.698  19.825  0.00  0.00    +0.000 A 
ATOM     19  C   UNL     1       2.267   4.902  20.239  0.00  0.00    +0.000 A 
ATOM     20  C   UNL     1       2.386   3.514  20.175  0.00  0.00    +0.000 A 
ATOM     21  N   UNL     1       3.514   2.920  19.688  0.00  0.00    +0.000 NA
ATOM     22  C   UNL     1       4.530   3.722  19.289  0.00  0.00    +0.000 A 
BRANCH  20  23
ATOM     23  C   UNL     1       1.258   2.632  20.692  0.00  0.00    +0.000 C 
ATOM     24  F   UNL     1       1.261   2.494  22.053  0.00  0.00    +0.000 F 
ATOM     25  F   UNL     1       0.016   3.105  20.382  0.00  0.00    +0.000 F 
ATOM     26  F   UNL     1       1.309   1.358  20.205  0.00  0.00    +0.000 F 
ENDBRANCH  20  23
ENDBRANCH  16  17
ENDBRANCH   5  16
TORSDOF 6
ENDMDL
MODEL 5
REMARK VINA RESULT:      -7.6      4.402      6.040
REMARK  Name = 
REMARK  9 active torsions:
REMARK  status: ('A' for Active; 'I' for Inactive)
REMARK    1  A    between atoms: C_1  and  C_2
REMARK    2  A    between atoms: C_2  and  C_3
REMARK    3  A    between atoms: C_3  and  N_4
REMARK    4  A    between atoms: C_5  and  C_7
REMARK    5  A    between atoms: C_9  and  C_10
REMARK    6  A    between atoms: C_11  and  C_12
REMARK    7  A    between atoms: C_12  and  C_13
REMARK    8  A    between atoms: C_16  and  C_17
REMARK    9  A    between atoms: C_23  and  C_24
REMARK                            x       y       z     vdW  Elec       q    Type
REMARK                         _______ _______ _______ _____ _____    ______ ____
ROOT
ATOM      1  C   UNL     1       2.086   7.139  19.862  0.00  0.00    +0.000 A 
ATOM      2  N   UNL     1       1.578   7.452  21.096  0.00  0.00    +0.000 N 
ATOM      3  C   UNL     1       0.964   8.676  21.075  0.00  0.00    +0.000 A 
ATOM      4  C   UNL     1       0.281   9.185  22.293  0.00  0.00    +0.000 C 
ATOM      5  C   UNL     1       1.195   9.247  19.828  0.00  0.00    +0.000 A 
ATOM      6  C   UNL     1       1.893   8.251  19.047  0.00  0.00    +0.000 A 
ATOM      7  C   UNL     1       2.407   8.409  17.655  0.00  0.00    +0.000 C 
ATOM      8  H   UNL     1       1.655   6.842  21.901  0.00  0.00    +0.000 HD
ENDROOT
BRANCH   1  10
ATOM      9  N   UNL     1       1.916   4.799  19.537  0.00  0.00    +0.000 N 
ATOM     10  C   UNL     1       2.761   5.877  19.638  0.00  0.00    +0.000 C 
ATOM     11  O   UNL     1       3.981   5.779  19.592  0.00  0.00    +0.000 OA
ATOM     12  H   UNL     1       0.991   4.918  19.929  0.00  0.00    +0.000 HD
BRANCH   9  13
ATOM     13  C   UNL     1       2.400   3.456  19.314  0.00  0.00    +0.000 C 
BRANCH  13  15
ATOM     14  C   UNL     1       1.534   2.751  21.589  0.00  0.00    +0.000 C 
ATOM     15  C   UNL     1       1.583   2.435  20.100  0.00  0.00    +0.000 C 
ENDBRANCH  13  15
ENDBRANCH   9  13
ENDBRANCH   1  10
BRANCH   5  16
ATOM     16  C   UNL     1       0.906  10.665  19.426  0.00  0.00    +0.000 C 
BRANCH  16  17
ATOM     17  C   UNL     1      -0.538  10.784  19.024  0.00  0.00    +0.000 A 
ATOM     18  C   UNL     1      -1.064  10.126  17.909  0.00  0.00    +0.000 A 
ATOM     19  C   UNL     1      -2.376  10.364  17.504  0.00  0.00    +0.000 A 
ATOM     20  C   UNL     1      -3.156  11.272  18.220  0.00  0.00    +0.000 A 
ATOM     21  N   UNL     1      -2.670  11.910  19.324  0.00  0.00    +0.000 NA
ATOM     22  C   UNL     1      -1.393  11.652  19.694  0.00  0.00    +0.000 A 
BRANCH  20  23
ATOM     23  C   UNL     1      -4.566  11.597  17.747  0.00  0.00    +0.000 C 
ATOM     24  F   UNL     1      -4.626  11.938  16.423  0.00  0.00    +0.000 F 
ATOM     25  F   UNL     1      -5.437  10.556  17.888  0.00  0.00    +0.000 F 
ATOM     26  F   UNL     1      -5.124  12.650  18.411  0.00  0.00    +0.000 F 
ENDBRANCH  20  23
ENDBRANCH  16  17
ENDBRANCH   5  16
TORSDOF 6
ENDMDL
MODEL 6
REMARK VINA RESULT:      -7.6      1.605      2.648
REMARK  Name = 
REMARK  9 active torsions:
REMARK  status: ('A' for Active; 'I' for Inactive)
REMARK    1  A    between atoms: C_1  and  C_2
REMARK    2  A    between atoms: C_2  and  C_3
REMARK    3  A    between atoms: C_3  and  N_4
REMARK    4  A    between atoms: C_5  and  C_7
REMARK    5  A    between atoms: C_9  and  C_10
REMARK    6  A    between atoms: C_11  and  C_12
REMARK    7  A    between atoms: C_12  and  C_13
REMARK    8  A    between atoms: C_16  and  C_17
REMARK    9  A    between atoms: C_23  and  C_24
REMARK                            x       y       z     vdW  Elec       q    Type
REMARK                         _______ _______ _______ _____ _____    ______ ____
ROOT
ATOM      1  C   UNL     1       6.662   4.754  15.792  0.00  0.00    +0.000 A 
ATOM      2  N   UNL     1       7.522   5.317  16.699  0.00  0.00    +0.000 N 
ATOM      3  C   UNL     1       7.011   5.242  17.968  0.00  0.00    +0.000 A 
ATOM      4  C   UNL     1       7.813   5.732  19.120  0.00  0.00    +0.000 C 
ATOM      5  C   UNL     1       5.717   4.742  17.877  0.00  0.00    +0.000 A 
ATOM      6  C   UNL     1       5.505   4.409  16.487  0.00  0.00    +0.000 A 
ATOM      7  C   UNL     1       4.248   3.885  15.877  0.00  0.00    +0.000 C 
ATOM      8  H   UNL     1       8.413   5.724  16.442  0.00  0.00    +0.000 HD
ENDROOT
BRANCH   1  10
ATOM      9  N   UNL     1       6.378   3.684  13.698  0.00  0.00    +0.000 N 
ATOM     10  C   UNL     1       7.002   4.696  14.386  0.00  0.00    +0.000 C 
ATOM     11  O   UNL     1       7.814   5.455  13.871  0.00  0.00    +0.000 OA
ATOM     12  H   UNL     1       6.020   2.920  14.256  0.00  0.00    +0.000 HD
BRANCH   9  13
ATOM     13  C   UNL     1       6.592   3.462  12.286  0.00  0.00    +0.000 C 
BRANCH  13  15
ATOM     14  C   UNL     1       6.269   1.239  11.114  0.00  0.00    +0.000 C 
ATOM     15  C   UNL     1       5.590   2.458  11.725  0.00  0.00    +0.000 C 
ENDBRANCH  13  15
ENDBRANCH   9  13
ENDBRANCH   1  10
BRANCH   5  16
ATOM     16  C   UNL     1       4.697   4.696  18.979  0.00  0.00    +0.000 C 
BRANCH  16  17
ATOM     17  C   UNL     1       3.868   5.950  18.942  0.00  0.00    +0.000 A 
ATOM     18  C   UNL     1       2.878   6.224  19.889  0.00  0.00    +0.000 A 
ATOM     19  C   UNL     1       2.053   7.337  19.743  0.00  0.00    +0.000 A 
ATOM     20  C   UNL     1       2.223   8.172  18.638  0.00  0.00    +0.000 A 
ATOM     21  N   UNL     1       3.197   7.936  17.713  0.00  0.00    +0.000 NA
ATOM     22  C   UNL     1       3.985   6.847  17.887  0.00  0.00    +0.000 A 
BRANCH  20  23
ATOM     23  C   UNL     1       1.282   9.350  18.428  0.00  0.00    +0.000 C 
ATOM     24  F   UNL     1       1.922  10.482  18.002  0.00  0.00    +0.000 F 
ATOM     25  F   UNL     1       0.316   9.111  17.494  0.00  0.00    +0.000 F 
ATOM     26  F   UNL     1       0.625   9.719  19.566  0.00  0.00    +0.000 F 
ENDBRANCH  20  23
ENDBRANCH  16  17
ENDBRANCH   5  16
TORSDOF 6
ENDMDL
MODEL 7
REMARK VINA RESULT:      -7.6      3.868      4.852
REMARK  Name = 
REMARK  9 active torsions:
REMARK  status: ('A' for Active; 'I' for Inactive)
REMARK    1  A    between atoms: C_1  and  C_2
REMARK    2  A    between atoms: C_2  and  C_3
REMARK    3  A    between atoms: C_3  and  N_4
REMARK    4  A    between atoms: C_5  and  C_7
REMARK    5  A    between atoms: C_9  and  C_10
REMARK    6  A    between atoms: C_11  and  C_12
REMARK    7  A    between atoms: C_12  and  C_13
REMARK    8  A    between atoms: C_16  and  C_17
REMARK    9  A    between atoms: C_23  and  C_24
REMARK                            x       y       z     vdW  Elec       q    Type
REMARK                         _______ _______ _______ _____ _____    ______ ____
ROOT
ATOM      1  C   UNL     1       6.891   5.019  15.216  0.00  0.00    +0.000 A 
ATOM      2  N   UNL     1       7.838   4.661  16.140  0.00  0.00    +0.000 N 
ATOM      3  C   UNL     1       7.414   4.947  17.410  0.00  0.00    +0.000 A 
ATOM      4  C   UNL     1       8.258   4.577  18.576  0.00  0.00    +0.000 C 
ATOM      5  C   UNL     1       6.212   5.641  17.312  0.00  0.00    +0.000 A 
ATOM      6  C   UNL     1       5.869   5.664  15.908  0.00  0.00    +0.000 A 
ATOM      7  C   UNL     1       4.691   6.339  15.289  0.00  0.00    +0.000 C 
ATOM      8  H   UNL     1       8.725   4.239  15.893  0.00  0.00    +0.000 HD
ENDROOT
BRANCH   1  10
ATOM      9  N   UNL     1       6.491   3.662  13.316  0.00  0.00    +0.000 N 
ATOM     10  C   UNL     1       7.110   4.787  13.803  0.00  0.00    +0.000 C 
ATOM     11  O   UNL     1       7.825   5.509  13.119  0.00  0.00    +0.000 OA
ATOM     12  H   UNL     1       6.231   2.964  14.000  0.00  0.00    +0.000 HD
BRANCH   9  13
ATOM     13  C   UNL     1       6.593   3.262  11.931  0.00  0.00    +0.000 C 
BRANCH  13  15
ATOM     14  C   UNL     1       4.147   3.215  11.273  0.00  0.00    +0.000 C 
ATOM     15  C   UNL     1       5.408   2.396  11.515  0.00  0.00    +0.000 C 
ENDBRANCH  13  15
ENDBRANCH   9  13
ENDBRANCH   1  10
BRANCH   5  16
ATOM     16  C   UNL     1       5.494   6.349  18.425  0.00  0.00    +0.000 C 
BRANCH  16  17
ATOM     17  C   UNL     1       4.453   5.433  19.007  0.00  0.00    +0.000 A 
ATOM     18  C   UNL     1       3.251   5.905  19.540  0.00  0.00    +0.000 A 
ATOM     19  C   UNL     1       2.373   5.032  20.179  0.00  0.00    +0.000 A 
ATOM     20  C   UNL     1       2.710   3.683  20.286  0.00  0.00    +0.000 A 
ATOM     21  N   UNL     1       3.867   3.196  19.753  0.00  0.00    +0.000 NA
ATOM     22  C   UNL     1       4.697   4.070  19.134  0.00  0.00    +0.000 A 
BRANCH  20  23
ATOM     23  C   UNL     1       1.794   2.732  21.044  0.00  0.00    +0.000 C 
ATOM     24  F   UNL     1       0.737   3.362  21.642  0.00  0.00    +0.000 F 
ATOM     25  F   UNL     1       1.237   1.771  20.252  0.00  0.00    +0.000 F 
ATOM     26  F   UNL     1       2.430   2.069  22.053  0.00  0.00    +0.000 F 
ENDBRANCH  20  23
ENDBRANCH  16  17
ENDBRANCH   5  16
TORSDOF 6
ENDMDL
MODEL 8
REMARK VINA RESULT:      -7.5      3.788      4.796
REMARK  Name = 
REMARK  9 active torsions:
REMARK  status: ('A' for Active; 'I' for Inactive)
REMARK    1  A    between atoms: C_1  and  C_2
REMARK    2  A    between atoms: C_2  and  C_3
REMARK    3  A    between atoms: C_3  and  N_4
REMARK    4  A    between atoms: C_5  and  C_7
REMARK    5  A    between atoms: C_9  and  C_10
REMARK    6  A    between atoms: C_11  and  C_12
REMARK    7  A    between atoms: C_12  and  C_13
REMARK    8  A    between atoms: C_16  and  C_17
REMARK    9  A    between atoms: C_23  and  C_24
REMARK                            x       y       z     vdW  Elec       q    Type
REMARK                         _______ _______ _______ _____ _____    ______ ____
ROOT
ATOM      1  C   UNL     1       6.492   5.526  15.343  0.00  0.00    +0.000 A 
ATOM      2  N   UNL     1       5.365   6.306  15.370  0.00  0.00    +0.000 N 
ATOM      3  C   UNL     1       5.050   6.665  16.653  0.00  0.00    +0.000 A 
ATOM      4  C   UNL     1       3.900   7.571  16.909  0.00  0.00    +0.000 C 
ATOM      5  C   UNL     1       5.913   5.989  17.509  0.00  0.00    +0.000 A 
ATOM      6  C   UNL     1       6.849   5.279  16.666  0.00  0.00    +0.000 A 
ATOM      7  C   UNL     1       7.940   4.366  17.118  0.00  0.00    +0.000 C 
ATOM      8  H   UNL     1       4.853   6.572  14.537  0.00  0.00    +0.000 HD
ENDROOT
BRANCH   1  10
ATOM      9  N   UNL     1       6.278   4.066  13.491  0.00  0.00    +0.000 N 
ATOM     10  C   UNL     1       7.032   5.046  14.088  0.00  0.00    +0.000 C 
ATOM     11  O   UNL     1       8.093   5.448  13.628  0.00  0.00    +0.000 OA
ATOM     12  H   UNL     1       5.638   3.565  14.094  0.00  0.00    +0.000 HD
BRANCH   9  13
ATOM     13  C   UNL     1       6.653   3.459  12.234  0.00  0.00    +0.000 C 
BRANCH  13  15
ATOM     14  C   UNL     1       6.251   1.226  11.105  0.00  0.00    +0.000 C 
ATOM     15  C   UNL     1       5.617   2.435  11.781  0.00  0.00    +0.000 C 
ENDBRANCH  13  15
ENDBRANCH   9  13
ENDBRANCH   1  10
BRANCH   5  16
ATOM     16  C   UNL     1       5.800   5.898  19.004  0.00  0.00    +0.000 C 
BRANCH  16  17
ATOM     17  C   UNL     1       4.605   5.059  19.362  0.00  0.00    +0.000 A 
ATOM     18  C   UNL     1       3.416   5.613  19.845  0.00  0.00    +0.000 A 
ATOM     19  C   UNL     1       2.381   4.788  20.281  0.00  0.00    +0.000 A 
ATOM     20  C   UNL     1       2.547   3.404  20.235  0.00  0.00    +0.000 A 
ATOM     21  N   UNL     1       3.689   2.841  19.747  0.00  0.00    +0.000 NA
ATOM     22  C   UNL     1       4.675   3.671  19.327  0.00  0.00    +0.000 A 
BRANCH  20  23
ATOM     23  C   UNL     1       1.453   2.492  20.774  0.00  0.00    +0.000 C 
ATOM     24  F   UNL     1       1.223   1.400  19.984  0.00  0.00    +0.000 F 
ATOM     25  F   UNL     1       1.730   1.988  22.011  0.00  0.00    +0.000 F 
ATOM     26  F   UNL     1       0.243   3.114  20.882  0.00  0.00    +0.000 F 
ENDBRANCH  20  23
ENDBRANCH  16  17
ENDBRANCH   5  16
TORSDOF 6
ENDMDL
MODEL 9
REMARK VINA RESULT:      -7.5      0.621      1.250
REMARK  Name = 
REMARK  9 active torsions:
REMARK  status: ('A' for Active; 'I' for Inactive)
REMARK    1  A    between atoms: C_1  and  C_2
REMARK    2  A    between atoms: C_2  and  C_3
REMARK    3  A    between atoms: C_3  and  N_4
REMARK    4  A    between atoms: C_5  and  C_7
REMARK    5  A    between atoms: C_9  and  C_10
REMARK    6  A    between atoms: C_11  and  C_12
REMARK    7  A    between atoms: C_12  and  C_13
REMARK    8  A    between atoms: C_16  and  C_17
REMARK    9  A    between atoms: C_23  and  C_24
REMARK                            x       y       z     vdW  Elec       q    Type
REMARK                         _______ _______ _______ _____ _____    ______ ____
ROOT
ATOM      1  C   UNL     1       5.185   4.661  16.376  0.00  0.00    +0.000 A 
ATOM      2  N   UNL     1       4.052   3.891  16.433  0.00  0.00    +0.000 N 
ATOM      3  C   UNL     1       3.255   4.272  17.480  0.00  0.00    +0.000 A 
ATOM      4  C   UNL     1       1.938   3.614  17.687  0.00  0.00    +0.000 C 
ATOM      5  C   UNL     1       3.946   5.228  18.216  0.00  0.00    +0.000 A 
ATOM      6  C   UNL     1       5.170   5.491  17.494  0.00  0.00    +0.000 A 
ATOM      7  C   UNL     1       6.272   6.407  17.911  0.00  0.00    +0.000 C 
ATOM      8  H   UNL     1       3.851   3.148  15.776  0.00  0.00    +0.000 HD
ENDROOT
BRANCH   1  10
ATOM      9  N   UNL     1       5.630   4.175  14.101  0.00  0.00    +0.000 N 
ATOM     10  C   UNL     1       6.168   4.456  15.333  0.00  0.00    +0.000 C 
ATOM     11  O   UNL     1       7.374   4.484  15.548  0.00  0.00    +0.000 OA
ATOM     12  H   UNL     1       4.678   3.833  14.097  0.00  0.00    +0.000 HD
BRANCH   9  13
ATOM     13  C   UNL     1       6.450   3.938  12.935  0.00  0.00    +0.000 C 
BRANCH  13  15
ATOM     14  C   UNL     1       4.446   3.300  11.522  0.00  0.00    +0.000 C 
ATOM     15  C   UNL     1       5.825   2.888  12.022  0.00  0.00    +0.000 C 
ENDBRANCH  13  15
ENDBRANCH   9  13
ENDBRANCH   1  10
BRANCH   5  16
ATOM     16  C   UNL     1       3.563   5.767  19.565  0.00  0.00    +0.000 C 
BRANCH  16  17
ATOM     17  C   UNL     1       2.749   7.018  19.388  0.00  0.00    +0.000 A 
ATOM     18  C   UNL     1       1.981   7.567  20.418  0.00  0.00    +0.000 A 
ATOM     19  C   UNL     1       1.147   8.656  20.171  0.00  0.00    +0.000 A 
ATOM     20  C   UNL     1       1.083   9.188  18.884  0.00  0.00    +0.000 A 
ATOM     21  N   UNL     1       1.841   8.683  17.868  0.00  0.00    +0.000 NA
ATOM     22  C   UNL     1       2.645   7.627  18.142  0.00  0.00    +0.000 A 
BRANCH  20  23
ATOM     23  C   UNL     1       0.123  10.331  18.584  0.00  0.00    +0.000 C 
ATOM     24  F   UNL     1      -0.759  10.576  19.601  0.00  0.00    +0.000 F 
ATOM     25  F   UNL     1       0.752  11.521  18.360  0.00  0.00    +0.000 F 
ATOM     26  F   UNL     1      -0.655  10.101  17.487  0.00  0.00    +0.000 F 
ENDBRANCH  20  23
ENDBRANCH  16  17
ENDBRANCH   5  16
TORSDOF 6
ENDMDL
