MODEL 1
REMARK VINA RESULT:      -7.3      0.000      0.000
REMARK  Name = 
REMARK  3 active torsions:
REMARK  status: ('A' for Active; 'I' for Inactive)
REMARK    1  A    between atoms: C_1  and  C_2
REMARK    2  A    between atoms: C_7  and  C_8
REMARK    3  A    between atoms: N_10  and  C_11
REMARK                            x       y       z     vdW  Elec       q    Type
REMARK                         _______ _______ _______ _____ _____    ______ ____
ROOT
ATOM      1  C   UNL     1       3.726   4.619  18.025  0.00  0.00    +0.000 C 
ATOM      2  O   UNL     1       3.325   5.668  17.528  0.00  0.00    +0.000 OA
ATOM      3  N   UNL     1       4.833   3.908  17.592  0.00  0.00    +0.000 N 
ATOM      4  H   UNL     1       4.935   2.962  17.932  0.00  0.00    +0.000 HD
ENDROOT
BRANCH   3   5
ATOM      5  C   UNL     1       5.689   4.285  16.529  0.00  0.00    +0.000 A 
ATOM      6  C   UNL     1       6.669   5.298  16.634  0.00  0.00    +0.000 A 
ATOM      7  C   UNL     1       7.450   5.683  15.539  0.00  0.00    +0.000 A 
ATOM      8  C   UNL     1       7.224   5.049  14.338  0.00  0.00    +0.000 A 
ATOM      9  C   UNL     1       6.303   4.039  14.227  0.00  0.00    +0.000 A 
ATOM     10  C   UNL     1       5.535   3.623  15.300  0.00  0.00    +0.000 A 
ATOM     11  O   UNL     1       6.224   3.550  12.958  0.00  0.00    +0.000 OA
ATOM     12  C   UNL     1       7.145   4.428  12.274  0.00  0.00    +0.000 C 
ATOM     13  O   UNL     1       7.851   5.316  13.162  0.00  0.00    +0.000 OA
ENDBRANCH   3   5
BRANCH   1  20
ATOM     14  C   UNL     1       2.182   1.870  17.862  0.00  0.00    +0.000 C 
ATOM     15  C   UNL     1       2.217   2.773  19.062  0.00  0.00    +0.000 A 
ATOM     16  C   UNL     1       1.551   2.321  20.224  0.00  0.00    +0.000 A 
ATOM     17  C   UNL     1       1.548   3.066  21.404  0.00  0.00    +0.000 A 
ATOM     18  C   UNL     1       2.197   4.291  21.447  0.00  0.00    +0.000 A 
ATOM     19  C   UNL     1       2.858   4.758  20.311  0.00  0.00    +0.000 A 
ATOM     20  C   UNL     1       2.884   4.015  19.111  0.00  0.00    +0.000 A 
ENDBRANCH   1  20
TORSDOF 2
ENDMDL
MODEL 2
REMARK VINA RESULT:      -7.3      1.232      1.752
REMARK  Name = 
REMARK  3 active torsions:
REMARK  status: ('A' for Active; 'I' for Inactive)
REMARK    1  A    between atoms: C_1  and  C_2
REMARK    2  A    between atoms: C_7  and  C_8
REMARK    3  A    between atoms: N_10  and  C_11
REMARK                            x       y       z     vdW  Elec       q    Type
REMARK                         _______ _______ _______ _____ _____    ______ ____
ROOT
ATOM      1  C   UNL     1       4.711   4.128  18.689  0.00  0.00    +0.000 C 
ATOM      2  O   UNL     1       5.844   4.137  19.161  0.00  0.00    +0.000 OA
ATOM      3  N   UNL     1       4.407   4.315  17.350  0.00  0.00    +0.000 N 
ATOM      4  H   UNL     1       3.441   4.502  17.118  0.00  0.00    +0.000 HD
ENDROOT
BRANCH   3   5
ATOM      5  C   UNL     1       5.349   4.521  16.315  0.00  0.00    +0.000 A 
ATOM      6  C   UNL     1       6.393   5.471  16.382  0.00  0.00    +0.000 A 
ATOM      7  C   UNL     1       7.263   5.687  15.308  0.00  0.00    +0.000 A 
ATOM      8  C   UNL     1       7.063   4.947  14.164  0.00  0.00    +0.000 A 
ATOM      9  C   UNL     1       6.079   3.995  14.094  0.00  0.00    +0.000 A 
ATOM     10  C   UNL     1       5.221   3.746  15.150  0.00  0.00    +0.000 A 
ATOM     11  O   UNL     1       6.039   3.382  12.878  0.00  0.00    +0.000 OA
ATOM     12  C   UNL     1       7.061   4.121  12.172  0.00  0.00    +0.000 C 
ATOM     13  O   UNL     1       7.776   5.047  13.011  0.00  0.00    +0.000 OA
ENDBRANCH   3   5
BRANCH   1  20
ATOM     14  C   UNL     1       2.635   6.403  19.384  0.00  0.00    +0.000 C 
ATOM     15  C   UNL     1       2.616   5.012  19.953  0.00  0.00    +0.000 A 
ATOM     16  C   UNL     1       1.551   4.688  20.821  0.00  0.00    +0.000 A 
ATOM     17  C   UNL     1       1.420   3.415  21.379  0.00  0.00    +0.000 A 
ATOM     18  C   UNL     1       2.363   2.439  21.096  0.00  0.00    +0.000 A 
ATOM     19  C   UNL     1       3.426   2.738  20.243  0.00  0.00    +0.000 A 
ATOM     20  C   UNL     1       3.570   4.014  19.659  0.00  0.00    +0.000 A 
ENDBRANCH   1  20
TORSDOF 2
ENDMDL
MODEL 3
REMARK VINA RESULT:      -7.1      0.939      1.097
REMARK  Name = 
REMARK  3 active torsions:
REMARK  status: ('A' for Active; 'I' for Inactive)
REMARK    1  A    between atoms: C_1  and  C_2
REMARK    2  A    between atoms: C_7  and  C_8
REMARK    3  A    between atoms: N_10  and  C_11
REMARK                            x       y       z     vdW  Elec       q    Type
REMARK                         _______ _______ _______ _____ _____    ______ ____
ROOT
ATOM      1  C   UNL     1       3.876   4.469  18.182  0.00  0.00    +0.000 C 
ATOM      2  O   UNL     1       3.617   5.632  17.886  0.00  0.00    +0.000 OA
ATOM      3  N   UNL     1       4.835   3.686  17.561  0.00  0.00    +0.000 N 
ATOM      4  H   UNL     1       4.806   2.692  17.742  0.00  0.00    +0.000 HD
ENDROOT
BRANCH   3   5
ATOM      5  C   UNL     1       5.683   4.105  16.508  0.00  0.00    +0.000 A 
ATOM      6  C   UNL     1       6.669   5.107  16.648  0.00  0.00    +0.000 A 
ATOM      7  C   UNL     1       7.443   5.537  15.564  0.00  0.00    +0.000 A 
ATOM      8  C   UNL     1       7.203   4.956  14.339  0.00  0.00    +0.000 A 
ATOM      9  C   UNL     1       6.275   3.958  14.192  0.00  0.00    +0.000 A 
ATOM     10  C   UNL     1       5.515   3.498  15.253  0.00  0.00    +0.000 A 
ATOM     11  O   UNL     1       6.182   3.524  12.904  0.00  0.00    +0.000 OA
ATOM     12  C   UNL     1       7.101   4.427  12.250  0.00  0.00    +0.000 C 
ATOM     13  O   UNL     1       7.820   5.272  13.169  0.00  0.00    +0.000 OA
ENDBRANCH   3   5
BRANCH   1  20
ATOM     14  C   UNL     1       4.755   2.179  20.169  0.00  0.00    +0.000 C 
ATOM     15  C   UNL     1       3.398   2.822  20.138  0.00  0.00    +0.000 A 
ATOM     16  C   UNL     1       2.467   2.404  21.114  0.00  0.00    +0.000 A 
ATOM     17  C   UNL     1       1.188   2.959  21.194  0.00  0.00    +0.000 A 
ATOM     18  C   UNL     1       0.804   3.935  20.288  0.00  0.00    +0.000 A 
ATOM     19  C   UNL     1       1.706   4.361  19.313  0.00  0.00    +0.000 A 
ATOM     20  C   UNL     1       3.007   3.822  19.222  0.00  0.00    +0.000 A 
ENDBRANCH   1  20
TORSDOF 2
ENDMDL
MODEL 4
REMARK VINA RESULT:      -7.0      0.695      1.681
REMARK  Name = 
REMARK  3 active torsions:
REMARK  status: ('A' for Active; 'I' for Inactive)
REMARK    1  A    between atoms: C_1  and  C_2
REMARK    2  A    between atoms: C_7  and  C_8
REMARK    3  A    between atoms: N_10  and  C_11
REMARK                            x       y       z     vdW  Elec       q    Type
REMARK                         _______ _______ _______ _____ _____    ______ ____
ROOT
ATOM      1  C   UNL     1       3.682   4.783  17.766  0.00  0.00    +0.000 C 
ATOM      2  O   UNL     1       3.509   5.956  17.449  0.00  0.00    +0.000 OA
ATOM      3  N   UNL     1       4.631   3.941  17.210  0.00  0.00    +0.000 N 
ATOM      4  H   UNL     1       4.535   2.952  17.393  0.00  0.00    +0.000 HD
ENDROOT
BRANCH   3   5
ATOM      5  C   UNL     1       5.565   4.302  16.209  0.00  0.00    +0.000 A 
ATOM      6  C   UNL     1       6.598   5.247  16.405  0.00  0.00    +0.000 A 
ATOM      7  C   UNL     1       7.459   5.622  15.368  0.00  0.00    +0.000 A 
ATOM      8  C   UNL     1       7.261   5.047  14.133  0.00  0.00    +0.000 A 
ATOM      9  C   UNL     1       6.288   4.102  13.934  0.00  0.00    +0.000 A 
ATOM     10  C   UNL     1       5.439   3.696  14.948  0.00  0.00    +0.000 A 
ATOM     11  O   UNL     1       6.249   3.665  12.645  0.00  0.00    +0.000 OA
ATOM     12  C   UNL     1       7.257   4.508  12.045  0.00  0.00    +0.000 C 
ATOM     13  O   UNL     1       7.966   5.317  13.003  0.00  0.00    +0.000 OA
ENDBRANCH   3   5
BRANCH   1  20
ATOM     14  C   UNL     1       2.265   6.336  20.121  0.00  0.00    +0.000 C 
ATOM     15  C   UNL     1       2.051   4.886  19.789  0.00  0.00    +0.000 A 
ATOM     16  C   UNL     1       1.097   4.186  20.560  0.00  0.00    +0.000 A 
ATOM     17  C   UNL     1       0.797   2.845  20.315  0.00  0.00    +0.000 A 
ATOM     18  C   UNL     1       1.458   2.165  19.303  0.00  0.00    +0.000 A 
ATOM     19  C   UNL     1       2.406   2.837  18.531  0.00  0.00    +0.000 A 
ATOM     20  C   UNL     1       2.716   4.195  18.754  0.00  0.00    +0.000 A 
ENDBRANCH   1  20
TORSDOF 2
ENDMDL
MODEL 5
REMARK VINA RESULT:      -6.9      5.446      7.899
REMARK  Name = 
REMARK  3 active torsions:
REMARK  status: ('A' for Active; 'I' for Inactive)
REMARK    1  A    between atoms: C_1  and  C_2
REMARK    2  A    between atoms: C_7  and  C_8
REMARK    3  A    between atoms: N_10  and  C_11
REMARK                            x       y       z     vdW  Elec       q    Type
REMARK                         _______ _______ _______ _____ _____    ______ ____
ROOT
ATOM      1  C   UNL     1       2.391   7.451  18.525  0.00  0.00    +0.000 C 
ATOM      2  O   UNL     1       2.293   7.514  19.747  0.00  0.00    +0.000 OA
ATOM      3  N   UNL     1       2.018   8.455  17.646  0.00  0.00    +0.000 N 
ATOM      4  H   UNL     1       1.942   8.207  16.669  0.00  0.00    +0.000 HD
ENDROOT
BRANCH   3   5
ATOM      5  C   UNL     1       1.489   9.715  18.014  0.00  0.00    +0.000 A 
ATOM      6  C   UNL     1       2.276  10.876  18.182  0.00  0.00    +0.000 A 
ATOM      7  C   UNL     1       1.720  12.087  18.609  0.00  0.00    +0.000 A 
ATOM      8  C   UNL     1       0.370  12.112  18.877  0.00  0.00    +0.000 A 
ATOM      9  C   UNL     1      -0.415  11.004  18.685  0.00  0.00    +0.000 A 
ATOM     10  C   UNL     1       0.105   9.802  18.241  0.00  0.00    +0.000 A 
ATOM     11  O   UNL     1      -1.717  11.230  19.016  0.00  0.00    +0.000 OA
ATOM     12  C   UNL     1      -1.636  12.584  19.514  0.00  0.00    +0.000 C 
ATOM     13  O   UNL     1      -0.335  13.177  19.340  0.00  0.00    +0.000 OA
ENDBRANCH   3   5
BRANCH   1  20
ATOM     14  C   UNL     1       5.212   6.887  17.224  0.00  0.00    +0.000 C 
ATOM     15  C   UNL     1       4.118   5.871  17.391  0.00  0.00    +0.000 A 
ATOM     16  C   UNL     1       4.403   4.548  16.984  0.00  0.00    +0.000 A 
ATOM     17  C   UNL     1       3.470   3.520  17.125  0.00  0.00    +0.000 A 
ATOM     18  C   UNL     1       2.220   3.793  17.661  0.00  0.00    +0.000 A 
ATOM     19  C   UNL     1       1.916   5.092  18.067  0.00  0.00    +0.000 A 
ATOM     20  C   UNL     1       2.849   6.144  17.945  0.00  0.00    +0.000 A 
ENDBRANCH   1  20
TORSDOF 2
ENDMDL
MODEL 6
REMARK VINA RESULT:      -6.8      5.303      7.857
REMARK  Name = 
REMARK  3 active torsions:
REMARK  status: ('A' for Active; 'I' for Inactive)
REMARK    1  A    between atoms: C_1  and  C_2
REMARK    2  A    between atoms: C_7  and  C_8
REMARK    3  A    between atoms: N_10  and  C_11
REMARK                            x       y       z     vdW  Elec       q    Type
REMARK                         _______ _______ _______ _____ _____    ______ ____
ROOT
ATOM      1  C   UNL     1       2.673   7.481  18.452  0.00  0.00    +0.000 C 
ATOM      2  O   UNL     1       2.410   7.418  19.650  0.00  0.00    +0.000 OA
ATOM      3  N   UNL     1       2.252   8.487  17.598  0.00  0.00    +0.000 N 
ATOM      4  H   UNL     1       2.346   8.320  16.606  0.00  0.00    +0.000 HD
ENDROOT
BRANCH   3   5
ATOM      5  C   UNL     1       1.475   9.610  17.971  0.00  0.00    +0.000 A 
ATOM      6  C   UNL     1       2.027  10.846  18.377  0.00  0.00    +0.000 A 
ATOM      7  C   UNL     1       1.222  11.909  18.799  0.00  0.00    +0.000 A 
ATOM      8  C   UNL     1      -0.141  11.710  18.821  0.00  0.00    +0.000 A 
ATOM      9  C   UNL     1      -0.695  10.531  18.397  0.00  0.00    +0.000 A 
ATOM     10  C   UNL     1       0.077   9.472  17.952  0.00  0.00    +0.000 A 
ATOM     11  O   UNL     1      -2.053  10.530  18.506  0.00  0.00    +0.000 OA
ATOM     12  C   UNL     1      -2.273  11.817  19.124  0.00  0.00    +0.000 C 
ATOM     13  O   UNL     1      -1.074  12.606  19.238  0.00  0.00    +0.000 OA
ENDBRANCH   3   5
BRANCH   1  20
ATOM     14  C   UNL     1       1.697   4.479  18.409  0.00  0.00    +0.000 C 
ATOM     15  C   UNL     1       2.976   4.981  17.801  0.00  0.00    +0.000 A 
ATOM     16  C   UNL     1       3.770   4.040  17.109  0.00  0.00    +0.000 A 
ATOM     17  C   UNL     1       4.961   4.406  16.480  0.00  0.00    +0.000 A 
ATOM     18  C   UNL     1       5.396   5.721  16.543  0.00  0.00    +0.000 A 
ATOM     19  C   UNL     1       4.630   6.667  17.224  0.00  0.00    +0.000 A 
ATOM     20  C   UNL     1       3.417   6.320  17.856  0.00  0.00    +0.000 A 
ENDBRANCH   1  20
TORSDOF 2
ENDMDL
MODEL 7
REMARK VINA RESULT:      -6.8      5.511      7.766
REMARK  Name = 
REMARK  3 active torsions:
REMARK  status: ('A' for Active; 'I' for Inactive)
REMARK    1  A    between atoms: C_1  and  C_2
REMARK    2  A    between atoms: C_7  and  C_8
REMARK    3  A    between atoms: N_10  and  C_11
REMARK                            x       y       z     vdW  Elec       q    Type
REMARK                         _______ _______ _______ _____ _____    ______ ____
ROOT
ATOM      1  C   UNL     1       2.372   7.429  18.571  0.00  0.00    +0.000 C 
ATOM      2  O   UNL     1       2.307   7.478  19.796  0.00  0.00    +0.000 OA
ATOM      3  N   UNL     1       1.967   8.439  17.714  0.00  0.00    +0.000 N 
ATOM      4  H   UNL     1       1.866   8.201  16.736  0.00  0.00    +0.000 HD
ENDROOT
BRANCH   3   5
ATOM      5  C   UNL     1       1.438   9.690  18.109  0.00  0.00    +0.000 A 
ATOM      6  C   UNL     1       0.075   9.902  18.421  0.00  0.00    +0.000 A 
ATOM      7  C   UNL     1      -0.417  11.171  18.745  0.00  0.00    +0.000 A 
ATOM      8  C   UNL     1       0.471  12.223  18.739  0.00  0.00    +0.000 A 
ATOM      9  C   UNL     1       1.803  12.029  18.475  0.00  0.00    +0.000 A 
ATOM     10  C   UNL     1       2.320  10.781  18.175  0.00  0.00    +0.000 A 
ATOM     11  O   UNL     1       2.510  13.193  18.508  0.00  0.00    +0.000 OA
ATOM     12  C   UNL     1       1.449  14.145  18.744  0.00  0.00    +0.000 C 
ATOM     13  O   UNL     1       0.172  13.525  18.984  0.00  0.00    +0.000 OA
ENDBRANCH   3   5
BRANCH   1  20
ATOM     14  C   UNL     1       5.191   6.879  17.260  0.00  0.00    +0.000 C 
ATOM     15  C   UNL     1       4.093   5.864  17.406  0.00  0.00    +0.000 A 
ATOM     16  C   UNL     1       4.372   4.549  16.972  0.00  0.00    +0.000 A 
ATOM     17  C   UNL     1       3.434   3.523  17.092  0.00  0.00    +0.000 A 
ATOM     18  C   UNL     1       2.185   3.790  17.633  0.00  0.00    +0.000 A 
ATOM     19  C   UNL     1       1.887   5.082  18.065  0.00  0.00    +0.000 A 
ATOM     20  C   UNL     1       2.825   6.132  17.965  0.00  0.00    +0.000 A 
ENDBRANCH   1  20
TORSDOF 2
ENDMDL
MODEL 8
REMARK VINA RESULT:      -6.8      1.303      1.365
REMARK  Name = 
REMARK  3 active torsions:
REMARK  status: ('A' for Active; 'I' for Inactive)
REMARK    1  A    between atoms: C_1  and  C_2
REMARK    2  A    between atoms: C_7  and  C_8
REMARK    3  A    between atoms: N_10  and  C_11
REMARK                            x       y       z     vdW  Elec       q    Type
REMARK                         _______ _______ _______ _____ _____    ______ ____
ROOT
ATOM      1  C   UNL     1       3.974   3.206  18.164  0.00  0.00    +0.000 C 
ATOM      2  O   UNL     1       4.465   2.129  17.837  0.00  0.00    +0.000 OA
ATOM      3  N   UNL     1       4.366   4.440  17.670  0.00  0.00    +0.000 N 
ATOM      4  H   UNL     1       4.044   5.259  18.167  0.00  0.00    +0.000 HD
ENDROOT
BRANCH   3   5
ATOM      5  C   UNL     1       5.372   4.654  16.698  0.00  0.00    +0.000 A 
ATOM      6  C   UNL     1       6.512   5.460  16.916  0.00  0.00    +0.000 A 
ATOM      7  C   UNL     1       7.450   5.697  15.904  0.00  0.00    +0.000 A 
ATOM      8  C   UNL     1       7.220   5.127  14.673  0.00  0.00    +0.000 A 
ATOM      9  C   UNL     1       6.138   4.314  14.454  0.00  0.00    +0.000 A 
ATOM     10  C   UNL     1       5.209   4.044  15.444  0.00  0.00    +0.000 A 
ATOM     11  O   UNL     1       6.085   3.858  13.171  0.00  0.00    +0.000 OA
ATOM     12  C   UNL     1       7.215   4.549  12.595  0.00  0.00    +0.000 C 
ATOM     13  O   UNL     1       7.991   5.278  13.564  0.00  0.00    +0.000 OA
ENDBRANCH   3   5
BRANCH   1  20
ATOM     14  C   UNL     1       0.929   3.988  17.874  0.00  0.00    +0.000 C 
ATOM     15  C   UNL     1       1.579   3.497  19.136  0.00  0.00    +0.000 A 
ATOM     16  C   UNL     1       0.743   3.320  20.262  0.00  0.00    +0.000 A 
ATOM     17  C   UNL     1       1.238   2.839  21.474  0.00  0.00    +0.000 A 
ATOM     18  C   UNL     1       2.587   2.539  21.597  0.00  0.00    +0.000 A 
ATOM     19  C   UNL     1       3.431   2.708  20.500  0.00  0.00    +0.000 A 
ATOM     20  C   UNL     1       2.949   3.182  19.261  0.00  0.00    +0.000 A 
ENDBRANCH   1  20
TORSDOF 2
ENDMDL
MODEL 9
REMARK VINA RESULT:      -6.8      4.391      6.407
REMARK  Name = 
REMARK  3 active torsions:
REMARK  status: ('A' for Active; 'I' for Inactive)
REMARK    1  A    between atoms: C_1  and  C_2
REMARK    2  A    between atoms: C_7  and  C_8
REMARK    3  A    between atoms: N_10  and  C_11
REMARK                            x       y       z     vdW  Elec       q    Type
REMARK                         _______ _______ _______ _____ _____    ______ ____
ROOT
ATOM      1  C   UNL     1       1.506   8.341  20.016  0.00  0.00    +0.000 C 
ATOM      2  O   UNL     1       1.692   8.722  18.864  0.00  0.00    +0.000 OA
ATOM      3  N   UNL     1       1.858   7.094  20.506  0.00  0.00    +0.000 N 
ATOM      4  H   UNL     1       1.463   6.820  21.395  0.00  0.00    +0.000 HD
ENDROOT
BRANCH   3   5
ATOM      5  C   UNL     1       2.507   6.074  19.770  0.00  0.00    +0.000 A 
ATOM      6  C   UNL     1       3.438   6.325  18.737  0.00  0.00    +0.000 A 
ATOM      7  C   UNL     1       4.007   5.287  17.990  0.00  0.00    +0.000 A 
ATOM      8  C   UNL     1       3.619   4.000  18.286  0.00  0.00    +0.000 A 
ATOM      9  C   UNL     1       2.744   3.736  19.308  0.00  0.00    +0.000 A 
ATOM     10  C   UNL     1       2.186   4.741  20.077  0.00  0.00    +0.000 A 
ATOM     11  O   UNL     1       2.481   2.405  19.432  0.00  0.00    +0.000 OA
ATOM     12  C   UNL     1       3.232   1.878  18.315  0.00  0.00    +0.000 C 
ATOM     13  O   UNL     1       4.028   2.873  17.645  0.00  0.00    +0.000 OA
ENDBRANCH   3   5
BRANCH   1  20
ATOM     14  C   UNL     1      -0.162  10.865  19.116  0.00  0.00    +0.000 C 
ATOM     15  C   UNL     1      -0.035  10.372  20.529  0.00  0.00    +0.000 A 
ATOM     16  C   UNL     1      -0.768  11.065  21.519  0.00  0.00    +0.000 A 
ATOM     17  C   UNL     1      -0.746  10.671  22.857  0.00  0.00    +0.000 A 
ATOM     18  C   UNL     1       0.024   9.584  23.243  0.00  0.00    +0.000 A 
ATOM     19  C   UNL     1       0.758   8.887  22.283  0.00  0.00    +0.000 A 
ATOM     20  C   UNL     1       0.741   9.261  20.923  0.00  0.00    +0.000 A 
ENDBRANCH   1  20
TORSDOF 2
ENDMDL
