MODEL 1
REMARK VINA RESULT:      -7.8      0.000      0.000
REMARK  Name = 
REMARK  6 active torsions:
REMARK  status: ('A' for Active; 'I' for Inactive)
REMARK    1  A    between atoms: C_1  and  O_2
REMARK    2  A    between atoms: O_2  and  C_3
REMARK    3  A    between atoms: C_8  and  C_9
REMARK    4  A    between atoms: N_11  and  C_12
REMARK    5  A    between atoms: N_19  and  C_20
REMARK    6  A    between atoms: C_20  and  C_21
REMARK                            x       y       z     vdW  Elec       q    Type
REMARK                         _______ _______ _______ _____ _____    ______ ____
ROOT
ATOM      1  C   UNL     1       2.681   5.251  19.435  0.00  0.00    +0.000 C 
ATOM      2  C   UNL     1       2.207   4.768  18.055  0.00  0.00    +0.000 C 
ATOM      3  C   UNL     1       3.065   3.602  17.521  0.00  0.00    +0.000 C 
ATOM      4  C   UNL     1       3.128   2.429  18.511  0.00  0.00    +0.000 C 
ATOM      5  C   UNL     1       4.351   2.720  19.384  0.00  0.00    +0.000 C 
ATOM      6  C   UNL     1       4.883   4.057  18.860  0.00  0.00    +0.000 C 
ATOM      7  C   UNL     1       4.213   5.253  19.577  0.00  0.00    +0.000 C 
ATOM      8  N   UNL     1       4.494   3.954  17.446  0.00  0.00    +0.000 NA
ENDROOT
BRANCH   1  11
ATOM      9  C   UNL     1       2.266   7.650  18.976  0.00  0.00    +0.000 C 
ATOM     10  O   UNL     1       3.020   7.627  18.005  0.00  0.00    +0.000 OA
ATOM     11  N   UNL     1       2.110   6.551  19.798  0.00  0.00    +0.000 N 
ATOM     12  H   UNL     1       1.598   6.669  20.667  0.00  0.00    +0.000 HD
BRANCH   9  18
ATOM     13  C   UNL     1       0.896   9.280  20.462  0.00  0.00    +0.000 A 
ATOM     14  C   UNL     1      -0.118  10.259  20.482  0.00  0.00    +0.000 A 
ATOM     15  C   UNL     1      -0.523  10.908  19.314  0.00  0.00    +0.000 A 
ATOM     16  C   UNL     1       0.080  10.587  18.107  0.00  0.00    +0.000 A 
ATOM     17  C   UNL     1       1.022   9.560  18.059  0.00  0.00    +0.000 A 
ATOM     18  C   UNL     1       1.411   8.861  19.223  0.00  0.00    +0.000 A 
BRANCH  13  20
ATOM     19  C   UNL     1       0.838   9.293  22.823  0.00  0.00    +0.000 C 
ATOM     20  O   UNL     1       1.394   8.742  21.620  0.00  0.00    +0.000 OA
ENDBRANCH  13  20
ENDBRANCH   9  18
ENDBRANCH   1  11
BRANCH   8  21
ATOM     21  C   UNL     1       4.844   5.129  16.639  0.00  0.00    +0.000 C 
BRANCH  21  22
ATOM     22  C   UNL     1       5.616   4.814  15.401  0.00  0.00    +0.000 A 
ATOM     23  C   UNL     1       5.425   3.960  14.336  0.00  0.00    +0.000 A 
ATOM     24  C   UNL     1       6.523   4.156  13.459  0.00  0.00    +0.000 A 
ATOM     25  C   UNL     1       7.322   5.112  14.056  0.00  0.00    +0.000 A 
ATOM     26  O   UNL     1       6.775   5.513  15.234  0.00  0.00    +0.000 OA
ENDBRANCH  21  22
ENDBRANCH   8  21
TORSDOF 5
ENDMDL
MODEL 2
REMARK VINA RESULT:      -7.7      1.474      7.156
REMARK  Name = 
REMARK  6 active torsions:
REMARK  status: ('A' for Active; 'I' for Inactive)
REMARK    1  A    between atoms: C_1  and  O_2
REMARK    2  A    between atoms: O_2  and  C_3
REMARK    3  A    between atoms: C_8  and  C_9
REMARK    4  A    between atoms: N_11  and  C_12
REMARK    5  A    between atoms: N_19  and  C_20
REMARK    6  A    between atoms: C_20  and  C_21
REMARK                            x       y       z     vdW  Elec       q    Type
REMARK                         _______ _______ _______ _____ _____    ______ ____
ROOT
ATOM      1  C   UNL     1       3.301   3.361  18.086  0.00  0.00    +0.000 C 
ATOM      2  C   UNL     1       4.132   3.856  19.279  0.00  0.00    +0.000 C 
ATOM      3  C   UNL     1       3.251   4.206  20.497  0.00  0.00    +0.000 C 
ATOM      4  C   UNL     1       2.352   3.033  20.916  0.00  0.00    +0.000 C 
ATOM      5  C   UNL     1       1.058   3.231  20.123  0.00  0.00    +0.000 C 
ATOM      6  C   UNL     1       1.317   4.480  19.276  0.00  0.00    +0.000 C 
ATOM      7  C   UNL     1       1.972   4.120  17.922  0.00  0.00    +0.000 C 
ATOM      8  N   UNL     1       2.226   5.213  20.169  0.00  0.00    +0.000 NA
ENDROOT
BRANCH   1  11
ATOM      9  C   UNL     1       4.600   4.516  16.322  0.00  0.00    +0.000 C 
ATOM     10  O   UNL     1       4.319   5.617  16.791  0.00  0.00    +0.000 OA
ATOM     11  N   UNL     1       4.067   3.350  16.837  0.00  0.00    +0.000 N 
ATOM     12  H   UNL     1       4.209   2.488  16.321  0.00  0.00    +0.000 HD
BRANCH   9  18
ATOM     13  C   UNL     1       6.899   5.019  15.224  0.00  0.00    +0.000 A 
ATOM     14  C   UNL     1       7.622   5.069  14.015  0.00  0.00    +0.000 A 
ATOM     15  C   UNL     1       7.162   4.419  12.867  0.00  0.00    +0.000 A 
ATOM     16  C   UNL     1       5.972   3.710  12.911  0.00  0.00    +0.000 A 
ATOM     17  C   UNL     1       5.203   3.725  14.075  0.00  0.00    +0.000 A 
ATOM     18  C   UNL     1       5.630   4.415  15.231  0.00  0.00    +0.000 A 
BRANCH  13  20
ATOM     19  C   UNL     1       7.691   4.560  17.401  0.00  0.00    +0.000 C 
ATOM     20  O   UNL     1       7.412   5.535  16.385  0.00  0.00    +0.000 OA
ENDBRANCH  13  20
ENDBRANCH   9  18
ENDBRANCH   1  11
BRANCH   8  21
ATOM     21  C   UNL     1       2.703   6.489  19.624  0.00  0.00    +0.000 C 
BRANCH  21  22
ATOM     22  C   UNL     1       1.868   7.667  20.001  0.00  0.00    +0.000 A 
ATOM     23  C   UNL     1       1.181   8.039  21.137  0.00  0.00    +0.000 A 
ATOM     24  C   UNL     1       0.604   9.306  20.864  0.00  0.00    +0.000 A 
ATOM     25  C   UNL     1       0.969   9.620  19.570  0.00  0.00    +0.000 A 
ATOM     26  O   UNL     1       1.735   8.628  19.043  0.00  0.00    +0.000 OA
ENDBRANCH  21  22
ENDBRANCH   8  21
TORSDOF 5
ENDMDL
MODEL 3
REMARK VINA RESULT:      -7.5      0.947      1.067
REMARK  Name = 
REMARK  6 active torsions:
REMARK  status: ('A' for Active; 'I' for Inactive)
REMARK    1  A    between atoms: C_1  and  O_2
REMARK    2  A    between atoms: O_2  and  C_3
REMARK    3  A    between atoms: C_8  and  C_9
REMARK    4  A    between atoms: N_11  and  C_12
REMARK    5  A    between atoms: N_19  and  C_20
REMARK    6  A    between atoms: C_20  and  C_21
REMARK                            x       y       z     vdW  Elec       q    Type
REMARK                         _______ _______ _______ _____ _____    ______ ____
ROOT
ATOM      1  C   UNL     1       2.505   5.096  20.088  0.00  0.00    +0.000 C 
ATOM      2  C   UNL     1       1.640   4.349  19.061  0.00  0.00    +0.000 C 
ATOM      3  C   UNL     1       2.311   3.048  18.573  0.00  0.00    +0.000 C 
ATOM      4  C   UNL     1       2.688   2.119  19.736  0.00  0.00    +0.000 C 
ATOM      5  C   UNL     1       4.115   2.525  20.114  0.00  0.00    +0.000 C 
ATOM      6  C   UNL     1       4.444   3.682  19.167  0.00  0.00    +0.000 C 
ATOM      7  C   UNL     1       4.008   5.042  19.761  0.00  0.00    +0.000 C 
ATOM      8  N   UNL     1       3.644   3.293  17.996  0.00  0.00    +0.000 NA
ENDROOT
BRANCH   1  11
ATOM      9  C   UNL     1       2.238   7.438  19.332  0.00  0.00    +0.000 C 
ATOM     10  O   UNL     1       2.923   7.228  18.334  0.00  0.00    +0.000 OA
ATOM     11  N   UNL     1       2.055   6.473  20.303  0.00  0.00    +0.000 N 
ATOM     12  H   UNL     1       1.610   6.745  21.174  0.00  0.00    +0.000 HD
BRANCH   9  18
ATOM     13  C   UNL     1       0.927   9.264  20.633  0.00  0.00    +0.000 A 
ATOM     14  C   UNL     1       0.016  10.335  20.530  0.00  0.00    +0.000 A 
ATOM     15  C   UNL     1      -0.233  10.961  19.307  0.00  0.00    +0.000 A 
ATOM     16  C   UNL     1       0.425  10.525  18.167  0.00  0.00    +0.000 A 
ATOM     17  C   UNL     1       1.262   9.410  18.238  0.00  0.00    +0.000 A 
ATOM     18  C   UNL     1       1.490   8.736  19.458  0.00  0.00    +0.000 A 
BRANCH  13  20
ATOM     19  C   UNL     1       0.551   9.272  22.965  0.00  0.00    +0.000 C 
ATOM     20  O   UNL     1       1.279   8.739  21.849  0.00  0.00    +0.000 OA
ENDBRANCH  13  20
ENDBRANCH   9  18
ENDBRANCH   1  11
BRANCH   8  21
ATOM     21  C   UNL     1       3.717   4.241  16.877  0.00  0.00    +0.000 C 
BRANCH  21  22
ATOM     22  C   UNL     1       5.100   4.496  16.379  0.00  0.00    +0.000 A 
ATOM     23  C   UNL     1       5.990   3.791  15.597  0.00  0.00    +0.000 A 
ATOM     24  C   UNL     1       7.144   4.605  15.463  0.00  0.00    +0.000 A 
ATOM     25  C   UNL     1       6.886   5.754  16.186  0.00  0.00    +0.000 A 
ATOM     26  O   UNL     1       5.648   5.691  16.743  0.00  0.00    +0.000 OA
ENDBRANCH  21  22
ENDBRANCH   8  21
TORSDOF 5
ENDMDL
MODEL 4
REMARK VINA RESULT:      -7.5      3.591      8.511
REMARK  Name = 
REMARK  6 active torsions:
REMARK  status: ('A' for Active; 'I' for Inactive)
REMARK    1  A    between atoms: C_1  and  O_2
REMARK    2  A    between atoms: O_2  and  C_3
REMARK    3  A    between atoms: C_8  and  C_9
REMARK    4  A    between atoms: N_11  and  C_12
REMARK    5  A    between atoms: N_19  and  C_20
REMARK    6  A    between atoms: C_20  and  C_21
REMARK                            x       y       z     vdW  Elec       q    Type
REMARK                         _______ _______ _______ _____ _____    ______ ____
ROOT
ATOM      1  C   UNL     1       6.170   5.220  15.580  0.00  0.00    +0.000 C 
ATOM      2  C   UNL     1       4.900   5.768  16.249  0.00  0.00    +0.000 C 
ATOM      3  C   UNL     1       5.185   6.349  17.650  0.00  0.00    +0.000 C 
ATOM      4  C   UNL     1       6.284   7.422  17.619  0.00  0.00    +0.000 C 
ATOM      5  C   UNL     1       7.587   6.653  17.847  0.00  0.00    +0.000 C 
ATOM      6  C   UNL     1       7.151   5.189  17.956  0.00  0.00    +0.000 C 
ATOM      7  C   UNL     1       7.110   4.506  16.569  0.00  0.00    +0.000 C 
ATOM      8  N   UNL     1       5.814   5.361  18.543  0.00  0.00    +0.000 NA
ENDROOT
BRANCH   1  11
ATOM      9  C   UNL     1       6.637   4.448  13.274  0.00  0.00    +0.000 C 
ATOM     10  O   UNL     1       7.481   5.328  13.116  0.00  0.00    +0.000 OA
ATOM     11  N   UNL     1       5.872   4.374  14.422  0.00  0.00    +0.000 N 
ATOM     12  H   UNL     1       5.091   3.726  14.438  0.00  0.00    +0.000 HD
BRANCH   9  18
ATOM     13  C   UNL     1       5.298   2.840  11.736  0.00  0.00    +0.000 A 
ATOM     14  C   UNL     1       5.332   1.635  11.005  0.00  0.00    +0.000 A 
ATOM     15  C   UNL     1       6.541   1.023  10.671  0.00  0.00    +0.000 A 
ATOM     16  C   UNL     1       7.737   1.607  11.063  0.00  0.00    +0.000 A 
ATOM     17  C   UNL     1       7.716   2.752  11.861  0.00  0.00    +0.000 A 
ATOM     18  C   UNL     1       6.500   3.358  12.247  0.00  0.00    +0.000 A 
BRANCH  13  20
ATOM     19  C   UNL     1       3.300   3.661  10.779  0.00  0.00    +0.000 C 
ATOM     20  O   UNL     1       4.124   3.517  11.945  0.00  0.00    +0.000 OA
ENDBRANCH  13  20
ENDBRANCH   9  18
ENDBRANCH   1  11
BRANCH   8  21
ATOM     21  C   UNL     1       5.087   4.104  18.757  0.00  0.00    +0.000 C 
BRANCH  21  22
ATOM     22  C   UNL     1       3.664   4.283  19.172  0.00  0.00    +0.000 A 
ATOM     23  C   UNL     1       3.038   4.916  20.224  0.00  0.00    +0.000 A 
ATOM     24  C   UNL     1       1.644   4.744  20.027  0.00  0.00    +0.000 A 
ATOM     25  C   UNL     1       1.511   4.002  18.870  0.00  0.00    +0.000 A 
ATOM     26  O   UNL     1       2.734   3.720  18.349  0.00  0.00    +0.000 OA
ENDBRANCH  21  22
ENDBRANCH   8  21
TORSDOF 5
ENDMDL
MODEL 5
REMARK VINA RESULT:      -7.3      0.952      1.195
REMARK  Name = 
REMARK  6 active torsions:
REMARK  status: ('A' for Active; 'I' for Inactive)
REMARK    1  A    between atoms: C_1  and  O_2
REMARK    2  A    between atoms: O_2  and  C_3
REMARK    3  A    between atoms: C_8  and  C_9
REMARK    4  A    between atoms: N_11  and  C_12
REMARK    5  A    between atoms: N_19  and  C_20
REMARK    6  A    between atoms: C_20  and  C_21
REMARK                            x       y       z     vdW  Elec       q    Type
REMARK                         _______ _______ _______ _____ _____    ______ ____
ROOT
ATOM      1  C   UNL     1       1.946   4.910  19.395  0.00  0.00    +0.000 C 
ATOM      2  C   UNL     1       2.155   4.738  17.883  0.00  0.00    +0.000 C 
ATOM      3  C   UNL     1       2.835   3.396  17.539  0.00  0.00    +0.000 C 
ATOM      4  C   UNL     1       2.071   2.195  18.117  0.00  0.00    +0.000 C 
ATOM      5  C   UNL     1       2.686   1.971  19.500  0.00  0.00    +0.000 C 
ATOM      6  C   UNL     1       3.734   3.079  19.636  0.00  0.00    +0.000 C 
ATOM      7  C   UNL     1       3.120   4.368  20.230  0.00  0.00    +0.000 C 
ATOM      8  N   UNL     1       4.127   3.235  18.228  0.00  0.00    +0.000 NA
ENDROOT
BRANCH   1  11
ATOM      9  C   UNL     1       2.266   7.354  19.156  0.00  0.00    +0.000 C 
ATOM     10  O   UNL     1       3.236   7.188  18.420  0.00  0.00    +0.000 OA
ATOM     11  N   UNL     1       1.623   6.291  19.761  0.00  0.00    +0.000 N 
ATOM     12  H   UNL     1       0.930   6.492  20.474  0.00  0.00    +0.000 HD
BRANCH   9  18
ATOM     13  C   UNL     1       1.000   9.217  20.450  0.00  0.00    +0.000 A 
ATOM     14  C   UNL     1       0.278  10.421  20.338  0.00  0.00    +0.000 A 
ATOM     15  C   UNL     1       0.343  11.203  19.183  0.00  0.00    +0.000 A 
ATOM     16  C   UNL     1       1.132  10.790  18.120  0.00  0.00    +0.000 A 
ATOM     17  C   UNL     1       1.783   9.558  18.183  0.00  0.00    +0.000 A 
ATOM     18  C   UNL     1       1.691   8.733  19.325  0.00  0.00    +0.000 A 
BRANCH  13  20
ATOM     19  C   UNL     1       0.476   9.202  22.753  0.00  0.00    +0.000 C 
ATOM     20  O   UNL     1       1.050   8.519  21.629  0.00  0.00    +0.000 OA
ENDBRANCH  13  20
ENDBRANCH   9  18
ENDBRANCH   1  11
BRANCH   8  21
ATOM     21  C   UNL     1       5.134   4.279  17.998  0.00  0.00    +0.000 C 
BRANCH  21  22
ATOM     22  C   UNL     1       5.443   4.527  16.559  0.00  0.00    +0.000 A 
ATOM     23  C   UNL     1       5.329   5.615  15.721  0.00  0.00    +0.000 A 
ATOM     24  C   UNL     1       5.829   5.206  14.458  0.00  0.00    +0.000 A 
ATOM     25  C   UNL     1       6.204   3.886  14.606  0.00  0.00    +0.000 A 
ATOM     26  O   UNL     1       5.971   3.470  15.879  0.00  0.00    +0.000 OA
ENDBRANCH  21  22
ENDBRANCH   8  21
TORSDOF 5
ENDMDL
MODEL 6
REMARK VINA RESULT:      -7.2      1.142      2.080
REMARK  Name = 
REMARK  6 active torsions:
REMARK  status: ('A' for Active; 'I' for Inactive)
REMARK    1  A    between atoms: C_1  and  O_2
REMARK    2  A    between atoms: O_2  and  C_3
REMARK    3  A    between atoms: C_8  and  C_9
REMARK    4  A    between atoms: N_11  and  C_12
REMARK    5  A    between atoms: N_19  and  C_20
REMARK    6  A    between atoms: C_20  and  C_21
REMARK                            x       y       z     vdW  Elec       q    Type
REMARK                         _______ _______ _______ _____ _____    ______ ____
ROOT
ATOM      1  C   UNL     1       2.291   4.760  19.711  0.00  0.00    +0.000 C 
ATOM      2  C   UNL     1       1.801   4.718  18.255  0.00  0.00    +0.000 C 
ATOM      3  C   UNL     1       2.508   3.618  17.435  0.00  0.00    +0.000 C 
ATOM      4  C   UNL     1       2.377   2.234  18.089  0.00  0.00    +0.000 C 
ATOM      5  C   UNL     1       3.598   2.116  19.003  0.00  0.00    +0.000 C 
ATOM      6  C   UNL     1       4.326   3.453  18.840  0.00  0.00    +0.000 C 
ATOM      7  C   UNL     1       3.804   4.508  19.843  0.00  0.00    +0.000 C 
ATOM      8  N   UNL     1       3.974   3.771  17.449  0.00  0.00    +0.000 NA
ENDROOT
BRANCH   1  11
ATOM      9  C   UNL     1       2.033   7.222  19.789  0.00  0.00    +0.000 C 
ATOM     10  O   UNL     1       2.643   7.352  18.730  0.00  0.00    +0.000 OA
ATOM     11  N   UNL     1       1.892   5.990  20.399  0.00  0.00    +0.000 N 
ATOM     12  H   UNL     1       1.516   5.961  21.341  0.00  0.00    +0.000 HD
BRANCH   9  18
ATOM     13  C   UNL     1       0.906   9.560  19.708  0.00  0.00    +0.000 A 
ATOM     14  C   UNL     1       0.529  10.694  20.455  0.00  0.00    +0.000 A 
ATOM     15  C   UNL     1       0.443  10.648  21.849  0.00  0.00    +0.000 A 
ATOM     16  C   UNL     1       0.734   9.468  22.515  0.00  0.00    +0.000 A 
ATOM     17  C   UNL     1       1.192   8.364  21.795  0.00  0.00    +0.000 A 
ATOM     18  C   UNL     1       1.330   8.407  20.390  0.00  0.00    +0.000 A 
BRANCH  13  20
ATOM     19  C   UNL     1      -0.414   9.927  17.784  0.00  0.00    +0.000 C 
ATOM     20  O   UNL     1       0.857   9.558  18.338  0.00  0.00    +0.000 OA
ENDBRANCH  13  20
ENDBRANCH   9  18
ENDBRANCH   1  11
BRANCH   8  21
ATOM     21  C   UNL     1       4.509   5.052  16.971  0.00  0.00    +0.000 C 
BRANCH  21  22
ATOM     22  C   UNL     1       5.523   4.925  15.883  0.00  0.00    +0.000 A 
ATOM     23  C   UNL     1       6.783   5.441  15.673  0.00  0.00    +0.000 A 
ATOM     24  C   UNL     1       7.239   4.906  14.441  0.00  0.00    +0.000 A 
ATOM     25  C   UNL     1       6.217   4.105  13.972  0.00  0.00    +0.000 A 
ATOM     26  O   UNL     1       5.174   4.114  14.844  0.00  0.00    +0.000 OA
ENDBRANCH  21  22
ENDBRANCH   8  21
TORSDOF 5
ENDMDL
MODEL 7
REMARK VINA RESULT:      -7.2      1.155      2.087
REMARK  Name = 
REMARK  6 active torsions:
REMARK  status: ('A' for Active; 'I' for Inactive)
REMARK    1  A    between atoms: C_1  and  O_2
REMARK    2  A    between atoms: O_2  and  C_3
REMARK    3  A    between atoms: C_8  and  C_9
REMARK    4  A    between atoms: N_11  and  C_12
REMARK    5  A    between atoms: N_19  and  C_20
REMARK    6  A    between atoms: C_20  and  C_21
REMARK                            x       y       z     vdW  Elec       q    Type
REMARK                         _______ _______ _______ _____ _____    ______ ____
ROOT
ATOM      1  C   UNL     1       2.998   5.548  19.130  0.00  0.00    +0.000 C 
ATOM      2  C   UNL     1       2.582   4.815  17.845  0.00  0.00    +0.000 C 
ATOM      3  C   UNL     1       3.574   3.694  17.469  0.00  0.00    +0.000 C 
ATOM      4  C   UNL     1       3.780   2.694  18.617  0.00  0.00    +0.000 C 
ATOM      5  C   UNL     1       4.962   3.254  19.413  0.00  0.00    +0.000 C 
ATOM      6  C   UNL     1       5.327   4.553  18.690  0.00  0.00    +0.000 C 
ATOM      7  C   UNL     1       4.520   5.753  19.239  0.00  0.00    +0.000 C 
ATOM      8  N   UNL     1       4.949   4.198  17.315  0.00  0.00    +0.000 NA
ENDROOT
BRANCH   1  11
ATOM      9  C   UNL     1       1.435   6.994  20.393  0.00  0.00    +0.000 C 
ATOM     10  O   UNL     1       1.132   6.067  21.142  0.00  0.00    +0.000 OA
ATOM     11  N   UNL     1       2.275   6.809  19.313  0.00  0.00    +0.000 N 
ATOM     12  H   UNL     1       2.371   7.565  18.643  0.00  0.00    +0.000 HD
BRANCH   9  18
ATOM     13  C   UNL     1       0.973   9.489  19.838  0.00  0.00    +0.000 A 
ATOM     14  C   UNL     1       0.781  10.780  20.370  0.00  0.00    +0.000 A 
ATOM     15  C   UNL     1       0.460  10.971  21.715  0.00  0.00    +0.000 A 
ATOM     16  C   UNL     1       0.326   9.872  22.551  0.00  0.00    +0.000 A 
ATOM     17  C   UNL     1       0.598   8.595  22.059  0.00  0.00    +0.000 A 
ATOM     18  C   UNL     1       0.969   8.388  20.712  0.00  0.00    +0.000 A 
BRANCH  13  20
ATOM     19  C   UNL     1       2.067  10.197  17.869  0.00  0.00    +0.000 C 
ATOM     20  O   UNL     1       1.150   9.288  18.494  0.00  0.00    +0.000 OA
ENDBRANCH  13  20
ENDBRANCH   9  18
ENDBRANCH   1  11
BRANCH   8  21
ATOM     21  C   UNL     1       5.154   5.276  16.339  0.00  0.00    +0.000 C 
BRANCH  21  22
ATOM     22  C   UNL     1       5.794   4.835  15.065  0.00  0.00    +0.000 A 
ATOM     23  C   UNL     1       5.456   3.936  14.075  0.00  0.00    +0.000 A 
ATOM     24  C   UNL     1       6.485   4.002  13.101  0.00  0.00    +0.000 A 
ATOM     25  C   UNL     1       7.393   4.932  13.568  0.00  0.00    +0.000 A 
ATOM     26  O   UNL     1       6.977   5.439  14.758  0.00  0.00    +0.000 OA
ENDBRANCH  21  22
ENDBRANCH   8  21
TORSDOF 5
ENDMDL
MODEL 8
REMARK VINA RESULT:      -7.2      1.339      2.142
REMARK  Name = 
REMARK  6 active torsions:
REMARK  status: ('A' for Active; 'I' for Inactive)
REMARK    1  A    between atoms: C_1  and  O_2
REMARK    2  A    between atoms: O_2  and  C_3
REMARK    3  A    between atoms: C_8  and  C_9
REMARK    4  A    between atoms: N_11  and  C_12
REMARK    5  A    between atoms: N_19  and  C_20
REMARK    6  A    between atoms: C_20  and  C_21
REMARK                            x       y       z     vdW  Elec       q    Type
REMARK                         _______ _______ _______ _____ _____    ______ ____
ROOT
ATOM      1  C   UNL     1       2.317   4.723  20.280  0.00  0.00    +0.000 C 
ATOM      2  C   UNL     1       1.520   4.293  19.039  0.00  0.00    +0.000 C 
ATOM      3  C   UNL     1       2.212   3.148  18.271  0.00  0.00    +0.000 C 
ATOM      4  C   UNL     1       2.501   1.938  19.172  0.00  0.00    +0.000 C 
ATOM      5  C   UNL     1       3.901   2.195  19.735  0.00  0.00    +0.000 C 
ATOM      6  C   UNL     1       4.304   3.551  19.148  0.00  0.00    +0.000 C 
ATOM      7  C   UNL     1       3.838   4.719  20.049  0.00  0.00    +0.000 C 
ATOM      8  N   UNL     1       3.585   3.502  17.867  0.00  0.00    +0.000 NA
ENDROOT
BRANCH   1  11
ATOM      9  C   UNL     1       2.003   7.172  20.089  0.00  0.00    +0.000 C 
ATOM     10  O   UNL     1       2.655   7.207  19.047  0.00  0.00    +0.000 OA
ATOM     11  N   UNL     1       1.863   6.008  20.819  0.00  0.00    +0.000 N 
ATOM     12  H   UNL     1       1.447   6.067  21.743  0.00  0.00    +0.000 HD
BRANCH   9  18
ATOM     13  C   UNL     1       0.952   9.523  19.748  0.00  0.00    +0.000 A 
ATOM     14  C   UNL     1       0.499  10.695  20.386  0.00  0.00    +0.000 A 
ATOM     15  C   UNL     1       0.218  10.715  21.754  0.00  0.00    +0.000 A 
ATOM     16  C   UNL     1       0.385   9.562  22.505  0.00  0.00    +0.000 A 
ATOM     17  C   UNL     1       0.915   8.419  21.905  0.00  0.00    +0.000 A 
ATOM     18  C   UNL     1       1.249   8.395  20.533  0.00  0.00    +0.000 A 
BRANCH  13  20
ATOM     19  C   UNL     1       2.036  10.395  17.840  0.00  0.00    +0.000 C 
ATOM     20  O   UNL     1       1.095   9.459  18.387  0.00  0.00    +0.000 OA
ENDBRANCH  13  20
ENDBRANCH   9  18
ENDBRANCH   1  11
BRANCH   8  21
ATOM     21  C   UNL     1       3.742   4.707  17.043  0.00  0.00    +0.000 C 
BRANCH  21  22
ATOM     22  C   UNL     1       5.087   4.846  16.411  0.00  0.00    +0.000 A 
ATOM     23  C   UNL     1       5.721   4.239  15.348  0.00  0.00    +0.000 A 
ATOM     24  C   UNL     1       6.998   4.847  15.239  0.00  0.00    +0.000 A 
ATOM     25  C   UNL     1       7.065   5.779  16.256  0.00  0.00    +0.000 A 
ATOM     26  O   UNL     1       5.908   5.780  16.969  0.00  0.00    +0.000 OA
ENDBRANCH  21  22
ENDBRANCH   8  21
TORSDOF 5
ENDMDL
MODEL 9
REMARK VINA RESULT:      -7.1      1.937      2.548
REMARK  Name = 
REMARK  6 active torsions:
REMARK  status: ('A' for Active; 'I' for Inactive)
REMARK    1  A    between atoms: C_1  and  O_2
REMARK    2  A    between atoms: O_2  and  C_3
REMARK    3  A    between atoms: C_8  and  C_9
REMARK    4  A    between atoms: N_11  and  C_12
REMARK    5  A    between atoms: N_19  and  C_20
REMARK    6  A    between atoms: C_20  and  C_21
REMARK                            x       y       z     vdW  Elec       q    Type
REMARK                         _______ _______ _______ _____ _____    ______ ____
ROOT
ATOM      1  C   UNL     1       1.817   6.958  19.371  0.00  0.00    +0.000 C 
ATOM      2  C   UNL     1       2.673   6.731  18.115  0.00  0.00    +0.000 C 
ATOM      3  C   UNL     1       2.945   5.234  17.860  0.00  0.00    +0.000 C 
ATOM      4  C   UNL     1       1.648   4.415  17.782  0.00  0.00    +0.000 C 
ATOM      5  C   UNL     1       1.388   3.959  19.220  0.00  0.00    +0.000 C 
ATOM      6  C   UNL     1       2.531   4.578  20.029  0.00  0.00    +0.000 C 
ATOM      7  C   UNL     1       2.171   5.999  20.522  0.00  0.00    +0.000 C 
ATOM      8  N   UNL     1       3.593   4.583  19.012  0.00  0.00    +0.000 NA
ENDROOT
BRANCH   1  11
ATOM      9  C   UNL     1       1.228   9.344  19.064  0.00  0.00    +0.000 C 
ATOM     10  O   UNL     1       0.804   9.126  17.931  0.00  0.00    +0.000 OA
ATOM     11  N   UNL     1       1.833   8.354  19.814  0.00  0.00    +0.000 N 
ATOM     12  H   UNL     1       2.300   8.621  20.675  0.00  0.00    +0.000 HD
BRANCH   9  18
ATOM     13  C   UNL     1       0.731  10.931  21.058  0.00  0.00    +0.000 A 
ATOM     14  C   UNL     1       0.250  12.200  21.440  0.00  0.00    +0.000 A 
ATOM     15  C   UNL     1       0.158  13.248  20.521  0.00  0.00    +0.000 A 
ATOM     16  C   UNL     1       0.545  13.042  19.206  0.00  0.00    +0.000 A 
ATOM     17  C   UNL     1       0.940  11.769  18.794  0.00  0.00    +0.000 A 
ATOM     18  C   UNL     1       0.994  10.686  19.699  0.00  0.00    +0.000 A 
BRANCH  13  20
ATOM     19  C   UNL     1      -0.151   9.685  22.860  0.00  0.00    +0.000 C 
ATOM     20  O   UNL     1       0.954   9.944  21.982  0.00  0.00    +0.000 OA
ENDBRANCH  13  20
ENDBRANCH   9  18
ENDBRANCH   1  11
BRANCH   8  21
ATOM     21  C   UNL     1       4.861   5.161  19.472  0.00  0.00    +0.000 C 
BRANCH  21  22
ATOM     22  C   UNL     1       5.864   5.380  18.388  0.00  0.00    +0.000 A 
ATOM     23  C   UNL     1       6.460   6.493  17.835  0.00  0.00    +0.000 A 
ATOM     24  C   UNL     1       7.359   6.020  16.845  0.00  0.00    +0.000 A 
ATOM     25  C   UNL     1       7.243   4.644  16.850  0.00  0.00    +0.000 A 
ATOM     26  O   UNL     1       6.337   4.253  17.784  0.00  0.00    +0.000 OA
ENDBRANCH  21  22
ENDBRANCH   8  21
TORSDOF 5
ENDMDL
