MODEL 1
REMARK VINA RESULT:      -8.6      0.000      0.000
REMARK  Name = 
REMARK  6 active torsions:
REMARK  status: ('A' for Active; 'I' for Inactive)
REMARK    1  A    between atoms: C_1  and  C_2
REMARK    2  A    between atoms: C_4  and  C_5
REMARK    3  A    between atoms: C_7  and  O_8
REMARK    4  A    between atoms: O_8  and  C_9
REMARK    5  A    between atoms: N_17  and  C_18
REMARK    6  A    between atoms: C_18  and  C_19
REMARK                            x       y       z     vdW  Elec       q    Type
REMARK                         _______ _______ _______ _____ _____    ______ ____
ROOT
ATOM      1  C   UNL     1       0.168  10.097  19.557  0.00  0.00    +0.000 A 
ATOM      2  N   UNL     1      -0.343   9.888  20.806  0.00  0.00    +0.000 NA
ATOM      3  C   UNL     1       0.180   8.899  21.549  0.00  0.00    +0.000 A 
ATOM      4  N   UNL     1       1.133   8.025  21.197  0.00  0.00    +0.000 NA
ATOM      5  C   UNL     1       1.576   8.245  19.949  0.00  0.00    +0.000 A 
ATOM      6  C   UNL     1       1.153   9.231  19.069  0.00  0.00    +0.000 A 
ATOM      7  N   UNL     1       1.828   9.124  17.874  0.00  0.00    +0.000 NA
ATOM      8  C   UNL     1       2.614   8.077  18.017  0.00  0.00    +0.000 A 
ATOM      9  N   UNL     1       2.530   7.532  19.272  0.00  0.00    +0.000 N 
ENDROOT
BRANCH   1  10
ATOM     10  O   UNL     1      -0.287  11.178  18.805  0.00  0.00    +0.000 OA
BRANCH  10  17
ATOM     11  C   UNL     1      -5.085  12.144  19.049  0.00  0.00    +0.000 C 
ATOM     12  C   UNL     1      -3.910  11.543  18.333  0.00  0.00    +0.000 A 
ATOM     13  C   UNL     1      -4.087  10.904  17.096  0.00  0.00    +0.000 A 
ATOM     14  C   UNL     1      -3.009  10.310  16.440  0.00  0.00    +0.000 A 
ATOM     15  C   UNL     1      -3.145   9.676  15.088  0.00  0.00    +0.000 C 
ATOM     16  C   UNL     1      -1.749  10.343  17.042  0.00  0.00    +0.000 A 
ATOM     17  C   UNL     1      -1.536  11.045  18.229  0.00  0.00    +0.000 A 
ATOM     18  C   UNL     1      -2.623  11.616  18.892  0.00  0.00    +0.000 A 
ENDBRANCH  10  17
ENDBRANCH   1  10
BRANCH   9  19
ATOM     19  C   UNL     1       3.124   6.280  19.717  0.00  0.00    +0.000 C 
BRANCH  19  20
ATOM     20  C   UNL     1       2.857   5.090  18.819  0.00  0.00    +0.000 A 
ATOM     21  C   UNL     1       3.692   4.785  17.723  0.00  0.00    +0.000 A 
ATOM     22 CL   UNL     1       5.048   5.755  17.277  0.00  0.00    +0.000 Cl
ATOM     23  C   UNL     1       3.499   3.626  16.955  0.00  0.00    +0.000 A 
ATOM     24  C   UNL     1       2.474   2.741  17.258  0.00  0.00    +0.000 A 
ATOM     25  C   UNL     1       1.624   3.027  18.321  0.00  0.00    +0.000 A 
ATOM     26  C   UNL     1       1.810   4.186  19.089  0.00  0.00    +0.000 A 
ATOM     27 CL   UNL     1       0.713   4.402  20.410  0.00  0.00    +0.000 Cl
ENDBRANCH  19  20
ENDBRANCH   9  19
TORSDOF 4
ENDMDL
MODEL 2
REMARK VINA RESULT:      -8.5      0.153      1.667
REMARK  Name = 
REMARK  6 active torsions:
REMARK  status: ('A' for Active; 'I' for Inactive)
REMARK    1  A    between atoms: C_1  and  C_2
REMARK    2  A    between atoms: C_4  and  C_5
REMARK    3  A    between atoms: C_7  and  O_8
REMARK    4  A    between atoms: O_8  and  C_9
REMARK    5  A    between atoms: N_17  and  C_18
REMARK    6  A    between atoms: C_18  and  C_19
REMARK                            x       y       z     vdW  Elec       q    Type
REMARK                         _______ _______ _______ _____ _____    ______ ____
ROOT
ATOM      1  C   UNL     1       0.315  10.118  19.492  0.00  0.00    +0.000 A 
ATOM      2  N   UNL     1      -0.201   9.950  20.745  0.00  0.00    +0.000 NA
ATOM      3  C   UNL     1       0.289   8.960  21.508  0.00  0.00    +0.000 A 
ATOM      4  N   UNL     1       1.211   8.047  21.173  0.00  0.00    +0.000 NA
ATOM      5  C   UNL     1       1.660   8.227  19.921  0.00  0.00    +0.000 A 
ATOM      6  C   UNL     1       1.270   9.209  19.020  0.00  0.00    +0.000 A 
ATOM      7  N   UNL     1       1.939   9.056  17.828  0.00  0.00    +0.000 NA
ATOM      8  C   UNL     1       2.689   7.986  17.991  0.00  0.00    +0.000 A 
ATOM      9  N   UNL     1       2.589   7.469  19.257  0.00  0.00    +0.000 N 
ENDROOT
BRANCH   1  10
ATOM     10  O   UNL     1      -0.104  11.198  18.719  0.00  0.00    +0.000 OA
BRANCH  10  17
ATOM     11  C   UNL     1      -3.233   9.642  15.283  0.00  0.00    +0.000 C 
ATOM     12  C   UNL     1      -2.963  10.367  16.570  0.00  0.00    +0.000 A 
ATOM     13  C   UNL     1      -4.020  10.943  17.291  0.00  0.00    +0.000 A 
ATOM     14  C   UNL     1      -3.776  11.651  18.469  0.00  0.00    +0.000 A 
ATOM     15  C   UNL     1      -4.884  12.225  19.301  0.00  0.00    +0.000 C 
ATOM     16  C   UNL     1      -2.460  11.793  18.913  0.00  0.00    +0.000 A 
ATOM     17  C   UNL     1      -1.406  11.156  18.257  0.00  0.00    +0.000 A 
ATOM     18  C   UNL     1      -1.653  10.471  17.066  0.00  0.00    +0.000 A 
ENDBRANCH  10  17
ENDBRANCH   1  10
BRANCH   9  19
ATOM     19  C   UNL     1       3.140   6.207  19.727  0.00  0.00    +0.000 C 
BRANCH  19  20
ATOM     20  C   UNL     1       2.863   5.015  18.834  0.00  0.00    +0.000 A 
ATOM     21  C   UNL     1       3.700   4.694  17.743  0.00  0.00    +0.000 A 
ATOM     22 CL   UNL     1       5.070   5.646  17.298  0.00  0.00    +0.000 Cl
ATOM     23  C   UNL     1       3.496   3.533  16.981  0.00  0.00    +0.000 A 
ATOM     24  C   UNL     1       2.459   2.663  17.284  0.00  0.00    +0.000 A 
ATOM     25  C   UNL     1       1.608   2.964  18.341  0.00  0.00    +0.000 A 
ATOM     26  C   UNL     1       1.804   4.125  19.103  0.00  0.00    +0.000 A 
ATOM     27 CL   UNL     1       0.704   4.362  20.418  0.00  0.00    +0.000 Cl
ENDBRANCH  19  20
ENDBRANCH   9  19
TORSDOF 4
ENDMDL
MODEL 3
REMARK VINA RESULT:      -8.3      0.251      1.774
REMARK  Name = 
REMARK  6 active torsions:
REMARK  status: ('A' for Active; 'I' for Inactive)
REMARK    1  A    between atoms: C_1  and  C_2
REMARK    2  A    between atoms: C_4  and  C_5
REMARK    3  A    between atoms: C_7  and  O_8
REMARK    4  A    between atoms: O_8  and  C_9
REMARK    5  A    between atoms: N_17  and  C_18
REMARK    6  A    between atoms: C_18  and  C_19
REMARK                            x       y       z     vdW  Elec       q    Type
REMARK                         _______ _______ _______ _____ _____    ______ ____
ROOT
ATOM      1  C   UNL     1       0.126  10.298  19.502  0.00  0.00    +0.000 A 
ATOM      2  N   UNL     1      -0.322  10.219  20.789  0.00  0.00    +0.000 NA
ATOM      3  C   UNL     1       0.213   9.287  21.593  0.00  0.00    +0.000 A 
ATOM      4  N   UNL     1       1.121   8.354  21.276  0.00  0.00    +0.000 NA
ATOM      5  C   UNL     1       1.502   8.445  19.992  0.00  0.00    +0.000 A 
ATOM      6  C   UNL     1       1.060   9.359  19.046  0.00  0.00    +0.000 A 
ATOM      7  N   UNL     1       1.667   9.123  17.834  0.00  0.00    +0.000 NA
ATOM      8  C   UNL     1       2.430   8.069  18.033  0.00  0.00    +0.000 A 
ATOM      9  N   UNL     1       2.400   7.643  19.336  0.00  0.00    +0.000 N 
ENDROOT
BRANCH   1  10
ATOM     10  O   UNL     1      -0.338  11.319  18.677  0.00  0.00    +0.000 OA
BRANCH  10  17
ATOM     11  C   UNL     1      -5.147  12.159  19.114  0.00  0.00    +0.000 C 
ATOM     12  C   UNL     1      -3.985  11.592  18.349  0.00  0.00    +0.000 A 
ATOM     13  C   UNL     1      -4.195  10.954  17.117  0.00  0.00    +0.000 A 
ATOM     14  C   UNL     1      -3.128  10.390  16.416  0.00  0.00    +0.000 A 
ATOM     15  C   UNL     1      -3.301   9.759  15.067  0.00  0.00    +0.000 C 
ATOM     16  C   UNL     1      -1.847  10.454  16.968  0.00  0.00    +0.000 A 
ATOM     17  C   UNL     1      -1.605  11.156  18.149  0.00  0.00    +0.000 A 
ATOM     18  C   UNL     1      -2.681  11.696  18.858  0.00  0.00    +0.000 A 
ENDBRANCH  10  17
ENDBRANCH   1  10
BRANCH   9  19
ATOM     19  C   UNL     1       2.982   6.418  19.865  0.00  0.00    +0.000 C 
BRANCH  19  20
ATOM     20  C   UNL     1       2.898   5.220  18.943  0.00  0.00    +0.000 A 
ATOM     21  C   UNL     1       1.852   4.277  19.044  0.00  0.00    +0.000 A 
ATOM     22 CL   UNL     1       0.615   4.371  20.244  0.00  0.00    +0.000 Cl
ATOM     23  C   UNL     1       1.724   3.224  18.125  0.00  0.00    +0.000 A 
ATOM     24  C   UNL     1       2.629   3.083  17.082  0.00  0.00    +0.000 A 
ATOM     25  C   UNL     1       3.681   3.986  16.970  0.00  0.00    +0.000 A 
ATOM     26  C   UNL     1       3.816   5.037  17.889  0.00  0.00    +0.000 A 
ATOM     27 CL   UNL     1       5.139   6.117  17.613  0.00  0.00    +0.000 Cl
ENDBRANCH  19  20
ENDBRANCH   9  19
TORSDOF 4
ENDMDL
MODEL 4
REMARK VINA RESULT:      -8.2      0.280      2.431
REMARK  Name = 
REMARK  6 active torsions:
REMARK  status: ('A' for Active; 'I' for Inactive)
REMARK    1  A    between atoms: C_1  and  C_2
REMARK    2  A    between atoms: C_4  and  C_5
REMARK    3  A    between atoms: C_7  and  O_8
REMARK    4  A    between atoms: O_8  and  C_9
REMARK    5  A    between atoms: N_17  and  C_18
REMARK    6  A    between atoms: C_18  and  C_19
REMARK                            x       y       z     vdW  Elec       q    Type
REMARK                         _______ _______ _______ _____ _____    ______ ____
ROOT
ATOM      1  C   UNL     1       0.217  10.325  19.549  0.00  0.00    +0.000 A 
ATOM      2  N   UNL     1      -0.198  10.295  20.849  0.00  0.00    +0.000 NA
ATOM      3  C   UNL     1       0.319   9.359  21.661  0.00  0.00    +0.000 A 
ATOM      4  N   UNL     1       1.177   8.380  21.341  0.00  0.00    +0.000 NA
ATOM      5  C   UNL     1       1.526   8.426  20.045  0.00  0.00    +0.000 A 
ATOM      6  C   UNL     1       1.097   9.337  19.091  0.00  0.00    +0.000 A 
ATOM      7  N   UNL     1       1.659   9.047  17.868  0.00  0.00    +0.000 NA
ATOM      8  C   UNL     1       2.382   7.966  18.071  0.00  0.00    +0.000 A 
ATOM      9  N   UNL     1       2.369   7.571  19.385  0.00  0.00    +0.000 N 
ENDROOT
BRANCH   1  10
ATOM     10  O   UNL     1      -0.226  11.347  18.713  0.00  0.00    +0.000 OA
BRANCH  10  17
ATOM     11  C   UNL     1      -3.169   9.655  15.179  0.00  0.00    +0.000 C 
ATOM     12  C   UNL     1      -2.976  10.369  16.486  0.00  0.00    +0.000 A 
ATOM     13  C   UNL     1      -4.085  10.857  17.195  0.00  0.00    +0.000 A 
ATOM     14  C   UNL     1      -3.915  11.554  18.391  0.00  0.00    +0.000 A 
ATOM     15  C   UNL     1      -5.076  12.033  19.211  0.00  0.00    +0.000 C 
ATOM     16  C   UNL     1      -2.621  11.776  18.867  0.00  0.00    +0.000 A 
ATOM     17  C   UNL     1      -1.512  11.227  18.222  0.00  0.00    +0.000 A 
ATOM     18  C   UNL     1      -1.688  10.552  17.013  0.00  0.00    +0.000 A 
ENDBRANCH  10  17
ENDBRANCH   1  10
BRANCH   9  19
ATOM     19  C   UNL     1       2.913   6.334  19.926  0.00  0.00    +0.000 C 
BRANCH  19  20
ATOM     20  C   UNL     1       2.876   5.151  18.982  0.00  0.00    +0.000 A 
ATOM     21  C   UNL     1       1.860   4.174  19.054  0.00  0.00    +0.000 A 
ATOM     22 CL   UNL     1       0.608   4.207  20.243  0.00  0.00    +0.000 Cl
ATOM     23  C   UNL     1       1.774   3.135  18.114  0.00  0.00    +0.000 A 
ATOM     24  C   UNL     1       2.693   3.042  17.079  0.00  0.00    +0.000 A 
ATOM     25  C   UNL     1       3.717   3.980  16.995  0.00  0.00    +0.000 A 
ATOM     26  C   UNL     1       3.809   5.018  17.934  0.00  0.00    +0.000 A 
ATOM     27 CL   UNL     1       5.101   6.144  17.692  0.00  0.00    +0.000 Cl
ENDBRANCH  19  20
ENDBRANCH   9  19
TORSDOF 4
ENDMDL
MODEL 5
REMARK VINA RESULT:      -8.0      0.915      1.179
REMARK  Name = 
REMARK  6 active torsions:
REMARK  status: ('A' for Active; 'I' for Inactive)
REMARK    1  A    between atoms: C_1  and  C_2
REMARK    2  A    between atoms: C_4  and  C_5
REMARK    3  A    between atoms: C_7  and  O_8
REMARK    4  A    between atoms: O_8  and  C_9
REMARK    5  A    between atoms: N_17  and  C_18
REMARK    6  A    between atoms: C_18  and  C_19
REMARK                            x       y       z     vdW  Elec       q    Type
REMARK                         _______ _______ _______ _____ _____    ______ ____
ROOT
ATOM      1  C   UNL     1       0.441  10.029  19.514  0.00  0.00    +0.000 A 
ATOM      2  N   UNL     1      -0.000   9.799  20.786  0.00  0.00    +0.000 NA
ATOM      3  C   UNL     1       0.537   8.777  21.471  0.00  0.00    +0.000 A 
ATOM      4  N   UNL     1       1.443   7.888  21.041  0.00  0.00    +0.000 NA
ATOM      5  C   UNL     1       1.817   8.130  19.775  0.00  0.00    +0.000 A 
ATOM      6  C   UNL     1       1.371   9.149  18.946  0.00  0.00    +0.000 A 
ATOM      7  N   UNL     1       1.971   9.057  17.711  0.00  0.00    +0.000 NA
ATOM      8  C   UNL     1       2.734   7.986  17.779  0.00  0.00    +0.000 A 
ATOM      9  N   UNL     1       2.709   7.410  19.023  0.00  0.00    +0.000 N 
ENDROOT
BRANCH   1  10
ATOM     10  O   UNL     1      -0.026  11.141  18.819  0.00  0.00    +0.000 OA
BRANCH  10  17
ATOM     11  C   UNL     1      -4.763  12.310  19.286  0.00  0.00    +0.000 C 
ATOM     12  C   UNL     1      -3.650  11.652  18.522  0.00  0.00    +0.000 A 
ATOM     13  C   UNL     1      -3.916  11.006  17.304  0.00  0.00    +0.000 A 
ATOM     14  C   UNL     1      -2.897  10.358  16.604  0.00  0.00    +0.000 A 
ATOM     15  C   UNL     1      -3.127   9.714  15.269  0.00  0.00    +0.000 C 
ATOM     16  C   UNL     1      -1.608  10.346  17.142  0.00  0.00    +0.000 A 
ATOM     17  C   UNL     1      -1.307  11.053  18.307  0.00  0.00    +0.000 A 
ATOM     18  C   UNL     1      -2.336  11.678  19.015  0.00  0.00    +0.000 A 
ENDBRANCH  10  17
ENDBRANCH   1  10
BRANCH   9  19
ATOM     19  C   UNL     1       3.292   6.131  19.400  0.00  0.00    +0.000 C 
BRANCH  19  20
ATOM     20  C   UNL     1       3.800   5.293  18.245  0.00  0.00    +0.000 A 
ATOM     21  C   UNL     1       5.134   5.384  17.792  0.00  0.00    +0.000 A 
ATOM     22 CL   UNL     1       6.283   6.480  18.468  0.00  0.00    +0.000 Cl
ATOM     23  C   UNL     1       5.626   4.535  16.788  0.00  0.00    +0.000 A 
ATOM     24  C   UNL     1       4.807   3.575  16.212  0.00  0.00    +0.000 A 
ATOM     25  C   UNL     1       3.483   3.476  16.625  0.00  0.00    +0.000 A 
ATOM     26  C   UNL     1       2.985   4.325  17.625  0.00  0.00    +0.000 A 
ATOM     27 CL   UNL     1       1.335   4.071  18.081  0.00  0.00    +0.000 Cl
ENDBRANCH  19  20
ENDBRANCH   9  19
TORSDOF 4
ENDMDL
MODEL 6
REMARK VINA RESULT:      -7.8      3.478      8.231
REMARK  Name = 
REMARK  6 active torsions:
REMARK  status: ('A' for Active; 'I' for Inactive)
REMARK    1  A    between atoms: C_1  and  C_2
REMARK    2  A    between atoms: C_4  and  C_5
REMARK    3  A    between atoms: C_7  and  O_8
REMARK    4  A    between atoms: O_8  and  C_9
REMARK    5  A    between atoms: N_17  and  C_18
REMARK    6  A    between atoms: C_18  and  C_19
REMARK                            x       y       z     vdW  Elec       q    Type
REMARK                         _______ _______ _______ _____ _____    ______ ____
ROOT
ATOM      1  C   UNL     1       2.167   7.792  19.399  0.00  0.00    +0.000 A 
ATOM      2  N   UNL     1       2.273   8.187  18.096  0.00  0.00    +0.000 NA
ATOM      3  C   UNL     1       1.650   9.315  17.720  0.00  0.00    +0.000 A 
ATOM      4  N   UNL     1       0.864  10.104  18.465  0.00  0.00    +0.000 NA
ATOM      5  C   UNL     1       0.757   9.655  19.726  0.00  0.00    +0.000 A 
ATOM      6  C   UNL     1       1.351   8.526  20.270  0.00  0.00    +0.000 A 
ATOM      7  N   UNL     1       0.988   8.384  21.590  0.00  0.00    +0.000 NA
ATOM      8  C   UNL     1       0.166   9.384  21.828  0.00  0.00    +0.000 A 
ATOM      9  N   UNL     1       0.023  10.210  20.742  0.00  0.00    +0.000 N 
ENDROOT
BRANCH   1  10
ATOM     10  O   UNL     1       2.885   6.683  19.838  0.00  0.00    +0.000 OA
BRANCH  10  17
ATOM     11  C   UNL     1       4.854   4.051  16.204  0.00  0.00    +0.000 C 
ATOM     12  C   UNL     1       3.805   4.234  17.262  0.00  0.00    +0.000 A 
ATOM     13  C   UNL     1       2.817   3.255  17.454  0.00  0.00    +0.000 A 
ATOM     14  C   UNL     1       1.815   3.432  18.409  0.00  0.00    +0.000 A 
ATOM     15  C   UNL     1       0.782   2.381  18.690  0.00  0.00    +0.000 C 
ATOM     16  C   UNL     1       1.798   4.608  19.163  0.00  0.00    +0.000 A 
ATOM     17  C   UNL     1       2.818   5.553  19.046  0.00  0.00    +0.000 A 
ATOM     18  C   UNL     1       3.803   5.381  18.071  0.00  0.00    +0.000 A 
ENDBRANCH  10  17
ENDBRANCH   1  10
BRANCH   9  19
ATOM     19  C   UNL     1      -0.929  11.301  20.599  0.00  0.00    +0.000 C 
BRANCH  19  20
ATOM     20  C   UNL     1      -0.618  12.534  21.421  0.00  0.00    +0.000 A 
ATOM     21  C   UNL     1       0.279  13.524  20.964  0.00  0.00    +0.000 A 
ATOM     22 CL   UNL     1       1.134  13.400  19.470  0.00  0.00    +0.000 Cl
ATOM     23  C   UNL     1       0.487  14.712  21.683  0.00  0.00    +0.000 A 
ATOM     24  C   UNL     1      -0.191  14.946  22.871  0.00  0.00    +0.000 A 
ATOM     25  C   UNL     1      -1.065  13.979  23.355  0.00  0.00    +0.000 A 
ATOM     26  C   UNL     1      -1.274  12.789  22.642  0.00  0.00    +0.000 A 
ATOM     27 CL   UNL     1      -2.420  11.689  23.327  0.00  0.00    +0.000 Cl
ENDBRANCH  19  20
ENDBRANCH   9  19
TORSDOF 4
ENDMDL
MODEL 7
REMARK VINA RESULT:      -7.8      3.507      8.157
REMARK  Name = 
REMARK  6 active torsions:
REMARK  status: ('A' for Active; 'I' for Inactive)
REMARK    1  A    between atoms: C_1  and  C_2
REMARK    2  A    between atoms: C_4  and  C_5
REMARK    3  A    between atoms: C_7  and  O_8
REMARK    4  A    between atoms: O_8  and  C_9
REMARK    5  A    between atoms: N_17  and  C_18
REMARK    6  A    between atoms: C_18  and  C_19
REMARK                            x       y       z     vdW  Elec       q    Type
REMARK                         _______ _______ _______ _____ _____    ______ ____
ROOT
ATOM      1  C   UNL     1       2.121   7.777  19.487  0.00  0.00    +0.000 A 
ATOM      2  N   UNL     1       2.149   8.112  18.163  0.00  0.00    +0.000 NA
ATOM      3  C   UNL     1       1.495   9.217  17.772  0.00  0.00    +0.000 A 
ATOM      4  N   UNL     1       0.746  10.035  18.525  0.00  0.00    +0.000 NA
ATOM      5  C   UNL     1       0.716   9.644  19.809  0.00  0.00    +0.000 A 
ATOM      6  C   UNL     1       1.351   8.545  20.369  0.00  0.00    +0.000 A 
ATOM      7  N   UNL     1       1.067   8.462  21.712  0.00  0.00    +0.000 NA
ATOM      8  C   UNL     1       0.250   9.467  21.952  0.00  0.00    +0.000 A 
ATOM      9  N   UNL     1       0.038  10.241  20.840  0.00  0.00    +0.000 N 
ENDROOT
BRANCH   1  10
ATOM     10  O   UNL     1       2.874   6.694  19.934  0.00  0.00    +0.000 OA
BRANCH  10  17
ATOM     11  C   UNL     1       0.735   2.465  18.686  0.00  0.00    +0.000 C 
ATOM     12  C   UNL     1       1.813   3.491  18.485  0.00  0.00    +0.000 A 
ATOM     13  C   UNL     1       2.770   3.322  17.472  0.00  0.00    +0.000 A 
ATOM     14  C   UNL     1       3.798   4.250  17.302  0.00  0.00    +0.000 A 
ATOM     15  C   UNL     1       4.800   4.139  16.191  0.00  0.00    +0.000 C 
ATOM     16  C   UNL     1       3.872   5.344  18.166  0.00  0.00    +0.000 A 
ATOM     17  C   UNL     1       2.884   5.574  19.123  0.00  0.00    +0.000 A 
ATOM     18  C   UNL     1       1.873   4.629  19.305  0.00  0.00    +0.000 A 
ENDBRANCH  10  17
ENDBRANCH   1  10
BRANCH   9  19
ATOM     19  C   UNL     1      -0.931  11.318  20.703  0.00  0.00    +0.000 C 
BRANCH  19  20
ATOM     20  C   UNL     1      -0.631  12.557  21.521  0.00  0.00    +0.000 A 
ATOM     21  C   UNL     1       0.315  13.515  21.098  0.00  0.00    +0.000 A 
ATOM     22 CL   UNL     1       1.245  13.343  19.654  0.00  0.00    +0.000 Cl
ATOM     23  C   UNL     1       0.516  14.709  21.808  0.00  0.00    +0.000 A 
ATOM     24  C   UNL     1      -0.218  14.981  22.954  0.00  0.00    +0.000 A 
ATOM     25  C   UNL     1      -1.143  14.045  23.405  0.00  0.00    +0.000 A 
ATOM     26  C   UNL     1      -1.345  12.849  22.701  0.00  0.00    +0.000 A 
ATOM     27 CL   UNL     1      -2.555  11.790  23.340  0.00  0.00    +0.000 Cl
ENDBRANCH  19  20
ENDBRANCH   9  19
TORSDOF 4
ENDMDL
MODEL 8
REMARK VINA RESULT:      -7.7      0.864      1.964
REMARK  Name = 
REMARK  6 active torsions:
REMARK  status: ('A' for Active; 'I' for Inactive)
REMARK    1  A    between atoms: C_1  and  C_2
REMARK    2  A    between atoms: C_4  and  C_5
REMARK    3  A    between atoms: C_7  and  O_8
REMARK    4  A    between atoms: O_8  and  C_9
REMARK    5  A    between atoms: N_17  and  C_18
REMARK    6  A    between atoms: C_18  and  C_19
REMARK                            x       y       z     vdW  Elec       q    Type
REMARK                         _______ _______ _______ _____ _____    ______ ____
ROOT
ATOM      1  C   UNL     1       0.139  10.156  19.497  0.00  0.00    +0.000 A 
ATOM      2  N   UNL     1      -0.328   9.984  20.769  0.00  0.00    +0.000 NA
ATOM      3  C   UNL     1       0.222   9.020  21.524  0.00  0.00    +0.000 A 
ATOM      4  N   UNL     1       1.164   8.137  21.167  0.00  0.00    +0.000 NA
ATOM      5  C   UNL     1       1.564   8.319  19.898  0.00  0.00    +0.000 A 
ATOM      6  C   UNL     1       1.109   9.276  19.002  0.00  0.00    +0.000 A 
ATOM      7  N   UNL     1       1.744   9.134  17.789  0.00  0.00    +0.000 NA
ATOM      8  C   UNL     1       2.536   8.093  17.937  0.00  0.00    +0.000 A 
ATOM      9  N   UNL     1       2.497   7.587  19.211  0.00  0.00    +0.000 N 
ENDROOT
BRANCH   1  10
ATOM     10  O   UNL     1      -0.344  11.212  18.728  0.00  0.00    +0.000 OA
BRANCH  10  17
ATOM     11  C   UNL     1      -5.030  11.103  17.299  0.00  0.00    +0.000 C 
ATOM     12  C   UNL     1      -3.974  11.531  18.277  0.00  0.00    +0.000 A 
ATOM     13  C   UNL     1      -4.324  12.270  19.418  0.00  0.00    +0.000 A 
ATOM     14  C   UNL     1      -3.346  12.704  20.313  0.00  0.00    +0.000 A 
ATOM     15  C   UNL     1      -3.687  13.439  21.576  0.00  0.00    +0.000 C 
ATOM     16  C   UNL     1      -2.008  12.408  20.050  0.00  0.00    +0.000 A 
ATOM     17  C   UNL     1      -1.647  11.603  18.968  0.00  0.00    +0.000 A 
ATOM     18  C   UNL     1      -2.628  11.193  18.063  0.00  0.00    +0.000 A 
ENDBRANCH  10  17
ENDBRANCH   1  10
BRANCH   9  19
ATOM     19  C   UNL     1       3.108   6.350  19.674  0.00  0.00    +0.000 C 
BRANCH  19  20
ATOM     20  C   UNL     1       2.849   5.141  18.800  0.00  0.00    +0.000 A 
ATOM     21  C   UNL     1       3.683   4.822  17.707  0.00  0.00    +0.000 A 
ATOM     22 CL   UNL     1       5.029   5.795  17.237  0.00  0.00    +0.000 Cl
ATOM     23  C   UNL     1       3.497   3.647  16.962  0.00  0.00    +0.000 A 
ATOM     24  C   UNL     1       2.481   2.759  17.286  0.00  0.00    +0.000 A 
ATOM     25  C   UNL     1       1.632   3.058  18.346  0.00  0.00    +0.000 A 
ATOM     26  C   UNL     1       1.811   4.233  19.091  0.00  0.00    +0.000 A 
ATOM     27 CL   UNL     1       0.717   4.465  20.412  0.00  0.00    +0.000 Cl
ENDBRANCH  19  20
ENDBRANCH   9  19
TORSDOF 4
ENDMDL
MODEL 9
REMARK VINA RESULT:      -7.7      2.256      3.435
REMARK  Name = 
REMARK  6 active torsions:
REMARK  status: ('A' for Active; 'I' for Inactive)
REMARK    1  A    between atoms: C_1  and  C_2
REMARK    2  A    between atoms: C_4  and  C_5
REMARK    3  A    between atoms: C_7  and  O_8
REMARK    4  A    between atoms: O_8  and  C_9
REMARK    5  A    between atoms: N_17  and  C_18
REMARK    6  A    between atoms: C_18  and  C_19
REMARK                            x       y       z     vdW  Elec       q    Type
REMARK                         _______ _______ _______ _____ _____    ______ ____
ROOT
ATOM      1  C   UNL     1       0.362  10.092  19.233  0.00  0.00    +0.000 A 
ATOM      2  N   UNL     1      -0.067   9.987  20.524  0.00  0.00    +0.000 NA
ATOM      3  C   UNL     1       0.498   9.056  21.309  0.00  0.00    +0.000 A 
ATOM      4  N   UNL     1       1.421   8.147  20.967  0.00  0.00    +0.000 NA
ATOM      5  C   UNL     1       1.783   8.262  19.680  0.00  0.00    +0.000 A 
ATOM      6  C   UNL     1       1.310   9.179  18.753  0.00  0.00    +0.000 A 
ATOM      7  N   UNL     1       1.905   8.971  17.529  0.00  0.00    +0.000 NA
ATOM      8  C   UNL     1       2.693   7.931  17.704  0.00  0.00    +0.000 A 
ATOM      9  N   UNL     1       2.688   7.488  19.002  0.00  0.00    +0.000 N 
ENDROOT
BRANCH   1  10
ATOM     10  O   UNL     1      -0.134  11.114  18.428  0.00  0.00    +0.000 OA
BRANCH  10  17
ATOM     11  C   UNL     1       3.648  14.230  18.393  0.00  0.00    +0.000 C 
ATOM     12  C   UNL     1       2.198  13.941  18.653  0.00  0.00    +0.000 A 
ATOM     13  C   UNL     1       1.346  14.958  19.113  0.00  0.00    +0.000 A 
ATOM     14  C   UNL     1       0.006  14.692  19.393  0.00  0.00    +0.000 A 
ATOM     15  C   UNL     1      -0.951  15.765  19.823  0.00  0.00    +0.000 C 
ATOM     16  C   UNL     1      -0.475  13.392  19.227  0.00  0.00    +0.000 A 
ATOM     17  C   UNL     1       0.332  12.388  18.692  0.00  0.00    +0.000 A 
ATOM     18  C   UNL     1       1.679  12.654  18.437  0.00  0.00    +0.000 A 
ENDBRANCH  10  17
ENDBRANCH   1  10
BRANCH   9  19
ATOM     19  C   UNL     1       3.303   6.269  19.507  0.00  0.00    +0.000 C 
BRANCH  19  20
ATOM     20  C   UNL     1       2.940   5.008  18.750  0.00  0.00    +0.000 A 
ATOM     21  C   UNL     1       3.691   4.567  17.639  0.00  0.00    +0.000 A 
ATOM     22 CL   UNL     1       5.044   5.438  17.014  0.00  0.00    +0.000 Cl
ATOM     23  C   UNL     1       3.411   3.347  17.004  0.00  0.00    +0.000 A 
ATOM     24  C   UNL     1       2.381   2.535  17.457  0.00  0.00    +0.000 A 
ATOM     25  C   UNL     1       1.613   2.954  18.538  0.00  0.00    +0.000 A 
ATOM     26  C   UNL     1       1.886   4.174  19.174  0.00  0.00    +0.000 A 
ATOM     27 CL   UNL     1       0.887   4.559  20.533  0.00  0.00    +0.000 Cl
ENDBRANCH  19  20
ENDBRANCH   9  19
TORSDOF 4
ENDMDL
