MODEL 1
REMARK VINA RESULT:      -6.1      0.000      0.000
REMARK  Name = 
REMARK  4 active torsions:
REMARK  status: ('A' for Active; 'I' for Inactive)
REMARK    1  A    between atoms: C_1  and  C_2
REMARK    2  A    between atoms: C_4  and  C_5
REMARK    3  A    between atoms: C_7  and  C_8
REMARK    4  A    between atoms: N_10  and  N_11
REMARK                            x       y       z     vdW  Elec       q    Type
REMARK                         _______ _______ _______ _____ _____    ______ ____
ROOT
ATOM      1  C   UNL     1       8.040   7.733  18.083  0.00  0.00    +0.000 C 
ATOM      2  C   UNL     1       7.298   6.524  17.594  0.00  0.00    +0.000 A 
ATOM      3  C   UNL     1       6.519   5.777  18.462  0.00  0.00    +0.000 A 
ATOM      4  C   UNL     1       5.864   4.680  17.935  0.00  0.00    +0.000 A 
ATOM      5  C   UNL     1       4.990   3.812  18.789  0.00  0.00    +0.000 C 
ATOM      6  N   UNL     1       5.971   4.335  16.639  0.00  0.00    +0.000 NA
ATOM      7  C   UNL     1       6.749   5.118  15.869  0.00  0.00    +0.000 A 
ATOM      8  N   UNL     1       7.430   6.214  16.286  0.00  0.00    +0.000 NA
ENDROOT
BRANCH   7   9
ATOM      9  C   UNL     1       6.905   4.730  14.420  0.00  0.00    +0.000 C 
ATOM     10  O   UNL     1       7.560   5.392  13.611  0.00  0.00    +0.000 OA
ATOM     11  N   UNL     1       6.237   3.562  14.051  0.00  0.00    +0.000 N 
ATOM     12  H   UNL     1       5.859   2.966  14.790  0.00  0.00    +0.000 HD
BRANCH  11  13
ATOM     13  N   UNL     1       6.315   3.101  12.717  0.00  0.00    +0.000 NA
ATOM     14  H   UNL     1       5.831   2.190  12.698  0.00  0.00    +0.000 HD
ATOM     15  H   UNL     1       7.291   2.865  12.521  0.00  0.00    +0.000 HD
ENDBRANCH  11  13
ENDBRANCH   7   9
TORSDOF 2
ENDMDL
MODEL 2
REMARK VINA RESULT:      -6.0      0.961      2.527
REMARK  Name = 
REMARK  4 active torsions:
REMARK  status: ('A' for Active; 'I' for Inactive)
REMARK    1  A    between atoms: C_1  and  C_2
REMARK    2  A    between atoms: C_4  and  C_5
REMARK    3  A    between atoms: C_7  and  C_8
REMARK    4  A    between atoms: N_10  and  N_11
REMARK                            x       y       z     vdW  Elec       q    Type
REMARK                         _______ _______ _______ _____ _____    ______ ____
ROOT
ATOM      1  C   UNL     1       3.483   4.717  17.565  0.00  0.00    +0.000 C 
ATOM      2  C   UNL     1       4.825   5.161  17.064  0.00  0.00    +0.000 A 
ATOM      3  C   UNL     1       5.634   5.974  17.841  0.00  0.00    +0.000 A 
ATOM      4  C   UNL     1       6.858   6.337  17.312  0.00  0.00    +0.000 A 
ATOM      5  C   UNL     1       7.808   7.208  18.076  0.00  0.00    +0.000 C 
ATOM      6  N   UNL     1       7.261   5.932  16.094  0.00  0.00    +0.000 NA
ATOM      7  C   UNL     1       6.411   5.143  15.409  0.00  0.00    +0.000 A 
ATOM      8  N   UNL     1       5.194   4.729  15.839  0.00  0.00    +0.000 NA
ENDROOT
BRANCH   7   9
ATOM      9  C   UNL     1       6.834   4.703  14.031  0.00  0.00    +0.000 C 
ATOM     10  O   UNL     1       7.635   5.336  13.337  0.00  0.00    +0.000 OA
ATOM     11  N   UNL     1       6.240   3.523  13.583  0.00  0.00    +0.000 N 
ATOM     12  H   UNL     1       5.725   2.954  14.257  0.00  0.00    +0.000 HD
BRANCH  11  13
ATOM     13  N   UNL     1       6.564   3.015  12.304  0.00  0.00    +0.000 NA
ATOM     14  H   UNL     1       6.477   1.990  12.370  0.00  0.00    +0.000 HD
ATOM     15  H   UNL     1       7.564   3.166  12.148  0.00  0.00    +0.000 HD
ENDBRANCH  11  13
ENDBRANCH   7   9
TORSDOF 2
ENDMDL
MODEL 3
REMARK VINA RESULT:      -6.0      0.943      1.050
REMARK  Name = 
REMARK  4 active torsions:
REMARK  status: ('A' for Active; 'I' for Inactive)
REMARK    1  A    between atoms: C_1  and  C_2
REMARK    2  A    between atoms: C_4  and  C_5
REMARK    3  A    between atoms: C_7  and  C_8
REMARK    4  A    between atoms: N_10  and  N_11
REMARK                            x       y       z     vdW  Elec       q    Type
REMARK                         _______ _______ _______ _____ _____    ______ ____
ROOT
ATOM      1  C   UNL     1       7.937   6.009  19.064  0.00  0.00    +0.000 C 
ATOM      2  C   UNL     1       7.004   5.308  18.121  0.00  0.00    +0.000 A 
ATOM      3  C   UNL     1       5.834   4.732  18.586  0.00  0.00    +0.000 A 
ATOM      4  C   UNL     1       5.025   4.107  17.656  0.00  0.00    +0.000 A 
ATOM      5  C   UNL     1       3.734   3.460  18.057  0.00  0.00    +0.000 C 
ATOM      6  N   UNL     1       5.347   4.048  16.351  0.00  0.00    +0.000 NA
ATOM      7  C   UNL     1       6.503   4.636  15.988  0.00  0.00    +0.000 A 
ATOM      8  N   UNL     1       7.362   5.274  16.819  0.00  0.00    +0.000 NA
ENDROOT
BRANCH   7   9
ATOM      9  C   UNL     1       6.894   4.554  14.534  0.00  0.00    +0.000 C 
ATOM     10  O   UNL     1       7.689   5.334  14.005  0.00  0.00    +0.000 OA
ATOM     11  N   UNL     1       6.276   3.530  13.817  0.00  0.00    +0.000 N 
ATOM     12  H   UNL     1       5.767   2.813  14.337  0.00  0.00    +0.000 HD
BRANCH  11  13
ATOM     13  N   UNL     1       6.570   3.357  12.445  0.00  0.00    +0.000 NA
ATOM     14  H   UNL     1       6.389   2.364  12.234  0.00  0.00    +0.000 HD
ATOM     15  H   UNL     1       7.582   3.453  12.324  0.00  0.00    +0.000 HD
ENDBRANCH  11  13
ENDBRANCH   7   9
TORSDOF 2
ENDMDL
MODEL 4
REMARK VINA RESULT:      -5.9      3.488      5.107
REMARK  Name = 
REMARK  4 active torsions:
REMARK  status: ('A' for Active; 'I' for Inactive)
REMARK    1  A    between atoms: C_1  and  C_2
REMARK    2  A    between atoms: C_4  and  C_5
REMARK    3  A    between atoms: C_7  and  C_8
REMARK    4  A    between atoms: N_10  and  N_11
REMARK                            x       y       z     vdW  Elec       q    Type
REMARK                         _______ _______ _______ _____ _____    ______ ____
ROOT
ATOM      1  C   UNL     1       2.112   2.203  18.055  0.00  0.00    +0.000 C 
ATOM      2  C   UNL     1       2.750   3.434  18.627  0.00  0.00    +0.000 A 
ATOM      3  C   UNL     1       1.973   4.430  19.197  0.00  0.00    +0.000 A 
ATOM      4  C   UNL     1       2.635   5.531  19.705  0.00  0.00    +0.000 A 
ATOM      5  C   UNL     1       1.887   6.659  20.348  0.00  0.00    +0.000 C 
ATOM      6  N   UNL     1       3.974   5.651  19.654  0.00  0.00    +0.000 NA
ATOM      7  C   UNL     1       4.648   4.634  19.083  0.00  0.00    +0.000 A 
ATOM      8  N   UNL     1       4.096   3.513  18.558  0.00  0.00    +0.000 NA
ENDROOT
BRANCH   7   9
ATOM      9  C   UNL     1       6.147   4.764  18.990  0.00  0.00    +0.000 C 
ATOM     10  O   UNL     1       6.820   5.401  19.804  0.00  0.00    +0.000 OA
ATOM     11  N   UNL     1       6.726   4.116  17.899  0.00  0.00    +0.000 N 
ATOM     12  H   UNL     1       6.151   3.465  17.361  0.00  0.00    +0.000 HD
BRANCH  11  13
ATOM     13  N   UNL     1       8.127   4.169  17.713  0.00  0.00    +0.000 NA
ATOM     14  H   UNL     1       8.482   3.225  17.930  0.00  0.00    +0.000 HD
ATOM     15  H   UNL     1       8.522   4.756  18.452  0.00  0.00    +0.000 HD
ENDBRANCH  11  13
ENDBRANCH   7   9
TORSDOF 2
ENDMDL
MODEL 5
REMARK VINA RESULT:      -5.9      1.652      2.875
REMARK  Name = 
REMARK  4 active torsions:
REMARK  status: ('A' for Active; 'I' for Inactive)
REMARK    1  A    between atoms: C_1  and  C_2
REMARK    2  A    between atoms: C_4  and  C_5
REMARK    3  A    between atoms: C_7  and  C_8
REMARK    4  A    between atoms: N_10  and  N_11
REMARK                            x       y       z     vdW  Elec       q    Type
REMARK                         _______ _______ _______ _____ _____    ______ ____
ROOT
ATOM      1  C   UNL     1       3.580   3.408  17.928  0.00  0.00    +0.000 C 
ATOM      2  C   UNL     1       4.900   4.021  17.566  0.00  0.00    +0.000 A 
ATOM      3  C   UNL     1       5.713   4.571  18.543  0.00  0.00    +0.000 A 
ATOM      4  C   UNL     1       6.915   5.114  18.131  0.00  0.00    +0.000 A 
ATOM      5  C   UNL     1       7.868   5.727  19.111  0.00  0.00    +0.000 C 
ATOM      6  N   UNL     1       7.294   5.121  16.840  0.00  0.00    +0.000 NA
ATOM      7  C   UNL     1       6.442   4.564  15.959  0.00  0.00    +0.000 A 
ATOM      8  N   UNL     1       5.244   4.004  16.260  0.00  0.00    +0.000 NA
ENDROOT
BRANCH   7   9
ATOM      9  C   UNL     1       6.836   4.589  14.504  0.00  0.00    +0.000 C 
ATOM     10  O   UNL     1       6.348   3.833  13.660  0.00  0.00    +0.000 OA
ATOM     11  N   UNL     1       7.813   5.529  14.177  0.00  0.00    +0.000 N 
ATOM     12  H   UNL     1       8.054   6.239  14.871  0.00  0.00    +0.000 HD
BRANCH  11  13
ATOM     13  N   UNL     1       8.259   5.642  12.840  0.00  0.00    +0.000 NA
ATOM     14  H   UNL     1       8.896   4.846  12.680  0.00  0.00    +0.000 HD
ATOM     15  H   UNL     1       8.870   6.461  12.778  0.00  0.00    +0.000 HD
ENDBRANCH  11  13
ENDBRANCH   7   9
TORSDOF 2
ENDMDL
MODEL 6
REMARK VINA RESULT:      -5.8      1.677      1.768
REMARK  Name = 
REMARK  4 active torsions:
REMARK  status: ('A' for Active; 'I' for Inactive)
REMARK    1  A    between atoms: C_1  and  C_2
REMARK    2  A    between atoms: C_4  and  C_5
REMARK    3  A    between atoms: C_7  and  C_8
REMARK    4  A    between atoms: N_10  and  N_11
REMARK                            x       y       z     vdW  Elec       q    Type
REMARK                         _______ _______ _______ _____ _____    ______ ____
ROOT
ATOM      1  C   UNL     1       7.905   5.736  19.269  0.00  0.00    +0.000 C 
ATOM      2  C   UNL     1       6.962   5.156  18.257  0.00  0.00    +0.000 A 
ATOM      3  C   UNL     1       5.741   4.635  18.650  0.00  0.00    +0.000 A 
ATOM      4  C   UNL     1       4.926   4.122  17.659  0.00  0.00    +0.000 A 
ATOM      5  C   UNL     1       3.582   3.542  17.980  0.00  0.00    +0.000 C 
ATOM      6  N   UNL     1       5.289   4.116  16.364  0.00  0.00    +0.000 NA
ATOM      7  C   UNL     1       6.494   4.644  16.073  0.00  0.00    +0.000 A 
ATOM      8  N   UNL     1       7.363   5.173  16.968  0.00  0.00    +0.000 NA
ENDROOT
BRANCH   7   9
ATOM      9  C   UNL     1       6.930   4.619  14.630  0.00  0.00    +0.000 C 
ATOM     10  O   UNL     1       6.481   3.820  13.804  0.00  0.00    +0.000 OA
ATOM     11  N   UNL     1       7.897   5.566  14.293  0.00  0.00    +0.000 N 
ATOM     12  H   UNL     1       8.102   6.308  14.964  0.00  0.00    +0.000 HD
BRANCH  11  13
ATOM     13  N   UNL     1       8.379   5.635  12.966  0.00  0.00    +0.000 NA
ATOM     14  H   UNL     1       9.054   4.862  12.863  0.00  0.00    +0.000 HD
ATOM     15  H   UNL     1       8.955   6.476  12.882  0.00  0.00    +0.000 HD
ENDBRANCH  11  13
ENDBRANCH   7   9
TORSDOF 2
ENDMDL
MODEL 7
REMARK VINA RESULT:      -5.8      1.108      2.581
REMARK  Name = 
REMARK  4 active torsions:
REMARK  status: ('A' for Active; 'I' for Inactive)
REMARK    1  A    between atoms: C_1  and  C_2
REMARK    2  A    between atoms: C_4  and  C_5
REMARK    3  A    between atoms: C_7  and  C_8
REMARK    4  A    between atoms: N_10  and  N_11
REMARK                            x       y       z     vdW  Elec       q    Type
REMARK                         _______ _______ _______ _____ _____    ______ ____
ROOT
ATOM      1  C   UNL     1       3.520   3.431  17.540  0.00  0.00    +0.000 C 
ATOM      2  C   UNL     1       4.874   4.011  17.254  0.00  0.00    +0.000 A 
ATOM      3  C   UNL     1       5.660   4.504  18.282  0.00  0.00    +0.000 A 
ATOM      4  C   UNL     1       6.896   5.019  17.939  0.00  0.00    +0.000 A 
ATOM      5  C   UNL     1       7.824   5.570  18.978  0.00  0.00    +0.000 C 
ATOM      6  N   UNL     1       7.331   5.052  16.666  0.00  0.00    +0.000 NA
ATOM      7  C   UNL     1       6.500   4.550  15.732  0.00  0.00    +0.000 A 
ATOM      8  N   UNL     1       5.274   4.022  15.964  0.00  0.00    +0.000 NA
ENDROOT
BRANCH   7   9
ATOM      9  C   UNL     1       6.959   4.605  14.297  0.00  0.00    +0.000 C 
ATOM     10  O   UNL     1       7.771   5.435  13.880  0.00  0.00    +0.000 OA
ATOM     11  N   UNL     1       6.383   3.649  13.460  0.00  0.00    +0.000 N 
ATOM     12  H   UNL     1       5.857   2.885  13.887  0.00  0.00    +0.000 HD
BRANCH  11  13
ATOM     13  N   UNL     1       6.742   3.607  12.093  0.00  0.00    +0.000 NA
ATOM     14  H   UNL     1       6.862   4.587  11.795  0.00  0.00    +0.000 HD
ATOM     15  H   UNL     1       5.927   3.288  11.562  0.00  0.00    +0.000 HD
ENDBRANCH  11  13
ENDBRANCH   7   9
TORSDOF 2
ENDMDL
MODEL 8
REMARK VINA RESULT:      -5.8      2.575      4.788
REMARK  Name = 
REMARK  4 active torsions:
REMARK  status: ('A' for Active; 'I' for Inactive)
REMARK    1  A    between atoms: C_1  and  C_2
REMARK    2  A    between atoms: C_4  and  C_5
REMARK    3  A    between atoms: C_7  and  C_8
REMARK    4  A    between atoms: N_10  and  N_11
REMARK                            x       y       z     vdW  Elec       q    Type
REMARK                         _______ _______ _______ _____ _____    ______ ____
ROOT
ATOM      1  C   UNL     1       3.514   3.605  17.016  0.00  0.00    +0.000 C 
ATOM      2  C   UNL     1       4.851   4.219  16.722  0.00  0.00    +0.000 A 
ATOM      3  C   UNL     1       5.337   4.259  15.426  0.00  0.00    +0.000 A 
ATOM      4  C   UNL     1       6.575   4.843  15.235  0.00  0.00    +0.000 A 
ATOM      5  C   UNL     1       7.186   4.944  13.870  0.00  0.00    +0.000 C 
ATOM      6  N   UNL     1       7.293   5.352  16.253  0.00  0.00    +0.000 NA
ATOM      7  C   UNL     1       6.742   5.269  17.479  0.00  0.00    +0.000 A 
ATOM      8  N   UNL     1       5.537   4.720  17.771  0.00  0.00    +0.000 NA
ENDROOT
BRANCH   7   9
ATOM      9  C   UNL     1       7.545   5.807  18.636  0.00  0.00    +0.000 C 
ATOM     10  O   UNL     1       8.185   6.860  18.581  0.00  0.00    +0.000 OA
ATOM     11  N   UNL     1       7.523   5.015  19.784  0.00  0.00    +0.000 N 
ATOM     12  H   UNL     1       6.844   4.253  19.834  0.00  0.00    +0.000 HD
BRANCH  11  13
ATOM     13  N   UNL     1       8.240   5.423  20.932  0.00  0.00    +0.000 NA
ATOM     14  H   UNL     1       8.689   4.574  21.309  0.00  0.00    +0.000 HD
ATOM     15  H   UNL     1       7.561   5.682  21.653  0.00  0.00    +0.000 HD
ENDBRANCH  11  13
ENDBRANCH   7   9
TORSDOF 2
ENDMDL
MODEL 9
REMARK VINA RESULT:      -5.7      3.193      4.450
REMARK  Name = 
REMARK  4 active torsions:
REMARK  status: ('A' for Active; 'I' for Inactive)
REMARK    1  A    between atoms: C_1  and  C_2
REMARK    2  A    between atoms: C_4  and  C_5
REMARK    3  A    between atoms: C_7  and  C_8
REMARK    4  A    between atoms: N_10  and  N_11
REMARK                            x       y       z     vdW  Elec       q    Type
REMARK                         _______ _______ _______ _____ _____    ______ ____
ROOT
ATOM      1  C   UNL     1       2.473   7.419  18.049  0.00  0.00    +0.000 C 
ATOM      2  C   UNL     1       3.172   6.092  18.023  0.00  0.00    +0.000 A 
ATOM      3  C   UNL     1       2.455   4.923  17.826  0.00  0.00    +0.000 A 
ATOM      4  C   UNL     1       3.170   3.740  17.812  0.00  0.00    +0.000 A 
ATOM      5  C   UNL     1       2.490   2.423  17.598  0.00  0.00    +0.000 C 
ATOM      6  N   UNL     1       4.504   3.707  17.984  0.00  0.00    +0.000 NA
ATOM      7  C   UNL     1       5.118   4.891  18.168  0.00  0.00    +0.000 A 
ATOM      8  N   UNL     1       4.510   6.102  18.197  0.00  0.00    +0.000 NA
ENDROOT
BRANCH   7   9
ATOM      9  C   UNL     1       6.609   4.870  18.393  0.00  0.00    +0.000 C 
ATOM     10  O   UNL     1       7.410   4.441  17.558  0.00  0.00    +0.000 OA
ATOM     11  N   UNL     1       7.023   5.364  19.629  0.00  0.00    +0.000 N 
ATOM     12  H   UNL     1       6.342   5.863  20.205  0.00  0.00    +0.000 HD
BRANCH  11  13
ATOM     13  N   UNL     1       8.400   5.394  19.948  0.00  0.00    +0.000 NA
ATOM     14  H   UNL     1       8.459   5.589  20.959  0.00  0.00    +0.000 HD
ATOM     15  H   UNL     1       8.807   6.227  19.513  0.00  0.00    +0.000 HD
ENDBRANCH  11  13
ENDBRANCH   7   9
TORSDOF 2
ENDMDL
