MODEL 1
REMARK VINA RESULT:      -9.5      0.000      0.000
REMARK  Name = 
REMARK  7 active torsions:
REMARK  status: ('A' for Active; 'I' for Inactive)
REMARK    1  A    between atoms: C_1  and  C_2
REMARK    2  A    between atoms: C_6  and  C_8
REMARK    3  A    between atoms: C_10  and  C_11
REMARK    4  A    between atoms: C_14  and  O_15
REMARK    5  A    between atoms: O_15  and  C_16
REMARK    6  A    between atoms: C_16  and  C_17
REMARK    7  A    between atoms: C_16  and  C_18
REMARK                            x       y       z     vdW  Elec       q    Type
REMARK                         _______ _______ _______ _____ _____    ______ ____
ROOT
ATOM      1  C   UNL     1       3.999   5.753  18.740  0.00  0.00    +0.000 A 
ATOM      2  C   UNL     1       3.272   6.937  18.837  0.00  0.00    +0.000 A 
ATOM      3  C   UNL     1       2.237   7.028  19.747  0.00  0.00    +0.000 A 
ATOM      4  N   UNL     1       1.902   5.984  20.537  0.00  0.00    +0.000 NA
ATOM      5  C   UNL     1       2.567   4.820  20.422  0.00  0.00    +0.000 A 
ATOM      6  C   UNL     1       2.177   3.766  21.240  0.00  0.00    +0.000 A 
ATOM      7  C   UNL     1       2.809   2.521  21.202  0.00  0.00    +0.000 A 
ATOM      8  C   UNL     1       3.866   2.318  20.332  0.00  0.00    +0.000 A 
ATOM      9  C   UNL     1       4.285   3.363  19.511  0.00  0.00    +0.000 A 
ATOM     10  C   UNL     1       3.643   4.631  19.531  0.00  0.00    +0.000 A 
ENDROOT
BRANCH   1  16
ATOM     11  C   UNL     1       7.222   4.156  12.271  0.00  0.00    +0.000 C 
ATOM     12  C   UNL     1       6.728   4.550  13.597  0.00  0.00    +0.000 A 
ATOM     13  C   UNL     1       5.557   4.377  14.292  0.00  0.00    +0.000 A 
ATOM     14  C   UNL     1       5.781   5.028  15.531  0.00  0.00    +0.000 A 
ATOM     15  N   UNL     1       4.861   5.111  16.555  0.00  0.00    +0.000 N 
ATOM     16  C   UNL     1       5.131   5.725  17.769  0.00  0.00    +0.000 C 
ATOM     17  O   UNL     1       6.200   6.220  18.108  0.00  0.00    +0.000 OA
ATOM     18  N   UNL     1       7.014   5.549  15.566  0.00  0.00    +0.000 NA
ATOM     19  O   UNL     1       7.599   5.253  14.364  0.00  0.00    +0.000 OA
ATOM     20  H   UNL     1       3.954   4.715  16.361  0.00  0.00    +0.000 HD
ENDBRANCH   1  16
BRANCH   3  21
ATOM     21  C   UNL     1       1.513   8.296  19.950  0.00  0.00    +0.000 A 
ATOM     22  C   UNL     1       0.884   8.599  21.172  0.00  0.00    +0.000 A 
ATOM     23  C   UNL     1       0.073   9.727  21.311  0.00  0.00    +0.000 A 
ATOM     24  C   UNL     1      -0.093  10.611  20.249  0.00  0.00    +0.000 A 
ATOM     25  C   UNL     1       0.578  10.368  19.054  0.00  0.00    +0.000 A 
ATOM     26  C   UNL     1       1.361   9.216  18.903  0.00  0.00    +0.000 A 
BRANCH  24  27
ATOM     27  O   UNL     1      -0.991  11.616  20.471  0.00  0.00    +0.000 OA
BRANCH  27  28
ATOM     28  C   UNL     1      -1.095  12.145  21.798  0.00  0.00    +0.000 C 
ATOM     29  C   UNL     1      -0.249  13.407  21.957  0.00  0.00    +0.000 C 
ATOM     30  C   UNL     1      -2.566  12.517  21.995  0.00  0.00    +0.000 C 
ENDBRANCH  27  28
ENDBRANCH  24  27
ENDBRANCH   3  21
TORSDOF 4
ENDMDL
MODEL 2
REMARK VINA RESULT:      -9.5      0.852      1.380
REMARK  Name = 
REMARK  7 active torsions:
REMARK  status: ('A' for Active; 'I' for Inactive)
REMARK    1  A    between atoms: C_1  and  C_2
REMARK    2  A    between atoms: C_6  and  C_8
REMARK    3  A    between atoms: C_10  and  C_11
REMARK    4  A    between atoms: C_14  and  O_15
REMARK    5  A    between atoms: O_15  and  C_16
REMARK    6  A    between atoms: C_16  and  C_17
REMARK    7  A    between atoms: C_16  and  C_18
REMARK                            x       y       z     vdW  Elec       q    Type
REMARK                         _______ _______ _______ _____ _____    ______ ____
ROOT
ATOM      1  C   UNL     1       4.011   5.773  18.687  0.00  0.00    +0.000 A 
ATOM      2  C   UNL     1       3.293   6.965  18.763  0.00  0.00    +0.000 A 
ATOM      3  C   UNL     1       2.256   7.078  19.669  0.00  0.00    +0.000 A 
ATOM      4  N   UNL     1       1.910   6.049  20.474  0.00  0.00    +0.000 NA
ATOM      5  C   UNL     1       2.567   4.878  20.379  0.00  0.00    +0.000 A 
ATOM      6  C   UNL     1       2.166   3.840  21.211  0.00  0.00    +0.000 A 
ATOM      7  C   UNL     1       2.788   2.589  21.195  0.00  0.00    +0.000 A 
ATOM      8  C   UNL     1       3.846   2.364  20.331  0.00  0.00    +0.000 A 
ATOM      9  C   UNL     1       4.275   3.393  19.495  0.00  0.00    +0.000 A 
ATOM     10  C   UNL     1       3.643   4.667  19.494  0.00  0.00    +0.000 A 
ENDROOT
BRANCH   1  16
ATOM     11  C   UNL     1       7.224   4.101  12.232  0.00  0.00    +0.000 C 
ATOM     12  C   UNL     1       6.733   4.507  13.556  0.00  0.00    +0.000 A 
ATOM     13  C   UNL     1       5.557   4.358  14.247  0.00  0.00    +0.000 A 
ATOM     14  C   UNL     1       5.789   5.007  15.485  0.00  0.00    +0.000 A 
ATOM     15  N   UNL     1       4.867   5.111  16.507  0.00  0.00    +0.000 N 
ATOM     16  C   UNL     1       5.145   5.722  17.720  0.00  0.00    +0.000 C 
ATOM     17  O   UNL     1       6.222   6.196  18.061  0.00  0.00    +0.000 OA
ATOM     18  N   UNL     1       7.031   5.504  15.524  0.00  0.00    +0.000 NA
ATOM     19  O   UNL     1       7.615   5.194  14.324  0.00  0.00    +0.000 OA
ATOM     20  H   UNL     1       3.953   4.732  16.310  0.00  0.00    +0.000 HD
ENDBRANCH   1  16
BRANCH   3  21
ATOM     21  C   UNL     1       1.542   8.355  19.850  0.00  0.00    +0.000 A 
ATOM     22  C   UNL     1       1.425   9.291  18.806  0.00  0.00    +0.000 A 
ATOM     23  C   UNL     1       0.883  10.559  19.023  0.00  0.00    +0.000 A 
ATOM     24  C   UNL     1       0.396  10.911  20.279  0.00  0.00    +0.000 A 
ATOM     25  C   UNL     1       0.436   9.974  21.308  0.00  0.00    +0.000 A 
ATOM     26  C   UNL     1       1.015   8.716  21.098  0.00  0.00    +0.000 A 
BRANCH  24  27
ATOM     27  O   UNL     1      -0.011  12.209  20.396  0.00  0.00    +0.000 OA
BRANCH  27  28
ATOM     28  C   UNL     1      -0.868  12.741  19.379  0.00  0.00    +0.000 C 
ATOM     29  C   UNL     1      -2.336  12.452  19.687  0.00  0.00    +0.000 C 
ATOM     30  C   UNL     1      -0.657  14.256  19.391  0.00  0.00    +0.000 C 
ENDBRANCH  27  28
ENDBRANCH  24  27
ENDBRANCH   3  21
TORSDOF 4
ENDMDL
MODEL 3
REMARK VINA RESULT:      -9.4      0.909      1.081
REMARK  Name = 
REMARK  7 active torsions:
REMARK  status: ('A' for Active; 'I' for Inactive)
REMARK    1  A    between atoms: C_1  and  C_2
REMARK    2  A    between atoms: C_6  and  C_8
REMARK    3  A    between atoms: C_10  and  C_11
REMARK    4  A    between atoms: C_14  and  O_15
REMARK    5  A    between atoms: O_15  and  C_16
REMARK    6  A    between atoms: C_16  and  C_17
REMARK    7  A    between atoms: C_16  and  C_18
REMARK                            x       y       z     vdW  Elec       q    Type
REMARK                         _______ _______ _______ _____ _____    ______ ____
ROOT
ATOM      1  C   UNL     1       3.963   5.905  18.572  0.00  0.00    +0.000 A 
ATOM      2  C   UNL     1       3.288   7.124  18.580  0.00  0.00    +0.000 A 
ATOM      3  C   UNL     1       2.234   7.313  19.452  0.00  0.00    +0.000 A 
ATOM      4  N   UNL     1       1.831   6.333  20.291  0.00  0.00    +0.000 NA
ATOM      5  C   UNL     1       2.447   5.136  20.262  0.00  0.00    +0.000 A 
ATOM      6  C   UNL     1       1.988   4.150  21.127  0.00  0.00    +0.000 A 
ATOM      7  C   UNL     1       2.563   2.878  21.180  0.00  0.00    +0.000 A 
ATOM      8  C   UNL     1       3.633   2.578  20.355  0.00  0.00    +0.000 A 
ATOM      9  C   UNL     1       4.120   3.554  19.487  0.00  0.00    +0.000 A 
ATOM     10  C   UNL     1       3.536   4.849  19.415  0.00  0.00    +0.000 A 
ENDROOT
BRANCH   1  16
ATOM     11  C   UNL     1       7.226   4.023  12.201  0.00  0.00    +0.000 C 
ATOM     12  C   UNL     1       6.729   4.459  13.512  0.00  0.00    +0.000 A 
ATOM     13  C   UNL     1       5.525   4.398  14.168  0.00  0.00    +0.000 A 
ATOM     14  C   UNL     1       5.770   5.020  15.417  0.00  0.00    +0.000 A 
ATOM     15  N   UNL     1       4.829   5.190  16.413  0.00  0.00    +0.000 N 
ATOM     16  C   UNL     1       5.118   5.771  17.638  0.00  0.00    +0.000 C 
ATOM     17  O   UNL     1       6.218   6.160  18.014  0.00  0.00    +0.000 OA
ATOM     18  N   UNL     1       7.045   5.420  15.495  0.00  0.00    +0.000 NA
ATOM     19  O   UNL     1       7.638   5.073  14.310  0.00  0.00    +0.000 OA
ATOM     20  H   UNL     1       3.895   4.883  16.187  0.00  0.00    +0.000 HD
ENDBRANCH   1  16
BRANCH   3  21
ATOM     21  C   UNL     1       1.563   8.621  19.561  0.00  0.00    +0.000 A 
ATOM     22  C   UNL     1       0.762   8.949  20.670  0.00  0.00    +0.000 A 
ATOM     23  C   UNL     1       0.007  10.124  20.699  0.00  0.00    +0.000 A 
ATOM     24  C   UNL     1       0.070  11.028  19.642  0.00  0.00    +0.000 A 
ATOM     25  C   UNL     1       0.912  10.756  18.568  0.00  0.00    +0.000 A 
ATOM     26  C   UNL     1       1.639   9.560  18.523  0.00  0.00    +0.000 A 
BRANCH  24  27
ATOM     27  O   UNL     1      -0.791  12.084  19.736  0.00  0.00    +0.000 OA
BRANCH  27  28
ATOM     28  C   UNL     1      -2.193  11.805  19.820  0.00  0.00    +0.000 C 
ATOM     29  C   UNL     1      -2.955  12.983  20.424  0.00  0.00    +0.000 C 
ATOM     30  C   UNL     1      -2.674  11.599  18.382  0.00  0.00    +0.000 C 
ENDBRANCH  27  28
ENDBRANCH  24  27
ENDBRANCH   3  21
TORSDOF 4
ENDMDL
MODEL 4
REMARK VINA RESULT:      -9.3      0.667      1.174
REMARK  Name = 
REMARK  7 active torsions:
REMARK  status: ('A' for Active; 'I' for Inactive)
REMARK    1  A    between atoms: C_1  and  C_2
REMARK    2  A    between atoms: C_6  and  C_8
REMARK    3  A    between atoms: C_10  and  C_11
REMARK    4  A    between atoms: C_14  and  O_15
REMARK    5  A    between atoms: O_15  and  C_16
REMARK    6  A    between atoms: C_16  and  C_17
REMARK    7  A    between atoms: C_16  and  C_18
REMARK                            x       y       z     vdW  Elec       q    Type
REMARK                         _______ _______ _______ _____ _____    ______ ____
ROOT
ATOM      1  C   UNL     1       3.997   5.835  18.617  0.00  0.00    +0.000 A 
ATOM      2  C   UNL     1       3.275   7.025  18.666  0.00  0.00    +0.000 A 
ATOM      3  C   UNL     1       2.234   7.153  19.564  0.00  0.00    +0.000 A 
ATOM      4  N   UNL     1       1.887   6.139  20.388  0.00  0.00    +0.000 NA
ATOM      5  C   UNL     1       2.547   4.969  20.319  0.00  0.00    +0.000 A 
ATOM      6  C   UNL     1       2.146   3.946  21.169  0.00  0.00    +0.000 A 
ATOM      7  C   UNL     1       2.771   2.697  21.181  0.00  0.00    +0.000 A 
ATOM      8  C   UNL     1       3.834   2.458  20.327  0.00  0.00    +0.000 A 
ATOM      9  C   UNL     1       4.264   3.472  19.472  0.00  0.00    +0.000 A 
ATOM     10  C   UNL     1       3.629   4.744  19.443  0.00  0.00    +0.000 A 
ENDROOT
BRANCH   1  16
ATOM     11  C   UNL     1       7.238   4.071  12.201  0.00  0.00    +0.000 C 
ATOM     12  C   UNL     1       6.741   4.495  13.516  0.00  0.00    +0.000 A 
ATOM     13  C   UNL     1       5.562   4.359  14.203  0.00  0.00    +0.000 A 
ATOM     14  C   UNL     1       5.789   5.022  15.434  0.00  0.00    +0.000 A 
ATOM     15  N   UNL     1       4.862   5.142  16.449  0.00  0.00    +0.000 N 
ATOM     16  C   UNL     1       5.136   5.768  17.656  0.00  0.00    +0.000 C 
ATOM     17  O   UNL     1       6.213   6.243  17.997  0.00  0.00    +0.000 OA
ATOM     18  N   UNL     1       7.033   5.517  15.473  0.00  0.00    +0.000 NA
ATOM     19  O   UNL     1       7.622   5.190  14.280  0.00  0.00    +0.000 OA
ATOM     20  H   UNL     1       3.949   4.763  16.253  0.00  0.00    +0.000 HD
ENDBRANCH   1  16
BRANCH   3  21
ATOM     21  C   UNL     1       1.515   8.431  19.717  0.00  0.00    +0.000 A 
ATOM     22  C   UNL     1       1.403   9.347  18.655  0.00  0.00    +0.000 A 
ATOM     23  C   UNL     1       0.856  10.618  18.846  0.00  0.00    +0.000 A 
ATOM     24  C   UNL     1       0.359  10.991  20.091  0.00  0.00    +0.000 A 
ATOM     25  C   UNL     1       0.394  10.073  21.137  0.00  0.00    +0.000 A 
ATOM     26  C   UNL     1       0.978   8.813  20.955  0.00  0.00    +0.000 A 
BRANCH  24  27
ATOM     27  O   UNL     1      -0.052  12.291  20.182  0.00  0.00    +0.000 OA
BRANCH  27  28
ATOM     28  C   UNL     1       0.396  13.063  21.301  0.00  0.00    +0.000 C 
ATOM     29  C   UNL     1       1.664  13.844  20.962  0.00  0.00    +0.000 C 
ATOM     30  C   UNL     1      -0.723  14.060  21.608  0.00  0.00    +0.000 C 
ENDBRANCH  27  28
ENDBRANCH  24  27
ENDBRANCH   3  21
TORSDOF 4
ENDMDL
MODEL 5
REMARK VINA RESULT:      -8.9      0.820      1.009
REMARK  Name = 
REMARK  7 active torsions:
REMARK  status: ('A' for Active; 'I' for Inactive)
REMARK    1  A    between atoms: C_1  and  C_2
REMARK    2  A    between atoms: C_6  and  C_8
REMARK    3  A    between atoms: C_10  and  C_11
REMARK    4  A    between atoms: C_14  and  O_15
REMARK    5  A    between atoms: O_15  and  C_16
REMARK    6  A    between atoms: C_16  and  C_17
REMARK    7  A    between atoms: C_16  and  C_18
REMARK                            x       y       z     vdW  Elec       q    Type
REMARK                         _______ _______ _______ _____ _____    ______ ____
ROOT
ATOM      1  C   UNL     1       3.716   5.678  18.606  0.00  0.00    +0.000 A 
ATOM      2  C   UNL     1       3.187   6.917  18.962  0.00  0.00    +0.000 A 
ATOM      3  C   UNL     1       2.101   6.975  19.813  0.00  0.00    +0.000 A 
ATOM      4  N   UNL     1       1.527   5.851  20.298  0.00  0.00    +0.000 NA
ATOM      5  C   UNL     1       2.000   4.647  19.927  0.00  0.00    +0.000 A 
ATOM      6  C   UNL     1       1.369   3.517  20.433  0.00  0.00    +0.000 A 
ATOM      7  C   UNL     1       1.788   2.223  20.115  0.00  0.00    +0.000 A 
ATOM      8  C   UNL     1       2.874   2.045  19.275  0.00  0.00    +0.000 A 
ATOM      9  C   UNL     1       3.533   3.162  18.764  0.00  0.00    +0.000 A 
ATOM     10  C   UNL     1       3.108   4.484  19.071  0.00  0.00    +0.000 A 
ENDROOT
BRANCH   1  16
ATOM     11  C   UNL     1       7.384   4.275  12.333  0.00  0.00    +0.000 C 
ATOM     12  C   UNL     1       6.798   4.628  13.632  0.00  0.00    +0.000 A 
ATOM     13  C   UNL     1       5.581   4.437  14.237  0.00  0.00    +0.000 A 
ATOM     14  C   UNL     1       5.718   5.048  15.509  0.00  0.00    +0.000 A 
ATOM     15  N   UNL     1       4.728   5.102  16.468  0.00  0.00    +0.000 N 
ATOM     16  C   UNL     1       4.913   5.678  17.716  0.00  0.00    +0.000 C 
ATOM     17  O   UNL     1       5.956   6.158  18.145  0.00  0.00    +0.000 OA
ATOM     18  N   UNL     1       6.945   5.565  15.647  0.00  0.00    +0.000 NA
ATOM     19  O   UNL     1       7.613   5.305  14.479  0.00  0.00    +0.000 OA
ATOM     20  H   UNL     1       3.837   4.715  16.199  0.00  0.00    +0.000 HD
ENDBRANCH   1  16
BRANCH   3  21
ATOM     21  C   UNL     1       1.579   8.267  20.293  0.00  0.00    +0.000 A 
ATOM     22  C   UNL     1       1.291   8.488  21.652  0.00  0.00    +0.000 A 
ATOM     23  C   UNL     1       0.656   9.656  22.080  0.00  0.00    +0.000 A 
ATOM     24  C   UNL     1       0.335  10.658  21.168  0.00  0.00    +0.000 A 
ATOM     25  C   UNL     1       0.677  10.490  19.830  0.00  0.00    +0.000 A 
ATOM     26  C   UNL     1       1.279   9.302  19.396  0.00  0.00    +0.000 A 
BRANCH  24  27
ATOM     27  O   UNL     1      -0.377  11.702  21.687  0.00  0.00    +0.000 OA
BRANCH  27  28
ATOM     28  C   UNL     1      -0.403  12.930  20.951  0.00  0.00    +0.000 C 
ATOM     29  C   UNL     1      -1.812  13.244  20.452  0.00  0.00    +0.000 C 
ATOM     30  C   UNL     1       0.021  14.025  21.932  0.00  0.00    +0.000 C 
ENDBRANCH  27  28
ENDBRANCH  24  27
ENDBRANCH   3  21
TORSDOF 4
ENDMDL
MODEL 6
REMARK VINA RESULT:      -8.6      1.193      1.222
REMARK  Name = 
REMARK  7 active torsions:
REMARK  status: ('A' for Active; 'I' for Inactive)
REMARK    1  A    between atoms: C_1  and  C_2
REMARK    2  A    between atoms: C_6  and  C_8
REMARK    3  A    between atoms: C_10  and  C_11
REMARK    4  A    between atoms: C_14  and  O_15
REMARK    5  A    between atoms: O_15  and  C_16
REMARK    6  A    between atoms: C_16  and  C_17
REMARK    7  A    between atoms: C_16  and  C_18
REMARK                            x       y       z     vdW  Elec       q    Type
REMARK                         _______ _______ _______ _____ _____    ______ ____
ROOT
ATOM      1  C   UNL     1       3.873   5.533  17.678  0.00  0.00    +0.000 A 
ATOM      2  C   UNL     1       3.379   6.782  18.046  0.00  0.00    +0.000 A 
ATOM      3  C   UNL     1       2.378   6.867  18.993  0.00  0.00    +0.000 A 
ATOM      4  N   UNL     1       1.854   5.759  19.563  0.00  0.00    +0.000 NA
ATOM      5  C   UNL     1       2.291   4.544  19.184  0.00  0.00    +0.000 A 
ATOM      6  C   UNL     1       1.711   3.431  19.780  0.00  0.00    +0.000 A 
ATOM      7  C   UNL     1       2.100   2.127  19.462  0.00  0.00    +0.000 A 
ATOM      8  C   UNL     1       3.103   1.923  18.530  0.00  0.00    +0.000 A 
ATOM      9  C   UNL     1       3.709   3.023  17.927  0.00  0.00    +0.000 A 
ATOM     10  C   UNL     1       3.314   4.354  18.233  0.00  0.00    +0.000 A 
ENDROOT
BRANCH   1  16
ATOM     11  C   UNL     1       7.212   3.319  11.454  0.00  0.00    +0.000 C 
ATOM     12  C   UNL     1       6.681   3.863  12.712  0.00  0.00    +0.000 A 
ATOM     13  C   UNL     1       5.562   3.641  13.474  0.00  0.00    +0.000 A 
ATOM     14  C   UNL     1       5.700   4.527  14.571  0.00  0.00    +0.000 A 
ATOM     15  N   UNL     1       4.793   4.652  15.603  0.00  0.00    +0.000 N 
ATOM     16  C   UNL     1       4.981   5.505  16.680  0.00  0.00    +0.000 C 
ATOM     17  O   UNL     1       5.965   6.207  16.884  0.00  0.00    +0.000 OA
ATOM     18  N   UNL     1       6.837   5.226  14.465  0.00  0.00    +0.000 NA
ATOM     19  O   UNL     1       7.443   4.813  13.308  0.00  0.00    +0.000 OA
ATOM     20  H   UNL     1       3.956   4.095  15.519  0.00  0.00    +0.000 HD
ENDBRANCH   1  16
BRANCH   3  21
ATOM     21  C   UNL     1       1.902   8.174  19.482  0.00  0.00    +0.000 A 
ATOM     22  C   UNL     1       1.533   8.370  20.826  0.00  0.00    +0.000 A 
ATOM     23  C   UNL     1       0.941   9.561  21.250  0.00  0.00    +0.000 A 
ATOM     24  C   UNL     1       0.745  10.609  20.355  0.00  0.00    +0.000 A 
ATOM     25  C   UNL     1       1.169  10.462  19.037  0.00  0.00    +0.000 A 
ATOM     26  C   UNL     1       1.729   9.253  18.604  0.00  0.00    +0.000 A 
BRANCH  24  27
ATOM     27  O   UNL     1       0.063  11.678  20.860  0.00  0.00    +0.000 OA
BRANCH  27  28
ATOM     28  C   UNL     1      -1.253  11.453  21.378  0.00  0.00    +0.000 C 
ATOM     29  C   UNL     1      -1.377  11.964  22.813  0.00  0.00    +0.000 C 
ATOM     30  C   UNL     1      -2.205  12.258  20.491  0.00  0.00    +0.000 C 
ENDBRANCH  27  28
ENDBRANCH  24  27
ENDBRANCH   3  21
TORSDOF 4
ENDMDL
MODEL 7
REMARK VINA RESULT:      -8.5      0.737      1.221
REMARK  Name = 
REMARK  7 active torsions:
REMARK  status: ('A' for Active; 'I' for Inactive)
REMARK    1  A    between atoms: C_1  and  C_2
REMARK    2  A    between atoms: C_6  and  C_8
REMARK    3  A    between atoms: C_10  and  C_11
REMARK    4  A    between atoms: C_14  and  O_15
REMARK    5  A    between atoms: O_15  and  C_16
REMARK    6  A    between atoms: C_16  and  C_17
REMARK    7  A    between atoms: C_16  and  C_18
REMARK                            x       y       z     vdW  Elec       q    Type
REMARK                         _______ _______ _______ _____ _____    ______ ____
ROOT
ATOM      1  C   UNL     1       3.692   5.899  18.674  0.00  0.00    +0.000 A 
ATOM      2  C   UNL     1       3.056   7.103  18.968  0.00  0.00    +0.000 A 
ATOM      3  C   UNL     1       2.091   7.139  19.956  0.00  0.00    +0.000 A 
ATOM      4  N   UNL     1       1.737   6.025  20.634  0.00  0.00    +0.000 NA
ATOM      5  C   UNL     1       2.312   4.847  20.329  0.00  0.00    +0.000 A 
ATOM      6  C   UNL     1       1.905   3.723  21.037  0.00  0.00    +0.000 A 
ATOM      7  C   UNL     1       2.446   2.457  20.801  0.00  0.00    +0.000 A 
ATOM      8  C   UNL     1       3.428   2.303  19.838  0.00  0.00    +0.000 A 
ATOM      9  C   UNL     1       3.863   3.417  19.122  0.00  0.00    +0.000 A 
ATOM     10  C   UNL     1       3.312   4.709  19.345  0.00  0.00    +0.000 A 
ENDROOT
BRANCH   1  16
ATOM     11  C   UNL     1       6.932   3.749  12.376  0.00  0.00    +0.000 C 
ATOM     12  C   UNL     1       6.412   4.291  13.638  0.00  0.00    +0.000 A 
ATOM     13  C   UNL     1       5.351   4.005  14.458  0.00  0.00    +0.000 A 
ATOM     14  C   UNL     1       5.460   4.938  15.519  0.00  0.00    +0.000 A 
ATOM     15  N   UNL     1       4.592   5.023  16.588  0.00  0.00    +0.000 N 
ATOM     16  C   UNL     1       4.754   5.927  17.627  0.00  0.00    +0.000 C 
ATOM     17  O   UNL     1       5.682   6.716  17.762  0.00  0.00    +0.000 OA
ATOM     18  N   UNL     1       6.528   5.725  15.337  0.00  0.00    +0.000 NA
ATOM     19  O   UNL     1       7.116   5.323  14.168  0.00  0.00    +0.000 OA
ATOM     20  H   UNL     1       3.802   4.396  16.560  0.00  0.00    +0.000 HD
ENDBRANCH   1  16
BRANCH   3  21
ATOM     21  C   UNL     1       1.470   8.412  20.365  0.00  0.00    +0.000 A 
ATOM     22  C   UNL     1       1.365   9.501  19.480  0.00  0.00    +0.000 A 
ATOM     23  C   UNL     1       0.918  10.750  19.914  0.00  0.00    +0.000 A 
ATOM     24  C   UNL     1       0.515  10.934  21.234  0.00  0.00    +0.000 A 
ATOM     25  C   UNL     1       0.542   9.851  22.108  0.00  0.00    +0.000 A 
ATOM     26  C   UNL     1       1.027   8.608  21.681  0.00  0.00    +0.000 A 
BRANCH  24  27
ATOM     27  O   UNL     1       0.199  12.221  21.566  0.00  0.00    +0.000 OA
BRANCH  27  28
ATOM     28  C   UNL     1      -1.183  12.596  21.567  0.00  0.00    +0.000 C 
ATOM     29  C   UNL     1      -1.928  11.965  20.392  0.00  0.00    +0.000 C 
ATOM     30  C   UNL     1      -1.774  12.049  22.868  0.00  0.00    +0.000 C 
ENDBRANCH  27  28
ENDBRANCH  24  27
ENDBRANCH   3  21
TORSDOF 4
ENDMDL
MODEL 8
REMARK VINA RESULT:      -8.5      1.381      1.922
REMARK  Name = 
REMARK  7 active torsions:
REMARK  status: ('A' for Active; 'I' for Inactive)
REMARK    1  A    between atoms: C_1  and  C_2
REMARK    2  A    between atoms: C_6  and  C_8
REMARK    3  A    between atoms: C_10  and  C_11
REMARK    4  A    between atoms: C_14  and  O_15
REMARK    5  A    between atoms: O_15  and  C_16
REMARK    6  A    between atoms: C_16  and  C_17
REMARK    7  A    between atoms: C_16  and  C_18
REMARK                            x       y       z     vdW  Elec       q    Type
REMARK                         _______ _______ _______ _____ _____    ______ ____
ROOT
ATOM      1  C   UNL     1       3.827   6.501  18.016  0.00  0.00    +0.000 A 
ATOM      2  C   UNL     1       3.175   7.731  17.984  0.00  0.00    +0.000 A 
ATOM      3  C   UNL     1       2.160   7.987  18.886  0.00  0.00    +0.000 A 
ATOM      4  N   UNL     1       1.774   7.060  19.791  0.00  0.00    +0.000 NA
ATOM      5  C   UNL     1       2.366   5.852  19.802  0.00  0.00    +0.000 A 
ATOM      6  C   UNL     1       1.925   4.922  20.736  0.00  0.00    +0.000 A 
ATOM      7  C   UNL     1       2.479   3.643  20.834  0.00  0.00    +0.000 A 
ATOM      8  C   UNL     1       3.510   3.280  19.984  0.00  0.00    +0.000 A 
ATOM      9  C   UNL     1       3.979   4.199  19.048  0.00  0.00    +0.000 A 
ATOM     10  C   UNL     1       3.415   5.499  18.930  0.00  0.00    +0.000 A 
ENDROOT
BRANCH   1  16
ATOM     11  C   UNL     1       7.048   3.487  12.072  0.00  0.00    +0.000 C 
ATOM     12  C   UNL     1       6.549   4.180  13.268  0.00  0.00    +0.000 A 
ATOM     13  C   UNL     1       5.406   4.117  14.024  0.00  0.00    +0.000 A 
ATOM     14  C   UNL     1       5.603   5.082  15.043  0.00  0.00    +0.000 A 
ATOM     15  N   UNL     1       4.696   5.370  16.043  0.00  0.00    +0.000 N 
ATOM     16  C   UNL     1       4.942   6.296  17.046  0.00  0.00    +0.000 C 
ATOM     17  O   UNL     1       5.978   6.931  17.207  0.00  0.00    +0.000 OA
ATOM     18  N   UNL     1       6.795   5.674  14.899  0.00  0.00    +0.000 NA
ATOM     19  O   UNL     1       7.380   5.114  13.794  0.00  0.00    +0.000 OA
ATOM     20  H   UNL     1       3.818   4.878  15.990  0.00  0.00    +0.000 HD
ENDBRANCH   1  16
BRANCH   3  21
ATOM     21  C   UNL     1       1.517   9.312  18.951  0.00  0.00    +0.000 A 
ATOM     22  C   UNL     1       2.010  10.409  18.220  0.00  0.00    +0.000 A 
ATOM     23  C   UNL     1       1.494  11.693  18.400  0.00  0.00    +0.000 A 
ATOM     24  C   UNL     1       0.437  11.911  19.280  0.00  0.00    +0.000 A 
ATOM     25  C   UNL     1      -0.114  10.827  19.958  0.00  0.00    +0.000 A 
ATOM     26  C   UNL     1       0.430   9.545  19.805  0.00  0.00    +0.000 A 
BRANCH  24  27
ATOM     27  O   UNL     1       0.090  13.221  19.451  0.00  0.00    +0.000 OA
BRANCH  27  28
ATOM     28  C   UNL     1       1.141  14.182  19.594  0.00  0.00    +0.000 C 
ATOM     29  C   UNL     1       0.755  15.521  18.968  0.00  0.00    +0.000 C 
ATOM     30  C   UNL     1       1.331  14.386  21.099  0.00  0.00    +0.000 C 
ENDBRANCH  27  28
ENDBRANCH  24  27
ENDBRANCH   3  21
TORSDOF 4
ENDMDL
MODEL 9
REMARK VINA RESULT:      -8.0      3.371     10.890
REMARK  Name = 
REMARK  7 active torsions:
REMARK  status: ('A' for Active; 'I' for Inactive)
REMARK    1  A    between atoms: C_1  and  C_2
REMARK    2  A    between atoms: C_6  and  C_8
REMARK    3  A    between atoms: C_10  and  C_11
REMARK    4  A    between atoms: C_14  and  O_15
REMARK    5  A    between atoms: O_15  and  C_16
REMARK    6  A    between atoms: C_16  and  C_17
REMARK    7  A    between atoms: C_16  and  C_18
REMARK                            x       y       z     vdW  Elec       q    Type
REMARK                         _______ _______ _______ _____ _____    ______ ____
ROOT
ATOM      1  C   UNL     1      -0.469  11.685  21.106  0.00  0.00    +0.000 A 
ATOM      2  C   UNL     1      -0.022  10.417  20.742  0.00  0.00    +0.000 A 
ATOM      3  C   UNL     1       0.915  10.289  19.735  0.00  0.00    +0.000 A 
ATOM      4  N   UNL     1       1.398  11.370  19.082  0.00  0.00    +0.000 NA
ATOM      5  C   UNL     1       0.942  12.596  19.395  0.00  0.00    +0.000 A 
ATOM      6  C   UNL     1       1.450  13.678  18.686  0.00  0.00    +0.000 A 
ATOM      7  C   UNL     1       1.047  14.992  18.940  0.00  0.00    +0.000 A 
ATOM      8  C   UNL     1       0.116  15.240  19.934  0.00  0.00    +0.000 A 
ATOM      9  C   UNL     1      -0.399  14.173  20.668  0.00  0.00    +0.000 A 
ATOM     10  C   UNL     1      -0.006  12.831  20.412  0.00  0.00    +0.000 A 
ENDROOT
BRANCH   1  16
ATOM     11  C   UNL     1      -7.013  13.310  24.158  0.00  0.00    +0.000 C 
ATOM     12  C   UNL     1      -5.671  12.923  23.703  0.00  0.00    +0.000 A 
ATOM     13  C   UNL     1      -4.972  13.031  22.528  0.00  0.00    +0.000 A 
ATOM     14  C   UNL     1      -3.715  12.438  22.808  0.00  0.00    +0.000 A 
ATOM     15  N   UNL     1      -2.680  12.319  21.903  0.00  0.00    +0.000 N 
ATOM     16  C   UNL     1      -1.451  11.765  22.226  0.00  0.00    +0.000 C 
ATOM     17  O   UNL     1      -1.106  11.362  23.332  0.00  0.00    +0.000 OA
ATOM     18  N   UNL     1      -3.675  12.011  24.076  0.00  0.00    +0.000 NA
ATOM     19  O   UNL     1      -4.892  12.311  24.629  0.00  0.00    +0.000 OA
ATOM     20  H   UNL     1      -2.878  12.641  20.968  0.00  0.00    +0.000 HD
ENDBRANCH   1  16
BRANCH   3  21
ATOM     21  C   UNL     1       1.487   8.975  19.392  0.00  0.00    +0.000 A 
ATOM     22  C   UNL     1       1.609   7.950  20.348  0.00  0.00    +0.000 A 
ATOM     23  C   UNL     1       2.287   6.764  20.061  0.00  0.00    +0.000 A 
ATOM     24  C   UNL     1       2.822   6.548  18.793  0.00  0.00    +0.000 A 
ATOM     25  C   UNL     1       2.649   7.519  17.811  0.00  0.00    +0.000 A 
ATOM     26  C   UNL     1       2.002   8.723  18.112  0.00  0.00    +0.000 A 
BRANCH  24  27
ATOM     27  O   UNL     1       3.552   5.401  18.665  0.00  0.00    +0.000 OA
BRANCH  27  28
ATOM     28  C   UNL     1       3.411   4.644  17.457  0.00  0.00    +0.000 C 
ATOM     29  C   UNL     1       4.744   4.522  16.722  0.00  0.00    +0.000 C 
ATOM     30  C   UNL     1       2.958   3.245  17.880  0.00  0.00    +0.000 C 
ENDBRANCH  27  28
ENDBRANCH  24  27
ENDBRANCH   3  21
TORSDOF 4
ENDMDL
