MODEL 1
REMARK VINA RESULT:      -7.7      0.000      0.000
REMARK  Name = 
REMARK  7 active torsions:
REMARK  status: ('A' for Active; 'I' for Inactive)
REMARK    1  A    between atoms: C_1  and  C_2
REMARK    2  A    between atoms: C_5  and  S_6
REMARK    3  A    between atoms: S_6  and  C_7
REMARK    4  A    between atoms: C_7  and  C_8
REMARK    5  A    between atoms: N_10  and  C_11
REMARK    6  A    between atoms: C_11  and  C_12
REMARK    7  A    between atoms: N_18  and  C_19
REMARK                            x       y       z     vdW  Elec       q    Type
REMARK                         _______ _______ _______ _____ _____    ______ ____
ROOT
ATOM      1  S   UNL     1       3.133   7.034  18.504  0.00  0.00    +0.000 S 
ENDROOT
BRANCH   1   6
ATOM      2  C   UNL     1       5.964   3.894  15.300  0.00  0.00    +0.000 C 
ATOM      3  C   UNL     1       5.363   5.060  15.997  0.00  0.00    +0.000 A 
ATOM      4  N   UNL     1       5.599   6.309  15.646  0.00  0.00    +0.000 NA
ATOM      5  N   UNL     1       4.821   7.129  16.408  0.00  0.00    +0.000 NA
ATOM      6  C   UNL     1       4.117   6.378  17.223  0.00  0.00    +0.000 A 
ATOM      7  N   UNL     1       4.401   5.029  17.011  0.00  0.00    +0.000 N 
BRANCH   7   8
ATOM      8  C   UNL     1       3.875   3.882  17.687  0.00  0.00    +0.000 A 
ATOM      9  C   UNL     1       2.705   3.258  17.236  0.00  0.00    +0.000 A 
ATOM     10  C   UNL     1       2.128   2.213  17.964  0.00  0.00    +0.000 A 
ATOM     11  C   UNL     1       2.732   1.756  19.131  0.00  0.00    +0.000 A 
ATOM     12  C   UNL     1       3.925   2.328  19.559  0.00  0.00    +0.000 A 
ATOM     13  C   UNL     1       4.494   3.387  18.844  0.00  0.00    +0.000 A 
ENDBRANCH   7   8
ENDBRANCH   1   6
BRANCH   1  14
ATOM     14  C   UNL     1       2.472   8.535  17.727  0.00  0.00    +0.000 C 
BRANCH  14  15
ATOM     15  C   UNL     1       1.464   9.261  18.622  0.00  0.00    +0.000 C 
ATOM     16  O   UNL     1       1.256   9.002  19.802  0.00  0.00    +0.000 OA
ATOM     17  N   UNL     1       0.797  10.284  17.962  0.00  0.00    +0.000 N 
ATOM     18  H   UNL     1       1.105  10.565  17.041  0.00  0.00    +0.000 HD
BRANCH  17  19
ATOM     19  C   UNL     1      -0.079  11.189  18.676  0.00  0.00    +0.000 C 
BRANCH  19  20
ATOM     20  C   UNL     1      -1.521  11.008  18.270  0.00  0.00    +0.000 A 
ATOM     21  C   UNL     1      -2.523  11.801  18.840  0.00  0.00    +0.000 A 
ATOM     22  C   UNL     1      -3.860  11.646  18.461  0.00  0.00    +0.000 A 
ATOM     23  C   UNL     1      -4.209  10.687  17.513  0.00  0.00    +0.000 A 
ATOM     24  C   UNL     1      -3.222   9.882  16.946  0.00  0.00    +0.000 A 
ATOM     25  C   UNL     1      -1.886  10.038  17.322  0.00  0.00    +0.000 A 
ENDBRANCH  19  20
ENDBRANCH  17  19
ENDBRANCH  14  15
ENDBRANCH   1  14
TORSDOF 6
ENDMDL
MODEL 2
REMARK VINA RESULT:      -7.6      3.843      8.530
REMARK  Name = 
REMARK  7 active torsions:
REMARK  status: ('A' for Active; 'I' for Inactive)
REMARK    1  A    between atoms: C_1  and  C_2
REMARK    2  A    between atoms: C_5  and  S_6
REMARK    3  A    between atoms: S_6  and  C_7
REMARK    4  A    between atoms: C_7  and  C_8
REMARK    5  A    between atoms: N_10  and  C_11
REMARK    6  A    between atoms: C_11  and  C_12
REMARK    7  A    between atoms: N_18  and  C_19
REMARK                            x       y       z     vdW  Elec       q    Type
REMARK                         _______ _______ _______ _____ _____    ______ ____
ROOT
ATOM      1  S   UNL     1       5.927   5.369  18.837  0.00  0.00    +0.000 S 
ENDROOT
BRANCH   1   6
ATOM      2  C   UNL     1       1.224   3.401  20.303  0.00  0.00    +0.000 C 
ATOM      3  C   UNL     1       2.663   3.582  19.980  0.00  0.00    +0.000 A 
ATOM      4  N   UNL     1       3.539   2.597  20.015  0.00  0.00    +0.000 NA
ATOM      5  N   UNL     1       4.738   3.065  19.567  0.00  0.00    +0.000 NA
ATOM      6  C   UNL     1       4.590   4.335  19.265  0.00  0.00    +0.000 A 
ATOM      7  N   UNL     1       3.275   4.740  19.492  0.00  0.00    +0.000 N 
BRANCH   7   8
ATOM      8  C   UNL     1       2.690   6.034  19.314  0.00  0.00    +0.000 A 
ATOM      9  C   UNL     1       2.657   6.639  18.051  0.00  0.00    +0.000 A 
ATOM     10  C   UNL     1       2.193   7.950  17.900  0.00  0.00    +0.000 A 
ATOM     11  C   UNL     1       1.723   8.658  19.001  0.00  0.00    +0.000 A 
ATOM     12  C   UNL     1       1.695   8.048  20.251  0.00  0.00    +0.000 A 
ATOM     13  C   UNL     1       2.178   6.745  20.410  0.00  0.00    +0.000 A 
ENDBRANCH   7   8
ENDBRANCH   1   6
BRANCH   1  14
ATOM     14  C   UNL     1       6.791   4.359  17.601  0.00  0.00    +0.000 C 
BRANCH  14  15
ATOM     15  C   UNL     1       6.995   5.102  16.278  0.00  0.00    +0.000 C 
ATOM     16  O   UNL     1       7.553   6.188  16.160  0.00  0.00    +0.000 OA
ATOM     17  N   UNL     1       6.492   4.408  15.187  0.00  0.00    +0.000 N 
ATOM     18  H   UNL     1       6.180   3.454  15.306  0.00  0.00    +0.000 HD
BRANCH  17  19
ATOM     19  C   UNL     1       6.726   4.868  13.834  0.00  0.00    +0.000 C 
BRANCH  19  20
ATOM     20  C   UNL     1       6.361   3.817  12.815  0.00  0.00    +0.000 A 
ATOM     21  C   UNL     1       5.020   3.573  12.496  0.00  0.00    +0.000 A 
ATOM     22  C   UNL     1       4.676   2.607  11.545  0.00  0.00    +0.000 A 
ATOM     23  C   UNL     1       5.671   1.869  10.910  0.00  0.00    +0.000 A 
ATOM     24  C   UNL     1       7.010   2.093  11.227  0.00  0.00    +0.000 A 
ATOM     25  C   UNL     1       7.355   3.059  12.175  0.00  0.00    +0.000 A 
ENDBRANCH  19  20
ENDBRANCH  17  19
ENDBRANCH  14  15
ENDBRANCH   1  14
TORSDOF 6
ENDMDL
MODEL 3
REMARK VINA RESULT:      -7.6      1.688      3.186
REMARK  Name = 
REMARK  7 active torsions:
REMARK  status: ('A' for Active; 'I' for Inactive)
REMARK    1  A    between atoms: C_1  and  C_2
REMARK    2  A    between atoms: C_5  and  S_6
REMARK    3  A    between atoms: S_6  and  C_7
REMARK    4  A    between atoms: C_7  and  C_8
REMARK    5  A    between atoms: N_10  and  C_11
REMARK    6  A    between atoms: C_11  and  C_12
REMARK    7  A    between atoms: N_18  and  C_19
REMARK                            x       y       z     vdW  Elec       q    Type
REMARK                         _______ _______ _______ _____ _____    ______ ____
ROOT
ATOM      1  S   UNL     1       3.166   7.128  18.226  0.00  0.00    +0.000 S 
ENDROOT
BRANCH   1   6
ATOM      2  C   UNL     1       4.257   2.216  19.903  0.00  0.00    +0.000 C 
ATOM      3  C   UNL     1       3.672   3.568  19.717  0.00  0.00    +0.000 A 
ATOM      4  N   UNL     1       2.726   4.058  20.495  0.00  0.00    +0.000 NA
ATOM      5  N   UNL     1       2.485   5.348  20.129  0.00  0.00    +0.000 NA
ATOM      6  C   UNL     1       3.282   5.639  19.126  0.00  0.00    +0.000 A 
ATOM      7  N   UNL     1       4.088   4.547  18.809  0.00  0.00    +0.000 N 
BRANCH   7   8
ATOM      8  C   UNL     1       5.076   4.426  17.781  0.00  0.00    +0.000 A 
ATOM      9  C   UNL     1       6.429   4.664  18.056  0.00  0.00    +0.000 A 
ATOM     10  C   UNL     1       7.377   4.662  17.026  0.00  0.00    +0.000 A 
ATOM     11  C   UNL     1       6.990   4.386  15.719  0.00  0.00    +0.000 A 
ATOM     12  C   UNL     1       5.659   4.091  15.442  0.00  0.00    +0.000 A 
ATOM     13  C   UNL     1       4.706   4.112  16.465  0.00  0.00    +0.000 A 
ENDBRANCH   7   8
ENDBRANCH   1   6
BRANCH   1  14
ATOM     14  C   UNL     1       1.968   8.064  19.218  0.00  0.00    +0.000 C 
BRANCH  14  15
ATOM     15  C   UNL     1       1.570   9.387  18.559  0.00  0.00    +0.000 C 
ATOM     16  O   UNL     1       2.004   9.798  17.488  0.00  0.00    +0.000 OA
ATOM     17  N   UNL     1       0.631  10.095  19.296  0.00  0.00    +0.000 N 
ATOM     18  H   UNL     1       0.187   9.654  20.089  0.00  0.00    +0.000 HD
BRANCH  17  19
ATOM     19  C   UNL     1       0.011  11.292  18.767  0.00  0.00    +0.000 C 
BRANCH  19  20
ATOM     20  C   UNL     1      -1.417  11.045  18.351  0.00  0.00    +0.000 A 
ATOM     21  C   UNL     1      -2.456  11.816  18.886  0.00  0.00    +0.000 A 
ATOM     22  C   UNL     1      -3.781  11.599  18.498  0.00  0.00    +0.000 A 
ATOM     23  C   UNL     1      -4.082  10.600  17.575  0.00  0.00    +0.000 A 
ATOM     24  C   UNL     1      -3.059   9.817  17.043  0.00  0.00    +0.000 A 
ATOM     25  C   UNL     1      -1.734  10.035  17.428  0.00  0.00    +0.000 A 
ENDBRANCH  19  20
ENDBRANCH  17  19
ENDBRANCH  14  15
ENDBRANCH   1  14
TORSDOF 6
ENDMDL
MODEL 4
REMARK VINA RESULT:      -7.5      3.771      8.320
REMARK  Name = 
REMARK  7 active torsions:
REMARK  status: ('A' for Active; 'I' for Inactive)
REMARK    1  A    between atoms: C_1  and  C_2
REMARK    2  A    between atoms: C_5  and  S_6
REMARK    3  A    between atoms: S_6  and  C_7
REMARK    4  A    between atoms: C_7  and  C_8
REMARK    5  A    between atoms: N_10  and  C_11
REMARK    6  A    between atoms: C_11  and  C_12
REMARK    7  A    between atoms: N_18  and  C_19
REMARK                            x       y       z     vdW  Elec       q    Type
REMARK                         _______ _______ _______ _____ _____    ______ ____
ROOT
ATOM      1  S   UNL     1       5.845   5.277  19.018  0.00  0.00    +0.000 S 
ENDROOT
BRANCH   1   6
ATOM      2  C   UNL     1       0.878   3.634  19.890  0.00  0.00    +0.000 C 
ATOM      3  C   UNL     1       2.350   3.707  19.703  0.00  0.00    +0.000 A 
ATOM      4  N   UNL     1       3.130   2.645  19.705  0.00  0.00    +0.000 NA
ATOM      5  N   UNL     1       4.401   3.038  19.405  0.00  0.00    +0.000 NA
ATOM      6  C   UNL     1       4.391   4.339  19.227  0.00  0.00    +0.000 A 
ATOM      7  N   UNL     1       3.101   4.844  19.390  0.00  0.00    +0.000 N 
BRANCH   7   8
ATOM      8  C   UNL     1       2.648   6.199  19.301  0.00  0.00    +0.000 A 
ATOM      9  C   UNL     1       2.186   6.875  20.438  0.00  0.00    +0.000 A 
ATOM     10  C   UNL     1       1.634   8.156  20.329  0.00  0.00    +0.000 A 
ATOM     11  C   UNL     1       1.571   8.789  19.093  0.00  0.00    +0.000 A 
ATOM     12  C   UNL     1       2.081   8.152  17.966  0.00  0.00    +0.000 A 
ATOM     13  C   UNL     1       2.614   6.863  18.066  0.00  0.00    +0.000 A 
ENDBRANCH   7   8
ENDBRANCH   1   6
BRANCH   1  14
ATOM     14  C   UNL     1       5.681   5.828  17.296  0.00  0.00    +0.000 C 
BRANCH  14  15
ATOM     15  C   UNL     1       6.774   5.253  16.391  0.00  0.00    +0.000 C 
ATOM     16  O   UNL     1       7.732   4.591  16.779  0.00  0.00    +0.000 OA
ATOM     17  N   UNL     1       6.569   5.540  15.049  0.00  0.00    +0.000 N 
ATOM     18  H   UNL     1       5.694   5.951  14.758  0.00  0.00    +0.000 HD
BRANCH  17  19
ATOM     19  C   UNL     1       7.404   4.953  14.022  0.00  0.00    +0.000 C 
BRANCH  19  20
ATOM     20  C   UNL     1       6.608   4.078  13.086  0.00  0.00    +0.000 A 
ATOM     21  C   UNL     1       5.210   4.052  13.156  0.00  0.00    +0.000 A 
ATOM     22  C   UNL     1       4.465   3.252  12.285  0.00  0.00    +0.000 A 
ATOM     23  C   UNL     1       5.113   2.461  11.340  0.00  0.00    +0.000 A 
ATOM     24  C   UNL     1       6.505   2.467  11.267  0.00  0.00    +0.000 A 
ATOM     25  C   UNL     1       7.250   3.269  12.135  0.00  0.00    +0.000 A 
ENDBRANCH  19  20
ENDBRANCH  17  19
ENDBRANCH  14  15
ENDBRANCH   1  14
TORSDOF 6
ENDMDL
MODEL 5
REMARK VINA RESULT:      -7.5      3.854      8.438
REMARK  Name = 
REMARK  7 active torsions:
REMARK  status: ('A' for Active; 'I' for Inactive)
REMARK    1  A    between atoms: C_1  and  C_2
REMARK    2  A    between atoms: C_5  and  S_6
REMARK    3  A    between atoms: S_6  and  C_7
REMARK    4  A    between atoms: C_7  and  C_8
REMARK    5  A    between atoms: N_10  and  C_11
REMARK    6  A    between atoms: C_11  and  C_12
REMARK    7  A    between atoms: N_18  and  C_19
REMARK                            x       y       z     vdW  Elec       q    Type
REMARK                         _______ _______ _______ _____ _____    ______ ____
ROOT
ATOM      1  S   UNL     1       5.840   4.895  18.795  0.00  0.00    +0.000 S 
ENDROOT
BRANCH   1   6
ATOM      2  C   UNL     1       0.818   3.392  19.610  0.00  0.00    +0.000 C 
ATOM      3  C   UNL     1       2.291   3.421  19.414  0.00  0.00    +0.000 A 
ATOM      4  N   UNL     1       3.030   2.331  19.342  0.00  0.00    +0.000 NA
ATOM      5  N   UNL     1       4.312   2.692  19.055  0.00  0.00    +0.000 NA
ATOM      6  C   UNL     1       4.352   4.002  18.959  0.00  0.00    +0.000 A 
ATOM      7  N   UNL     1       3.084   4.545  19.166  0.00  0.00    +0.000 N 
BRANCH   7   8
ATOM      8  C   UNL     1       2.684   5.919  19.167  0.00  0.00    +0.000 A 
ATOM      9  C   UNL     1       2.258   6.540  20.349  0.00  0.00    +0.000 A 
ATOM     10  C   UNL     1       1.756   7.846  20.327  0.00  0.00    +0.000 A 
ATOM     11  C   UNL     1       1.707   8.557  19.133  0.00  0.00    +0.000 A 
ATOM     12  C   UNL     1       2.182   7.973  17.962  0.00  0.00    +0.000 A 
ATOM     13  C   UNL     1       2.665   6.661  17.977  0.00  0.00    +0.000 A 
ENDBRANCH   7   8
ENDBRANCH   1   6
BRANCH   1  14
ATOM     14  C   UNL     1       5.671   5.585  17.125  0.00  0.00    +0.000 C 
BRANCH  14  15
ATOM     15  C   UNL     1       6.777   5.106  16.180  0.00  0.00    +0.000 C 
ATOM     16  O   UNL     1       7.807   4.540  16.532  0.00  0.00    +0.000 OA
ATOM     17  N   UNL     1       6.493   5.361  14.846  0.00  0.00    +0.000 N 
ATOM     18  H   UNL     1       5.572   5.686  14.588  0.00  0.00    +0.000 HD
BRANCH  17  19
ATOM     19  C   UNL     1       7.338   4.845  13.789  0.00  0.00    +0.000 C 
BRANCH  19  20
ATOM     20  C   UNL     1       6.580   3.923  12.867  0.00  0.00    +0.000 A 
ATOM     21  C   UNL     1       7.264   3.004  12.063  0.00  0.00    +0.000 A 
ATOM     22  C   UNL     1       6.567   2.139  11.213  0.00  0.00    +0.000 A 
ATOM     23  C   UNL     1       5.177   2.192  11.153  0.00  0.00    +0.000 A 
ATOM     24  C   UNL     1       4.483   3.111  11.939  0.00  0.00    +0.000 A 
ATOM     25  C   UNL     1       5.178   3.973  12.791  0.00  0.00    +0.000 A 
ENDBRANCH  19  20
ENDBRANCH  17  19
ENDBRANCH  14  15
ENDBRANCH   1  14
TORSDOF 6
ENDMDL
MODEL 6
REMARK VINA RESULT:      -7.4      0.316      1.426
REMARK  Name = 
REMARK  7 active torsions:
REMARK  status: ('A' for Active; 'I' for Inactive)
REMARK    1  A    between atoms: C_1  and  C_2
REMARK    2  A    between atoms: C_5  and  S_6
REMARK    3  A    between atoms: S_6  and  C_7
REMARK    4  A    between atoms: C_7  and  C_8
REMARK    5  A    between atoms: N_10  and  C_11
REMARK    6  A    between atoms: C_11  and  C_12
REMARK    7  A    between atoms: N_18  and  C_19
REMARK                            x       y       z     vdW  Elec       q    Type
REMARK                         _______ _______ _______ _____ _____    ______ ____
ROOT
ATOM      1  S   UNL     1       3.690   7.218  18.318  0.00  0.00    +0.000 S 
ENDROOT
BRANCH   1   6
ATOM      2  C   UNL     1       5.882   3.681  15.027  0.00  0.00    +0.000 C 
ATOM      3  C   UNL     1       5.474   4.929  15.723  0.00  0.00    +0.000 A 
ATOM      4  N   UNL     1       5.819   6.131  15.308  0.00  0.00    +0.000 NA
ATOM      5  N   UNL     1       5.203   7.058  16.095  0.00  0.00    +0.000 NA
ATOM      6  C   UNL     1       4.487   6.416  16.990  0.00  0.00    +0.000 A 
ATOM      7  N   UNL     1       4.600   5.038  16.808  0.00  0.00    +0.000 N 
BRANCH   7   8
ATOM      8  C   UNL     1       4.005   3.980  17.566  0.00  0.00    +0.000 A 
ATOM      9  C   UNL     1       4.608   3.513  18.742  0.00  0.00    +0.000 A 
ATOM     10  C   UNL     1       4.090   2.402  19.416  0.00  0.00    +0.000 A 
ATOM     11  C   UNL     1       2.945   1.768  18.945  0.00  0.00    +0.000 A 
ATOM     12  C   UNL     1       2.303   2.257  17.812  0.00  0.00    +0.000 A 
ATOM     13  C   UNL     1       2.829   3.355  17.124  0.00  0.00    +0.000 A 
ENDBRANCH   7   8
ENDBRANCH   1   6
BRANCH   1  14
ATOM     14  C   UNL     1       2.437   8.204  17.451  0.00  0.00    +0.000 C 
BRANCH  14  15
ATOM     15  C   UNL     1       1.550   8.998  18.413  0.00  0.00    +0.000 C 
ATOM     16  O   UNL     1       1.459   8.792  19.619  0.00  0.00    +0.000 OA
ATOM     17  N   UNL     1       0.849  10.017  17.783  0.00  0.00    +0.000 N 
ATOM     18  H   UNL     1       1.068  10.252  16.825  0.00  0.00    +0.000 HD
BRANCH  17  19
ATOM     19  C   UNL     1       0.079  10.978  18.545  0.00  0.00    +0.000 C 
BRANCH  19  20
ATOM     20  C   UNL     1      -1.391  10.903  18.218  0.00  0.00    +0.000 A 
ATOM     21  C   UNL     1      -1.861   9.986  17.270  0.00  0.00    +0.000 A 
ATOM     22  C   UNL     1      -3.224   9.903  16.969  0.00  0.00    +0.000 A 
ATOM     23  C   UNL     1      -4.131  10.746  17.608  0.00  0.00    +0.000 A 
ATOM     24  C   UNL     1      -3.675  11.673  18.544  0.00  0.00    +0.000 A 
ATOM     25  C   UNL     1      -2.314  11.753  18.848  0.00  0.00    +0.000 A 
ENDBRANCH  19  20
ENDBRANCH  17  19
ENDBRANCH  14  15
ENDBRANCH   1  14
TORSDOF 6
ENDMDL
MODEL 7
REMARK VINA RESULT:      -7.4      5.083      7.680
REMARK  Name = 
REMARK  7 active torsions:
REMARK  status: ('A' for Active; 'I' for Inactive)
REMARK    1  A    between atoms: C_1  and  C_2
REMARK    2  A    between atoms: C_5  and  S_6
REMARK    3  A    between atoms: S_6  and  C_7
REMARK    4  A    between atoms: C_7  and  C_8
REMARK    5  A    between atoms: N_10  and  C_11
REMARK    6  A    between atoms: C_11  and  C_12
REMARK    7  A    between atoms: N_18  and  C_19
REMARK                            x       y       z     vdW  Elec       q    Type
REMARK                         _______ _______ _______ _____ _____    ______ ____
ROOT
ATOM      1  S   UNL     1       6.912   5.248  18.912  0.00  0.00    +0.000 S 
ENDROOT
BRANCH   1   6
ATOM      2  C   UNL     1       5.171   3.977  14.065  0.00  0.00    +0.000 C 
ATOM      3  C   UNL     1       6.014   4.280  15.250  0.00  0.00    +0.000 A 
ATOM      4  N   UNL     1       7.331   4.334  15.202  0.00  0.00    +0.000 NA
ATOM      5  N   UNL     1       7.795   4.734  16.420  0.00  0.00    +0.000 NA
ATOM      6  C   UNL     1       6.759   4.919  17.206  0.00  0.00    +0.000 A 
ATOM      7  N   UNL     1       5.573   4.658  16.521  0.00  0.00    +0.000 N 
BRANCH   7   8
ATOM      8  C   UNL     1       4.226   4.718  17.000  0.00  0.00    +0.000 A 
ATOM      9  C   UNL     1       3.675   5.928  17.442  0.00  0.00    +0.000 A 
ATOM     10  C   UNL     1       2.401   5.964  18.019  0.00  0.00    +0.000 A 
ATOM     11  C   UNL     1       1.650   4.799  18.129  0.00  0.00    +0.000 A 
ATOM     12  C   UNL     1       2.162   3.600  17.641  0.00  0.00    +0.000 A 
ATOM     13  C   UNL     1       3.442   3.557  17.082  0.00  0.00    +0.000 A 
ENDBRANCH   7   8
ENDBRANCH   1   6
BRANCH   1  14
ATOM     14  C   UNL     1       8.219   6.506  18.927  0.00  0.00    +0.000 C 
BRANCH  14  15
ATOM     15  C   UNL     1       7.845   7.748  18.112  0.00  0.00    +0.000 C 
ATOM     16  O   UNL     1       6.973   7.787  17.251  0.00  0.00    +0.000 OA
ATOM     17  N   UNL     1       8.593   8.865  18.459  0.00  0.00    +0.000 N 
ATOM     18  H   UNL     1       9.189   8.830  19.274  0.00  0.00    +0.000 HD
BRANCH  17  19
ATOM     19  C   UNL     1       8.283  10.171  17.916  0.00  0.00    +0.000 C 
BRANCH  19  20
ATOM     20  C   UNL     1       9.222  11.230  18.436  0.00  0.00    +0.000 A 
ATOM     21  C   UNL     1       9.177  12.532  17.924  0.00  0.00    +0.000 A 
ATOM     22  C   UNL     1      10.038  13.522  18.409  0.00  0.00    +0.000 A 
ATOM     23  C   UNL     1      10.961  13.215  19.406  0.00  0.00    +0.000 A 
ATOM     24  C   UNL     1      11.025  11.919  19.916  0.00  0.00    +0.000 A 
ATOM     25  C   UNL     1      10.163  10.930  19.434  0.00  0.00    +0.000 A 
ENDBRANCH  19  20
ENDBRANCH  17  19
ENDBRANCH  14  15
ENDBRANCH   1  14
TORSDOF 6
ENDMDL
MODEL 8
REMARK VINA RESULT:      -7.4      3.883      8.601
REMARK  Name = 
REMARK  7 active torsions:
REMARK  status: ('A' for Active; 'I' for Inactive)
REMARK    1  A    between atoms: C_1  and  C_2
REMARK    2  A    between atoms: C_5  and  S_6
REMARK    3  A    between atoms: S_6  and  C_7
REMARK    4  A    between atoms: C_7  and  C_8
REMARK    5  A    between atoms: N_10  and  C_11
REMARK    6  A    between atoms: C_11  and  C_12
REMARK    7  A    between atoms: N_18  and  C_19
REMARK                            x       y       z     vdW  Elec       q    Type
REMARK                         _______ _______ _______ _____ _____    ______ ____
ROOT
ATOM      1  S   UNL     1       5.820   5.237  18.601  0.00  0.00    +0.000 S 
ENDROOT
BRANCH   1   6
ATOM      2  C   UNL     1       1.248   3.440  20.601  0.00  0.00    +0.000 C 
ATOM      3  C   UNL     1       2.651   3.574  20.131  0.00  0.00    +0.000 A 
ATOM      4  N   UNL     1       3.507   2.571  20.121  0.00  0.00    +0.000 NA
ATOM      5  N   UNL     1       4.665   2.993  19.539  0.00  0.00    +0.000 NA
ATOM      6  C   UNL     1       4.512   4.253  19.200  0.00  0.00    +0.000 A 
ATOM      7  N   UNL     1       3.234   4.697  19.538  0.00  0.00    +0.000 N 
BRANCH   7   8
ATOM      8  C   UNL     1       2.659   5.997  19.365  0.00  0.00    +0.000 A 
ATOM      9  C   UNL     1       2.588   6.585  18.095  0.00  0.00    +0.000 A 
ATOM     10  C   UNL     1       2.136   7.900  17.944  0.00  0.00    +0.000 A 
ATOM     11  C   UNL     1       1.715   8.628  19.052  0.00  0.00    +0.000 A 
ATOM     12  C   UNL     1       1.726   8.035  20.310  0.00  0.00    +0.000 A 
ATOM     13  C   UNL     1       2.197   6.728  20.469  0.00  0.00    +0.000 A 
ENDBRANCH   7   8
ENDBRANCH   1   6
BRANCH   1  14
ATOM     14  C   UNL     1       5.411   5.355  16.836  0.00  0.00    +0.000 C 
BRANCH  14  15
ATOM     15  C   UNL     1       6.587   4.967  15.936  0.00  0.00    +0.000 C 
ATOM     16  O   UNL     1       7.606   4.399  16.316  0.00  0.00    +0.000 OA
ATOM     17  N   UNL     1       6.384   5.309  14.607  0.00  0.00    +0.000 N 
ATOM     18  H   UNL     1       5.474   5.633  14.311  0.00  0.00    +0.000 HD
BRANCH  17  19
ATOM     19  C   UNL     1       7.308   4.887  13.575  0.00  0.00    +0.000 C 
BRANCH  19  20
ATOM     20  C   UNL     1       6.706   3.830  12.683  0.00  0.00    +0.000 A 
ATOM     21  C   UNL     1       7.529   2.979  11.936  0.00  0.00    +0.000 A 
ATOM     22  C   UNL     1       6.978   1.990  11.115  0.00  0.00    +0.000 A 
ATOM     23  C   UNL     1       5.595   1.850  11.026  0.00  0.00    +0.000 A 
ATOM     24  C   UNL     1       4.763   2.700  11.754  0.00  0.00    +0.000 A 
ATOM     25  C   UNL     1       5.313   3.685  12.577  0.00  0.00    +0.000 A 
ENDBRANCH  19  20
ENDBRANCH  17  19
ENDBRANCH  14  15
ENDBRANCH   1  14
TORSDOF 6
ENDMDL
MODEL 9
REMARK VINA RESULT:      -7.4      2.645      4.198
REMARK  Name = 
REMARK  7 active torsions:
REMARK  status: ('A' for Active; 'I' for Inactive)
REMARK    1  A    between atoms: C_1  and  C_2
REMARK    2  A    between atoms: C_5  and  S_6
REMARK    3  A    between atoms: S_6  and  C_7
REMARK    4  A    between atoms: C_7  and  C_8
REMARK    5  A    between atoms: N_10  and  C_11
REMARK    6  A    between atoms: C_11  and  C_12
REMARK    7  A    between atoms: N_18  and  C_19
REMARK                            x       y       z     vdW  Elec       q    Type
REMARK                         _______ _______ _______ _____ _____    ______ ____
ROOT
ATOM      1  S   UNL     1       2.546   6.491  19.835  0.00  0.00    +0.000 S 
ENDROOT
BRANCH   1   6
ATOM      2  C   UNL     1       3.567   1.577  18.117  0.00  0.00    +0.000 C 
ATOM      3  C   UNL     1       2.935   2.787  18.705  0.00  0.00    +0.000 A 
ATOM      4  N   UNL     1       1.761   2.766  19.306  0.00  0.00    +0.000 NA
ATOM      5  N   UNL     1       1.515   4.003  19.823  0.00  0.00    +0.000 NA
ATOM      6  C   UNL     1       2.538   4.774  19.530  0.00  0.00    +0.000 A 
ATOM      7  N   UNL     1       3.501   4.059  18.821  0.00  0.00    +0.000 N 
BRANCH   7   8
ATOM      8  C   UNL     1       4.753   4.514  18.295  0.00  0.00    +0.000 A 
ATOM      9  C   UNL     1       5.803   4.869  19.152  0.00  0.00    +0.000 A 
ATOM     10  C   UNL     1       6.982   5.424  18.642  0.00  0.00    +0.000 A 
ATOM     11  C   UNL     1       7.139   5.597  17.271  0.00  0.00    +0.000 A 
ATOM     12  C   UNL     1       6.127   5.195  16.406  0.00  0.00    +0.000 A 
ATOM     13  C   UNL     1       4.939   4.658  16.912  0.00  0.00    +0.000 A 
ENDBRANCH   7   8
ENDBRANCH   1   6
BRANCH   1  14
ATOM     14  C   UNL     1       2.418   7.163  18.153  0.00  0.00    +0.000 C 
BRANCH  14  15
ATOM     15  C   UNL     1       2.001   8.636  18.142  0.00  0.00    +0.000 C 
ATOM     16  O   UNL     1       2.193   9.414  17.213  0.00  0.00    +0.000 OA
ATOM     17  N   UNL     1       1.351   9.021  19.306  0.00  0.00    +0.000 N 
ATOM     18  H   UNL     1       1.078   8.317  19.978  0.00  0.00    +0.000 HD
BRANCH  17  19
ATOM     19  C   UNL     1       0.741  10.329  19.426  0.00  0.00    +0.000 C 
BRANCH  19  20
ATOM     20  C   UNL     1       0.050  10.504  20.755  0.00  0.00    +0.000 A 
ATOM     21  C   UNL     1       0.124   9.503  21.731  0.00  0.00    +0.000 A 
ATOM     22  C   UNL     1      -0.506   9.663  22.969  0.00  0.00    +0.000 A 
ATOM     23  C   UNL     1      -1.227  10.824  23.239  0.00  0.00    +0.000 A 
ATOM     24  C   UNL     1      -1.320  11.823  22.271  0.00  0.00    +0.000 A 
ATOM     25  C   UNL     1      -0.687  11.666  21.035  0.00  0.00    +0.000 A 
ENDBRANCH  19  20
ENDBRANCH  17  19
ENDBRANCH  14  15
ENDBRANCH   1  14
TORSDOF 6
ENDMDL
