MODEL 1
REMARK VINA RESULT:      -7.3      0.000      0.000
REMARK  Name = 
REMARK  11 active torsions:
REMARK  status: ('A' for Active; 'I' for Inactive)
REMARK    1  A    between atoms: C_1  and  C_2
REMARK    2  A    between atoms: C_2  and  C_3
REMARK    3  A    between atoms: C_2  and  C_4
REMARK    4  A    between atoms: C_4  and  C_5
REMARK    5  A    between atoms: C_4  and  N_6
REMARK    6  A    between atoms: N_9  and  C_10
REMARK    7  A    between atoms: C_13  and  C_14
REMARK    8  A    between atoms: C_14  and  S_15
REMARK    9  A    between atoms: S_15  and  C_18
REMARK   10  A    between atoms: C_18  and  C_19
REMARK   11  A    between atoms: C_18  and  C_20
REMARK                            x       y       z     vdW  Elec       q    Type
REMARK                         _______ _______ _______ _____ _____    ______ ____
ROOT
ATOM      1  C   UNL     1       6.319   6.998  17.140  0.00  0.00    +0.000 A 
ATOM      2  C   UNL     1       6.908   5.783  16.774  0.00  0.00    +0.000 A 
ATOM      3  C   UNL     1       6.170   4.596  16.764  0.00  0.00    +0.000 A 
ATOM      4  C   UNL     1       4.820   4.587  17.132  0.00  0.00    +0.000 A 
ATOM      5  C   UNL     1       4.224   5.807  17.480  0.00  0.00    +0.000 A 
ATOM      6  C   UNL     1       4.972   6.996  17.504  0.00  0.00    +0.000 A 
ENDROOT
BRANCH   1  10
ATOM      7  N   UNL     1       8.532   9.797  17.906  0.00  0.00    +0.000 N 
ATOM      8  C   UNL     1       8.080   8.495  18.031  0.00  0.00    +0.000 C 
ATOM      9  O   UNL     1       8.605   7.703  18.804  0.00  0.00    +0.000 OA
ATOM     10  N   UNL     1       7.036   8.219  17.171  0.00  0.00    +0.000 N 
ATOM     11  H   UNL     1       7.850  10.485  17.630  0.00  0.00    +0.000 HD
ATOM     12  H   UNL     1       6.932   8.835  16.384  0.00  0.00    +0.000 HD
BRANCH   7  13
ATOM     13  C   UNL     1       9.642  10.241  18.759  0.00  0.00    +0.000 C 
ATOM     14  C   UNL     1       9.097  10.751  20.098  0.00  0.00    +0.000 C 
BRANCH  13  16
ATOM     15  C   UNL     1       9.754  12.569  17.732  0.00  0.00    +0.000 C 
ATOM     16  C   UNL     1      10.535  11.285  18.043  0.00  0.00    +0.000 C 
ATOM     17  C   UNL     1      11.755  11.653  18.898  0.00  0.00    +0.000 C 
ENDBRANCH  13  16
ENDBRANCH   7  13
ENDBRANCH   1  10
BRANCH   4  18
ATOM     18  C   UNL     1       4.061   3.279  17.128  0.00  0.00    +0.000 C 
BRANCH  18  19
ATOM     19  S   UNL     1       3.923   2.639  18.801  0.00  0.00    +0.000 S 
ATOM     20  O   UNL     1       3.723   1.199  18.741  0.00  0.00    +0.000 OA
ATOM     21  O   UNL     1       5.014   3.199  19.581  0.00  0.00    +0.000 OA
BRANCH  19  22
ATOM     22  C   UNL     1       2.405   3.360  19.461  0.00  0.00    +0.000 C 
ATOM     23  C   UNL     1       1.161   2.911  18.704  0.00  0.00    +0.000 C 
ATOM     24  C   UNL     1       2.276   2.992  20.940  0.00  0.00    +0.000 C 
ENDBRANCH  19  22
ENDBRANCH  18  19
ENDBRANCH   4  18
TORSDOF 6
ENDMDL
MODEL 2
REMARK VINA RESULT:      -7.3      0.396      1.325
REMARK  Name = 
REMARK  11 active torsions:
REMARK  status: ('A' for Active; 'I' for Inactive)
REMARK    1  A    between atoms: C_1  and  C_2
REMARK    2  A    between atoms: C_2  and  C_3
REMARK    3  A    between atoms: C_2  and  C_4
REMARK    4  A    between atoms: C_4  and  C_5
REMARK    5  A    between atoms: C_4  and  N_6
REMARK    6  A    between atoms: N_9  and  C_10
REMARK    7  A    between atoms: C_13  and  C_14
REMARK    8  A    between atoms: C_14  and  S_15
REMARK    9  A    between atoms: S_15  and  C_18
REMARK   10  A    between atoms: C_18  and  C_19
REMARK   11  A    between atoms: C_18  and  C_20
REMARK                            x       y       z     vdW  Elec       q    Type
REMARK                         _______ _______ _______ _____ _____    ______ ____
ROOT
ATOM      1  C   UNL     1       6.307   7.064  17.170  0.00  0.00    +0.000 A 
ATOM      2  C   UNL     1       4.945   7.027  17.485  0.00  0.00    +0.000 A 
ATOM      3  C   UNL     1       4.231   5.827  17.466  0.00  0.00    +0.000 A 
ATOM      4  C   UNL     1       4.857   4.625  17.118  0.00  0.00    +0.000 A 
ATOM      5  C   UNL     1       6.227   4.657  16.821  0.00  0.00    +0.000 A 
ATOM      6  C   UNL     1       6.939   5.868  16.827  0.00  0.00    +0.000 A 
ENDROOT
BRANCH   1  10
ATOM      7  N   UNL     1       8.599   9.819  17.869  0.00  0.00    +0.000 N 
ATOM      8  C   UNL     1       8.104   8.537  18.033  0.00  0.00    +0.000 C 
ATOM      9  O   UNL     1       8.594   7.756  18.840  0.00  0.00    +0.000 OA
ATOM     10  N   UNL     1       7.063   8.263  17.169  0.00  0.00    +0.000 N 
ATOM     11  H   UNL     1       7.942  10.518  17.559  0.00  0.00    +0.000 HD
ATOM     12  H   UNL     1       6.989   8.854  16.359  0.00  0.00    +0.000 HD
BRANCH   7  13
ATOM     13  C   UNL     1       9.710  10.258  18.720  0.00  0.00    +0.000 C 
ATOM     14  C   UNL     1       9.170  10.745  20.070  0.00  0.00    +0.000 C 
BRANCH  13  16
ATOM     15  C   UNL     1       9.804  12.606  17.737  0.00  0.00    +0.000 C 
ATOM     16  C   UNL     1      10.592  11.318  18.014  0.00  0.00    +0.000 C 
ATOM     17  C   UNL     1      11.821  11.673  18.861  0.00  0.00    +0.000 C 
ENDBRANCH  13  16
ENDBRANCH   7  13
ENDBRANCH   1  10
BRANCH   4  18
ATOM     18  C   UNL     1       4.045   3.349  17.090  0.00  0.00    +0.000 C 
BRANCH  18  19
ATOM     19  S   UNL     1       3.919   2.659  18.744  0.00  0.00    +0.000 S 
ATOM     20  O   UNL     1       3.796   1.212  18.645  0.00  0.00    +0.000 OA
ATOM     21  O   UNL     1       4.970   3.255  19.554  0.00  0.00    +0.000 OA
BRANCH  19  22
ATOM     22  C   UNL     1       2.357   3.283  19.401  0.00  0.00    +0.000 C 
ATOM     23  C   UNL     1       2.544   4.469  20.339  0.00  0.00    +0.000 C 
ATOM     24  C   UNL     1       1.445   3.676  18.239  0.00  0.00    +0.000 C 
ENDBRANCH  19  22
ENDBRANCH  18  19
ENDBRANCH   4  18
TORSDOF 6
ENDMDL
MODEL 3
REMARK VINA RESULT:      -7.1      0.761      1.079
REMARK  Name = 
REMARK  11 active torsions:
REMARK  status: ('A' for Active; 'I' for Inactive)
REMARK    1  A    between atoms: C_1  and  C_2
REMARK    2  A    between atoms: C_2  and  C_3
REMARK    3  A    between atoms: C_2  and  C_4
REMARK    4  A    between atoms: C_4  and  C_5
REMARK    5  A    between atoms: C_4  and  N_6
REMARK    6  A    between atoms: N_9  and  C_10
REMARK    7  A    between atoms: C_13  and  C_14
REMARK    8  A    between atoms: C_14  and  S_15
REMARK    9  A    between atoms: S_15  and  C_18
REMARK   10  A    between atoms: C_18  and  C_19
REMARK   11  A    between atoms: C_18  and  C_20
REMARK                            x       y       z     vdW  Elec       q    Type
REMARK                         _______ _______ _______ _____ _____    ______ ____
ROOT
ATOM      1  C   UNL     1       6.479   7.000  17.373  0.00  0.00    +0.000 A 
ATOM      2  C   UNL     1       7.089   5.798  17.744  0.00  0.00    +0.000 A 
ATOM      3  C   UNL     1       6.346   4.622  17.880  0.00  0.00    +0.000 A 
ATOM      4  C   UNL     1       4.965   4.616  17.659  0.00  0.00    +0.000 A 
ATOM      5  C   UNL     1       4.355   5.817  17.268  0.00  0.00    +0.000 A 
ATOM      6  C   UNL     1       5.102   7.001  17.147  0.00  0.00    +0.000 A 
ENDROOT
BRANCH   1  10
ATOM      7  N   UNL     1       8.664   9.899  17.763  0.00  0.00    +0.000 N 
ATOM      8  C   UNL     1       8.204   8.633  18.081  0.00  0.00    +0.000 C 
ATOM      9  O   UNL     1       8.694   7.980  18.994  0.00  0.00    +0.000 OA
ATOM     10  N   UNL     1       7.197   8.214  17.234  0.00  0.00    +0.000 N 
ATOM     11  H   UNL     1       7.995  10.529  17.349  0.00  0.00    +0.000 HD
ATOM     12  H   UNL     1       7.128   8.693  16.353  0.00  0.00    +0.000 HD
BRANCH   7  13
ATOM     13  C   UNL     1       9.736  10.482  18.578  0.00  0.00    +0.000 C 
ATOM     14  C   UNL     1       9.153  11.052  19.876  0.00  0.00    +0.000 C 
BRANCH  13  16
ATOM     15  C   UNL     1       9.782  12.844  17.627  0.00  0.00    +0.000 C 
ATOM     16  C   UNL     1      10.557  11.529  17.784  0.00  0.00    +0.000 C 
ATOM     17  C   UNL     1      11.892  11.832  18.477  0.00  0.00    +0.000 C 
ENDBRANCH  13  16
ENDBRANCH   7  13
ENDBRANCH   1  10
BRANCH   4  18
ATOM     18  C   UNL     1       4.193   3.328  17.836  0.00  0.00    +0.000 C 
BRANCH  18  19
ATOM     19  S   UNL     1       3.839   3.054  19.576  0.00  0.00    +0.000 S 
ATOM     20  O   UNL     1       4.776   2.071  20.099  0.00  0.00    +0.000 OA
ATOM     21  O   UNL     1       3.705   4.354  20.212  0.00  0.00    +0.000 OA
BRANCH  19  22
ATOM     22  C   UNL     1       2.199   2.299  19.614  0.00  0.00    +0.000 C 
ATOM     23  C   UNL     1       1.382   2.728  20.827  0.00  0.00    +0.000 C 
ATOM     24  C   UNL     1       1.452   2.657  18.329  0.00  0.00    +0.000 C 
ENDBRANCH  19  22
ENDBRANCH  18  19
ENDBRANCH   4  18
TORSDOF 6
ENDMDL
MODEL 4
REMARK VINA RESULT:      -6.8      1.309      1.557
REMARK  Name = 
REMARK  11 active torsions:
REMARK  status: ('A' for Active; 'I' for Inactive)
REMARK    1  A    between atoms: C_1  and  C_2
REMARK    2  A    between atoms: C_2  and  C_3
REMARK    3  A    between atoms: C_2  and  C_4
REMARK    4  A    between atoms: C_4  and  C_5
REMARK    5  A    between atoms: C_4  and  N_6
REMARK    6  A    between atoms: N_9  and  C_10
REMARK    7  A    between atoms: C_13  and  C_14
REMARK    8  A    between atoms: C_14  and  S_15
REMARK    9  A    between atoms: S_15  and  C_18
REMARK   10  A    between atoms: C_18  and  C_19
REMARK   11  A    between atoms: C_18  and  C_20
REMARK                            x       y       z     vdW  Elec       q    Type
REMARK                         _______ _______ _______ _____ _____    ______ ____
ROOT
ATOM      1  C   UNL     1       6.350   6.935  17.299  0.00  0.00    +0.000 A 
ATOM      2  C   UNL     1       6.433   6.079  18.402  0.00  0.00    +0.000 A 
ATOM      3  C   UNL     1       5.725   4.875  18.438  0.00  0.00    +0.000 A 
ATOM      4  C   UNL     1       4.901   4.495  17.373  0.00  0.00    +0.000 A 
ATOM      5  C   UNL     1       4.831   5.343  16.258  0.00  0.00    +0.000 A 
ATOM      6  C   UNL     1       5.533   6.560  16.232  0.00  0.00    +0.000 A 
ENDROOT
BRANCH   1  10
ATOM      7  N   UNL     1       8.531   9.816  17.817  0.00  0.00    +0.000 N 
ATOM      8  C   UNL     1       8.107   8.518  18.039  0.00  0.00    +0.000 C 
ATOM      9  O   UNL     1       8.669   7.786  18.845  0.00  0.00    +0.000 OA
ATOM     10  N   UNL     1       7.044   8.168  17.230  0.00  0.00    +0.000 N 
ATOM     11  H   UNL     1       7.827  10.473  17.517  0.00  0.00    +0.000 HD
ATOM     12  H   UNL     1       6.907   8.730  16.408  0.00  0.00    +0.000 HD
BRANCH   7  13
ATOM     13  C   UNL     1       9.655  10.334  18.606  0.00  0.00    +0.000 C 
ATOM     14  C   UNL     1       9.151  10.830  19.966  0.00  0.00    +0.000 C 
BRANCH  13  16
ATOM     15  C   UNL     1       9.637  12.713  17.696  0.00  0.00    +0.000 C 
ATOM     16  C   UNL     1      10.449  11.418  17.834  0.00  0.00    +0.000 C 
ATOM     17  C   UNL     1      11.772  11.745  18.538  0.00  0.00    +0.000 C 
ENDBRANCH  13  16
ENDBRANCH   7  13
ENDBRANCH   1  10
BRANCH   4  18
ATOM     18  C   UNL     1       4.135   3.194  17.458  0.00  0.00    +0.000 C 
BRANCH  18  19
ATOM     19  S   UNL     1       2.495   3.485  18.131  0.00  0.00    +0.000 S 
ATOM     20  O   UNL     1       2.082   4.840  17.798  0.00  0.00    +0.000 OA
ATOM     21  O   UNL     1       1.660   2.351  17.770  0.00  0.00    +0.000 OA
BRANCH  19  22
ATOM     22  C   UNL     1       2.698   3.415  19.924  0.00  0.00    +0.000 C 
ATOM     23  C   UNL     1       1.408   3.052  20.649  0.00  0.00    +0.000 C 
ATOM     24  C   UNL     1       3.791   2.402  20.266  0.00  0.00    +0.000 C 
ENDBRANCH  19  22
ENDBRANCH  18  19
ENDBRANCH   4  18
TORSDOF 6
ENDMDL
MODEL 5
REMARK VINA RESULT:      -6.8      1.366      1.630
REMARK  Name = 
REMARK  11 active torsions:
REMARK  status: ('A' for Active; 'I' for Inactive)
REMARK    1  A    between atoms: C_1  and  C_2
REMARK    2  A    between atoms: C_2  and  C_3
REMARK    3  A    between atoms: C_2  and  C_4
REMARK    4  A    between atoms: C_4  and  C_5
REMARK    5  A    between atoms: C_4  and  N_6
REMARK    6  A    between atoms: N_9  and  C_10
REMARK    7  A    between atoms: C_13  and  C_14
REMARK    8  A    between atoms: C_14  and  S_15
REMARK    9  A    between atoms: S_15  and  C_18
REMARK   10  A    between atoms: C_18  and  C_19
REMARK   11  A    between atoms: C_18  and  C_20
REMARK                            x       y       z     vdW  Elec       q    Type
REMARK                         _______ _______ _______ _____ _____    ______ ____
ROOT
ATOM      1  C   UNL     1       7.115   7.482  17.537  0.00  0.00    +0.000 A 
ATOM      2  C   UNL     1       7.712   6.458  18.279  0.00  0.00    +0.000 A 
ATOM      3  C   UNL     1       7.076   5.226  18.453  0.00  0.00    +0.000 A 
ATOM      4  C   UNL     1       5.815   4.985  17.898  0.00  0.00    +0.000 A 
ATOM      5  C   UNL     1       5.223   6.004  17.138  0.00  0.00    +0.000 A 
ATOM      6  C   UNL     1       5.859   7.247  16.977  0.00  0.00    +0.000 A 
ENDROOT
BRANCH   1  10
ATOM      7  N   UNL     1       8.905  10.647  17.864  0.00  0.00    +0.000 N 
ATOM      8  C   UNL     1       8.522   9.383  18.277  0.00  0.00    +0.000 C 
ATOM      9  O   UNL     1       8.907   8.909  19.339  0.00  0.00    +0.000 OA
ATOM     10  N   UNL     1       7.724   8.747  17.347  0.00  0.00    +0.000 N 
ATOM     11  H   UNL     1       8.260  11.138  17.263  0.00  0.00    +0.000 HD
ATOM     12  H   UNL     1       7.764   9.104  16.408  0.00  0.00    +0.000 HD
BRANCH   7  13
ATOM     13  C   UNL     1       9.757  11.449  18.749  0.00  0.00    +0.000 C 
ATOM     14  C   UNL     1       9.105  12.813  19.003  0.00  0.00    +0.000 C 
BRANCH  13  16
ATOM     15  C   UNL     1      11.338  12.767  17.250  0.00  0.00    +0.000 C 
ATOM     16  C   UNL     1      11.201  11.572  18.202  0.00  0.00    +0.000 C 
ATOM     17  C   UNL     1      12.215  11.740  19.341  0.00  0.00    +0.000 C 
ENDBRANCH  13  16
ENDBRANCH   7  13
ENDBRANCH   1  10
BRANCH   4  18
ATOM     18  C   UNL     1       5.150   3.646  18.125  0.00  0.00    +0.000 C 
BRANCH  18  19
ATOM     19  S   UNL     1       3.910   3.783  19.418  0.00  0.00    +0.000 S 
ATOM     20  O   UNL     1       4.104   2.703  20.375  0.00  0.00    +0.000 OA
ATOM     21  O   UNL     1       3.887   5.166  19.866  0.00  0.00    +0.000 OA
BRANCH  19  22
ATOM     22  C   UNL     1       2.330   3.489  18.595  0.00  0.00    +0.000 C 
ATOM     23  C   UNL     1       1.845   4.697  17.803  0.00  0.00    +0.000 C 
ATOM     24  C   UNL     1       2.465   2.278  17.671  0.00  0.00    +0.000 C 
ENDBRANCH  19  22
ENDBRANCH  18  19
ENDBRANCH   4  18
TORSDOF 6
ENDMDL
MODEL 6
REMARK VINA RESULT:      -6.8      1.700      2.181
REMARK  Name = 
REMARK  11 active torsions:
REMARK  status: ('A' for Active; 'I' for Inactive)
REMARK    1  A    between atoms: C_1  and  C_2
REMARK    2  A    between atoms: C_2  and  C_3
REMARK    3  A    between atoms: C_2  and  C_4
REMARK    4  A    between atoms: C_4  and  C_5
REMARK    5  A    between atoms: C_4  and  N_6
REMARK    6  A    between atoms: N_9  and  C_10
REMARK    7  A    between atoms: C_13  and  C_14
REMARK    8  A    between atoms: C_14  and  S_15
REMARK    9  A    between atoms: S_15  and  C_18
REMARK   10  A    between atoms: C_18  and  C_19
REMARK   11  A    between atoms: C_18  and  C_20
REMARK                            x       y       z     vdW  Elec       q    Type
REMARK                         _______ _______ _______ _____ _____    ______ ____
ROOT
ATOM      1  C   UNL     1       7.652   6.847  18.274  0.00  0.00    +0.000 A 
ATOM      2  C   UNL     1       7.560   5.509  18.672  0.00  0.00    +0.000 A 
ATOM      3  C   UNL     1       6.645   4.638  18.074  0.00  0.00    +0.000 A 
ATOM      4  C   UNL     1       5.783   5.084  17.066  0.00  0.00    +0.000 A 
ATOM      5  C   UNL     1       5.888   6.420  16.653  0.00  0.00    +0.000 A 
ATOM      6  C   UNL     1       6.799   7.297  17.266  0.00  0.00    +0.000 A 
ENDROOT
BRANCH   1  10
ATOM      7  N   UNL     1       9.632   9.754  19.252  0.00  0.00    +0.000 N 
ATOM      8  C   UNL     1       8.580   9.119  18.614  0.00  0.00    +0.000 C 
ATOM      9  O   UNL     1       7.762   9.741  17.948  0.00  0.00    +0.000 OA
ATOM     10  N   UNL     1       8.560   7.761  18.863  0.00  0.00    +0.000 N 
ATOM     11  H   UNL     1      10.467   9.207  19.394  0.00  0.00    +0.000 HD
ATOM     12  H   UNL     1       9.072   7.448  19.669  0.00  0.00    +0.000 HD
BRANCH   7  13
ATOM     13  C   UNL     1       9.786  11.203  19.081  0.00  0.00    +0.000 C 
ATOM     14  C   UNL     1      10.426  11.501  17.720  0.00  0.00    +0.000 C 
BRANCH  13  16
ATOM     15  C   UNL     1      12.070  11.910  19.960  0.00  0.00    +0.000 C 
ATOM     16  C   UNL     1      10.566  11.841  20.258  0.00  0.00    +0.000 C 
ATOM     17  C   UNL     1      10.063  13.261  20.553  0.00  0.00    +0.000 C 
ENDBRANCH  13  16
ENDBRANCH   7  13
ENDBRANCH   1  10
BRANCH   4  18
ATOM     18  C   UNL     1       4.793   4.117  16.458  0.00  0.00    +0.000 C 
BRANCH  18  19
ATOM     19  S   UNL     1       3.530   3.688  17.661  0.00  0.00    +0.000 S 
ATOM     20  O   UNL     1       2.253   3.550  16.977  0.00  0.00    +0.000 OA
ATOM     21  O   UNL     1       4.047   2.603  18.480  0.00  0.00    +0.000 OA
BRANCH  19  22
ATOM     22  C   UNL     1       3.400   5.125  18.747  0.00  0.00    +0.000 C 
ATOM     23  C   UNL     1       2.464   6.195  18.198  0.00  0.00    +0.000 C 
ATOM     24  C   UNL     1       2.921   4.670  20.126  0.00  0.00    +0.000 C 
ENDBRANCH  19  22
ENDBRANCH  18  19
ENDBRANCH   4  18
TORSDOF 6
ENDMDL
MODEL 7
REMARK VINA RESULT:      -6.7      0.804      1.266
REMARK  Name = 
REMARK  11 active torsions:
REMARK  status: ('A' for Active; 'I' for Inactive)
REMARK    1  A    between atoms: C_1  and  C_2
REMARK    2  A    between atoms: C_2  and  C_3
REMARK    3  A    between atoms: C_2  and  C_4
REMARK    4  A    between atoms: C_4  and  C_5
REMARK    5  A    between atoms: C_4  and  N_6
REMARK    6  A    between atoms: N_9  and  C_10
REMARK    7  A    between atoms: C_13  and  C_14
REMARK    8  A    between atoms: C_14  and  S_15
REMARK    9  A    between atoms: S_15  and  C_18
REMARK   10  A    between atoms: C_18  and  C_19
REMARK   11  A    between atoms: C_18  and  C_20
REMARK                            x       y       z     vdW  Elec       q    Type
REMARK                         _______ _______ _______ _____ _____    ______ ____
ROOT
ATOM      1  C   UNL     1       6.657   7.293  17.217  0.00  0.00    +0.000 A 
ATOM      2  C   UNL     1       7.258   6.060  16.945  0.00  0.00    +0.000 A 
ATOM      3  C   UNL     1       6.496   4.893  16.841  0.00  0.00    +0.000 A 
ATOM      4  C   UNL     1       5.109   4.923  17.019  0.00  0.00    +0.000 A 
ATOM      5  C   UNL     1       4.504   6.162  17.273  0.00  0.00    +0.000 A 
ATOM      6  C   UNL     1       5.274   7.331  17.391  0.00  0.00    +0.000 A 
ENDROOT
BRANCH   1  10
ATOM      7  N   UNL     1       8.820  10.042  18.263  0.00  0.00    +0.000 N 
ATOM      8  C   UNL     1       8.319   8.754  18.333  0.00  0.00    +0.000 C 
ATOM      9  O   UNL     1       8.710   7.957  19.177  0.00  0.00    +0.000 OA
ATOM     10  N   UNL     1       7.397   8.496  17.339  0.00  0.00    +0.000 N 
ATOM     11  H   UNL     1       8.202  10.745  17.889  0.00  0.00    +0.000 HD
ATOM     12  H   UNL     1       7.420   9.106  16.540  0.00  0.00    +0.000 HD
BRANCH   7  13
ATOM     13  C   UNL     1       9.812  10.466  19.257  0.00  0.00    +0.000 C 
ATOM     14  C   UNL     1       9.131  10.673  20.616  0.00  0.00    +0.000 C 
BRANCH  13  16
ATOM     15  C   UNL     1      11.863  11.929  19.631  0.00  0.00    +0.000 C 
ATOM     16  C   UNL     1      10.598  11.717  18.790  0.00  0.00    +0.000 C 
ATOM     17  C   UNL     1      11.009  11.597  17.316  0.00  0.00    +0.000 C 
ENDBRANCH  13  16
ENDBRANCH   7  13
ENDBRANCH   1  10
BRANCH   4  18
ATOM     18  C   UNL     1       4.322   3.635  16.919  0.00  0.00    +0.000 C 
BRANCH  18  19
ATOM     19  S   UNL     1       4.003   2.977  18.560  0.00  0.00    +0.000 S 
ATOM     20  O   UNL     1       3.791   1.541  18.460  0.00  0.00    +0.000 OA
ATOM     21  O   UNL     1       5.014   3.512  19.457  0.00  0.00    +0.000 OA
BRANCH  19  22
ATOM     22  C   UNL     1       2.433   3.712  19.070  0.00  0.00    +0.000 C 
ATOM     23  C   UNL     1       2.618   4.933  19.962  0.00  0.00    +0.000 C 
ATOM     24  C   UNL     1       1.630   4.092  17.825  0.00  0.00    +0.000 C 
ENDBRANCH  19  22
ENDBRANCH  18  19
ENDBRANCH   4  18
TORSDOF 6
ENDMDL
MODEL 8
REMARK VINA RESULT:      -6.7      0.829      1.095
REMARK  Name = 
REMARK  11 active torsions:
REMARK  status: ('A' for Active; 'I' for Inactive)
REMARK    1  A    between atoms: C_1  and  C_2
REMARK    2  A    between atoms: C_2  and  C_3
REMARK    3  A    between atoms: C_2  and  C_4
REMARK    4  A    between atoms: C_4  and  C_5
REMARK    5  A    between atoms: C_4  and  N_6
REMARK    6  A    between atoms: N_9  and  C_10
REMARK    7  A    between atoms: C_13  and  C_14
REMARK    8  A    between atoms: C_14  and  S_15
REMARK    9  A    between atoms: S_15  and  C_18
REMARK   10  A    between atoms: C_18  and  C_19
REMARK   11  A    between atoms: C_18  and  C_20
REMARK                            x       y       z     vdW  Elec       q    Type
REMARK                         _______ _______ _______ _____ _____    ______ ____
ROOT
ATOM      1  C   UNL     1       6.563   7.159  17.188  0.00  0.00    +0.000 A 
ATOM      2  C   UNL     1       7.265   5.962  17.361  0.00  0.00    +0.000 A 
ATOM      3  C   UNL     1       6.622   4.725  17.266  0.00  0.00    +0.000 A 
ATOM      4  C   UNL     1       5.249   4.649  17.005  0.00  0.00    +0.000 A 
ATOM      5  C   UNL     1       4.547   5.847  16.813  0.00  0.00    +0.000 A 
ATOM      6  C   UNL     1       5.194   7.090  16.924  0.00  0.00    +0.000 A 
ENDROOT
BRANCH   1  10
ATOM      7  N   UNL     1       8.540  10.085  18.110  0.00  0.00    +0.000 N 
ATOM      8  C   UNL     1       8.195   8.746  18.165  0.00  0.00    +0.000 C 
ATOM      9  O   UNL     1       8.782   7.959  18.899  0.00  0.00    +0.000 OA
ATOM     10  N   UNL     1       7.178   8.431  17.287  0.00  0.00    +0.000 N 
ATOM     11  H   UNL     1       7.805  10.729  17.866  0.00  0.00    +0.000 HD
ATOM     12  H   UNL     1       7.026   9.077  16.532  0.00  0.00    +0.000 HD
BRANCH   7  13
ATOM     13  C   UNL     1       9.609  10.572  18.991  0.00  0.00    +0.000 C 
ATOM     14  C   UNL     1       9.100  10.645  20.435  0.00  0.00    +0.000 C 
BRANCH  13  16
ATOM     15  C   UNL     1      11.501  11.714  17.724  0.00  0.00    +0.000 C 
ATOM     16  C   UNL     1      10.191  11.920  18.497  0.00  0.00    +0.000 C 
ATOM     17  C   UNL     1       9.199  12.655  17.585  0.00  0.00    +0.000 C 
ENDBRANCH  13  16
ENDBRANCH   7  13
ENDBRANCH   1  10
BRANCH   4  18
ATOM     18  C   UNL     1       4.585   3.292  16.930  0.00  0.00    +0.000 C 
BRANCH  18  19
ATOM     19  S   UNL     1       3.770   2.916  18.486  0.00  0.00    +0.000 S 
ATOM     20  O   UNL     1       3.707   1.471  18.648  0.00  0.00    +0.000 OA
ATOM     21  O   UNL     1       4.375   3.746  19.516  0.00  0.00    +0.000 OA
BRANCH  19  22
ATOM     22  C   UNL     1       2.074   3.505  18.290  0.00  0.00    +0.000 C 
ATOM     23  C   UNL     1       1.039   2.464  18.698  0.00  0.00    +0.000 C 
ATOM     24  C   UNL     1       1.887   4.778  19.115  0.00  0.00    +0.000 C 
ENDBRANCH  19  22
ENDBRANCH  18  19
ENDBRANCH   4  18
TORSDOF 6
ENDMDL
MODEL 9
REMARK VINA RESULT:      -6.7      1.648      2.252
REMARK  Name = 
REMARK  11 active torsions:
REMARK  status: ('A' for Active; 'I' for Inactive)
REMARK    1  A    between atoms: C_1  and  C_2
REMARK    2  A    between atoms: C_2  and  C_3
REMARK    3  A    between atoms: C_2  and  C_4
REMARK    4  A    between atoms: C_4  and  C_5
REMARK    5  A    between atoms: C_4  and  N_6
REMARK    6  A    between atoms: N_9  and  C_10
REMARK    7  A    between atoms: C_13  and  C_14
REMARK    8  A    between atoms: C_14  and  S_15
REMARK    9  A    between atoms: S_15  and  C_18
REMARK   10  A    between atoms: C_18  and  C_19
REMARK   11  A    between atoms: C_18  and  C_20
REMARK                            x       y       z     vdW  Elec       q    Type
REMARK                         _______ _______ _______ _____ _____    ______ ____
ROOT
ATOM      1  C   UNL     1       7.593   6.916  18.173  0.00  0.00    +0.000 A 
ATOM      2  C   UNL     1       6.745   7.175  17.091  0.00  0.00    +0.000 A 
ATOM      3  C   UNL     1       5.872   6.197  16.608  0.00  0.00    +0.000 A 
ATOM      4  C   UNL     1       5.828   4.924  17.186  0.00  0.00    +0.000 A 
ATOM      5  C   UNL     1       6.663   4.670  18.283  0.00  0.00    +0.000 A 
ATOM      6  C   UNL     1       7.551   5.650  18.758  0.00  0.00    +0.000 A 
ENDROOT
BRANCH   1  10
ATOM      7  N   UNL     1       9.538   9.909  18.937  0.00  0.00    +0.000 N 
ATOM      8  C   UNL     1       8.482   9.222  18.367  0.00  0.00    +0.000 C 
ATOM      9  O   UNL     1       7.630   9.791  17.695  0.00  0.00    +0.000 OA
ATOM     10  N   UNL     1       8.499   7.878  18.685  0.00  0.00    +0.000 N 
ATOM     11  H   UNL     1      10.389   9.388  19.080  0.00  0.00    +0.000 HD
ATOM     12  H   UNL     1       9.042   7.618  19.490  0.00  0.00    +0.000 HD
BRANCH   7  13
ATOM     13  C   UNL     1       9.656  11.351  18.687  0.00  0.00    +0.000 C 
ATOM     14  C   UNL     1      11.009  11.657  18.034  0.00  0.00    +0.000 C 
BRANCH  13  16
ATOM     15  C   UNL     1       9.303  11.275  21.208  0.00  0.00    +0.000 C 
ATOM     16  C   UNL     1       9.415  12.179  19.974  0.00  0.00    +0.000 C 
ATOM     17  C   UNL     1      10.551  13.184  20.209  0.00  0.00    +0.000 C 
ENDBRANCH  13  16
ENDBRANCH   7  13
ENDBRANCH   1  10
BRANCH   4  18
ATOM     18  C   UNL     1       4.883   3.887  16.622  0.00  0.00    +0.000 C 
BRANCH  18  19
ATOM     19  S   UNL     1       3.544   3.577  17.778  0.00  0.00    +0.000 S 
ATOM     20  O   UNL     1       2.307   3.396  17.031  0.00  0.00    +0.000 OA
ATOM     21  O   UNL     1       3.993   2.561  18.716  0.00  0.00    +0.000 OA
BRANCH  19  22
ATOM     22  C   UNL     1       3.373   5.104  18.728  0.00  0.00    +0.000 C 
ATOM     23  C   UNL     1       2.378   6.076  18.105  0.00  0.00    +0.000 C 
ATOM     24  C   UNL     1       2.944   4.761  20.155  0.00  0.00    +0.000 C 
ENDBRANCH  19  22
ENDBRANCH  18  19
ENDBRANCH   4  18
TORSDOF 6
ENDMDL
