MODEL 1
REMARK VINA RESULT:      -6.6      0.000      0.000
REMARK  Name = 
REMARK  10 active torsions:
REMARK  status: ('A' for Active; 'I' for Inactive)
REMARK    1  A    between atoms: C_1  and  O_2
REMARK    2  A    between atoms: O_2  and  N_3
REMARK    3  A    between atoms: N_3  and  C_4
REMARK    4  A    between atoms: C_5  and  C_7
REMARK    5  A    between atoms: C_9  and  S_10
REMARK    6  A    between atoms: S_10  and  C_11
REMARK    7  A    between atoms: C_11  and  C_12
REMARK    8  A    between atoms: C_11  and  C_13
REMARK    9  A    between atoms: C_14  and  C_15
REMARK   10  A    between atoms: C_17  and  C_18
REMARK                            x       y       z     vdW  Elec       q    Type
REMARK                         _______ _______ _______ _____ _____    ______ ____
ROOT
ATOM      1  C   UNL     1       3.360   4.344  17.436  0.00  0.00    +0.000 A 
ATOM      2  S   UNL     1       4.413   3.487  16.384  0.00  0.00    +0.000 S 
ATOM      3  C   UNL     1       5.582   4.727  16.350  0.00  0.00    +0.000 A 
ATOM      4  C   UNL     1       5.087   5.870  16.947  0.00  0.00    +0.000 A 
ATOM      5  C   UNL     1       3.808   5.657  17.621  0.00  0.00    +0.000 A 
ENDROOT
BRANCH   5   6
ATOM      6  C   UNL     1       3.102   6.678  18.433  0.00  0.00    +0.000 A 
ATOM      7  C   UNL     1       2.768   6.417  19.776  0.00  0.00    +0.000 A 
ATOM      8  C   UNL     1       1.953   7.286  20.510  0.00  0.00    +0.000 A 
ATOM      9  C   UNL     1       1.516   8.473  19.934  0.00  0.00    +0.000 A 
ATOM     10 CL   UNL     1       0.510   9.541  20.831  0.00  0.00    +0.000 Cl
ATOM     11  C   UNL     1       1.886   8.789  18.632  0.00  0.00    +0.000 A 
ATOM     12  C   UNL     1       2.650   7.886  17.879  0.00  0.00    +0.000 A 
ENDBRANCH   5   6
BRANCH   1  15
ATOM     13  N   UNL     1       2.133   2.675  18.838  0.00  0.00    +0.000 N 
ATOM     14  C   UNL     1       3.068   2.612  19.953  0.00  0.00    +0.000 C 
ATOM     15  C   UNL     1       2.105   3.708  17.865  0.00  0.00    +0.000 C 
ATOM     16  O   UNL     1       1.030   4.053  17.367  0.00  0.00    +0.000 OA
BRANCH  13  18
ATOM     17  C   UNL     1       0.725   2.992  20.658  0.00  0.00    +0.000 C 
ATOM     18  O   UNL     1       0.815   2.439  19.345  0.00  0.00    +0.000 OA
ENDBRANCH  13  18
ENDBRANCH   1  15
BRANCH   4  19
ATOM     19  C   UNL     1       5.780   7.125  16.923  0.00  0.00    +0.000 C 
ATOM     20  N   UNL     1       6.329   8.150  16.920  0.00  0.00    +0.000 NA
ENDBRANCH   4  19
BRANCH   3  21
ATOM     21  S   UNL     1       7.102   4.394  15.516  0.00  0.00    +0.000 S 
BRANCH  21  22
ATOM     22  C   UNL     1       6.843   4.841  13.765  0.00  0.00    +0.000 C 
ATOM     23  C   UNL     1       8.119   5.303  13.065  0.00  0.00    +0.000 C 
ATOM     24  C   UNL     1       6.269   3.622  13.044  0.00  0.00    +0.000 C 
ENDBRANCH  21  22
ENDBRANCH   3  21
TORSDOF 6
ENDMDL
MODEL 2
REMARK VINA RESULT:      -6.2      0.445      1.074
REMARK  Name = 
REMARK  10 active torsions:
REMARK  status: ('A' for Active; 'I' for Inactive)
REMARK    1  A    between atoms: C_1  and  O_2
REMARK    2  A    between atoms: O_2  and  N_3
REMARK    3  A    between atoms: N_3  and  C_4
REMARK    4  A    between atoms: C_5  and  C_7
REMARK    5  A    between atoms: C_9  and  S_10
REMARK    6  A    between atoms: S_10  and  C_11
REMARK    7  A    between atoms: C_11  and  C_12
REMARK    8  A    between atoms: C_11  and  C_13
REMARK    9  A    between atoms: C_14  and  C_15
REMARK   10  A    between atoms: C_17  and  C_18
REMARK                            x       y       z     vdW  Elec       q    Type
REMARK                         _______ _______ _______ _____ _____    ______ ____
ROOT
ATOM      1  C   UNL     1       3.358   4.098  17.766  0.00  0.00    +0.000 A 
ATOM      2  S   UNL     1       4.471   3.231  16.788  0.00  0.00    +0.000 S 
ATOM      3  C   UNL     1       5.491   4.575  16.548  0.00  0.00    +0.000 A 
ATOM      4  C   UNL     1       4.887   5.726  17.016  0.00  0.00    +0.000 A 
ATOM      5  C   UNL     1       3.660   5.465  17.765  0.00  0.00    +0.000 A 
ENDROOT
BRANCH   5   6
ATOM      6  C   UNL     1       2.866   6.501  18.471  0.00  0.00    +0.000 A 
ATOM      7  C   UNL     1       2.436   7.656  17.792  0.00  0.00    +0.000 A 
ATOM      8  C   UNL     1       1.840   8.726  18.472  0.00  0.00    +0.000 A 
ATOM      9  C   UNL     1       1.598   8.626  19.836  0.00  0.00    +0.000 A 
ATOM     10 CL   UNL     1       0.871   9.938  20.677  0.00  0.00    +0.000 Cl
ATOM     11  C   UNL     1       1.952   7.468  20.521  0.00  0.00    +0.000 A 
ATOM     12  C   UNL     1       2.605   6.425  19.848  0.00  0.00    +0.000 A 
ENDBRANCH   5   6
BRANCH   1  15
ATOM     13  N   UNL     1       2.364   2.514  19.427  0.00  0.00    +0.000 N 
ATOM     14  C   UNL     1       3.324   2.711  20.504  0.00  0.00    +0.000 C 
ATOM     15  C   UNL     1       2.195   3.391  18.325  0.00  0.00    +0.000 C 
ATOM     16  O   UNL     1       1.076   3.541  17.826  0.00  0.00    +0.000 OA
BRANCH  13  18
ATOM     17  C   UNL     1       1.072   2.702  21.349  0.00  0.00    +0.000 C 
ATOM     18  O   UNL     1       1.094   2.205  20.011  0.00  0.00    +0.000 OA
ENDBRANCH  13  18
ENDBRANCH   1  15
BRANCH   4  19
ATOM     19  C   UNL     1       5.434   7.034  16.805  0.00  0.00    +0.000 C 
ATOM     20  N   UNL     1       5.898   8.086  16.631  0.00  0.00    +0.000 NA
ENDBRANCH   4  19
BRANCH   3  21
ATOM     21  S   UNL     1       7.016   4.302  15.700  0.00  0.00    +0.000 S 
BRANCH  21  22
ATOM     22  C   UNL     1       6.747   4.818  13.970  0.00  0.00    +0.000 C 
ATOM     23  C   UNL     1       8.031   5.245  13.261  0.00  0.00    +0.000 C 
ATOM     24  C   UNL     1       6.106   3.650  13.221  0.00  0.00    +0.000 C 
ENDBRANCH  21  22
ENDBRANCH   3  21
TORSDOF 6
ENDMDL
MODEL 3
REMARK VINA RESULT:      -5.6      6.617     10.141
REMARK  Name = 
REMARK  10 active torsions:
REMARK  status: ('A' for Active; 'I' for Inactive)
REMARK    1  A    between atoms: C_1  and  O_2
REMARK    2  A    between atoms: O_2  and  N_3
REMARK    3  A    between atoms: N_3  and  C_4
REMARK    4  A    between atoms: C_5  and  C_7
REMARK    5  A    between atoms: C_9  and  S_10
REMARK    6  A    between atoms: S_10  and  C_11
REMARK    7  A    between atoms: C_11  and  C_12
REMARK    8  A    between atoms: C_11  and  C_13
REMARK    9  A    between atoms: C_14  and  C_15
REMARK   10  A    between atoms: C_17  and  C_18
REMARK                            x       y       z     vdW  Elec       q    Type
REMARK                         _______ _______ _______ _____ _____    ______ ____
ROOT
ATOM      1  C   UNL     1      -1.331  11.659  19.546  0.00  0.00    +0.000 A 
ATOM      2  S   UNL     1      -2.450  12.513  20.530  0.00  0.00    +0.000 S 
ATOM      3  C   UNL     1      -1.730  12.010  21.991  0.00  0.00    +0.000 A 
ATOM      4  C   UNL     1      -0.789  11.028  21.750  0.00  0.00    +0.000 A 
ATOM      5  C   UNL     1      -0.513  10.836  20.328  0.00  0.00    +0.000 A 
ENDROOT
BRANCH   5   6
ATOM      6  C   UNL     1       0.527   9.928  19.786  0.00  0.00    +0.000 A 
ATOM      7  C   UNL     1       1.155  10.213  18.559  0.00  0.00    +0.000 A 
ATOM      8  C   UNL     1       2.008   9.291  17.941  0.00  0.00    +0.000 A 
ATOM      9  C   UNL     1       2.306   8.093  18.578  0.00  0.00    +0.000 A 
ATOM     10 CL   UNL     1       3.349   6.954  17.821  0.00  0.00    +0.000 Cl
ATOM     11  C   UNL     1       1.753   7.813  19.823  0.00  0.00    +0.000 A 
ATOM     12  C   UNL     1       0.850   8.712  20.409  0.00  0.00    +0.000 A 
ENDBRANCH   5   6
BRANCH   1  15
ATOM     13  N   UNL     1      -2.052  10.688  17.356  0.00  0.00    +0.000 N 
ATOM     14  C   UNL     1      -3.153   9.869  17.844  0.00  0.00    +0.000 C 
ATOM     15  C   UNL     1      -1.452  11.750  18.082  0.00  0.00    +0.000 C 
ATOM     16  O   UNL     1      -1.014  12.734  17.481  0.00  0.00    +0.000 OA
BRANCH  13  18
ATOM     17  C   UNL     1      -3.745  10.842  15.773  0.00  0.00    +0.000 C 
ATOM     18  O   UNL     1      -2.367  11.116  16.027  0.00  0.00    +0.000 OA
ENDBRANCH  13  18
ENDBRANCH   1  15
BRANCH   4  19
ATOM     19  C   UNL     1      -0.137  10.298  22.798  0.00  0.00    +0.000 C 
ATOM     20  N   UNL     1       0.395   9.726  23.659  0.00  0.00    +0.000 NA
ENDBRANCH   4  19
BRANCH   3  21
ATOM     21  S   UNL     1      -2.345  12.714  23.489  0.00  0.00    +0.000 S 
BRANCH  21  22
ATOM     22  C   UNL     1      -4.158  12.827  23.305  0.00  0.00    +0.000 C 
ATOM     23  C   UNL     1      -4.921  12.345  24.537  0.00  0.00    +0.000 C 
ATOM     24  C   UNL     1      -4.515  14.284  23.011  0.00  0.00    +0.000 C 
ENDBRANCH  21  22
ENDBRANCH   3  21
TORSDOF 6
ENDMDL
MODEL 4
REMARK VINA RESULT:      -5.5      6.593      9.927
REMARK  Name = 
REMARK  10 active torsions:
REMARK  status: ('A' for Active; 'I' for Inactive)
REMARK    1  A    between atoms: C_1  and  O_2
REMARK    2  A    between atoms: O_2  and  N_3
REMARK    3  A    between atoms: N_3  and  C_4
REMARK    4  A    between atoms: C_5  and  C_7
REMARK    5  A    between atoms: C_9  and  S_10
REMARK    6  A    between atoms: S_10  and  C_11
REMARK    7  A    between atoms: C_11  and  C_12
REMARK    8  A    between atoms: C_11  and  C_13
REMARK    9  A    between atoms: C_14  and  C_15
REMARK   10  A    between atoms: C_17  and  C_18
REMARK                            x       y       z     vdW  Elec       q    Type
REMARK                         _______ _______ _______ _____ _____    ______ ____
ROOT
ATOM      1  C   UNL     1      -1.440  11.687  19.503  0.00  0.00    +0.000 A 
ATOM      2  S   UNL     1      -2.599  12.496  20.478  0.00  0.00    +0.000 S 
ATOM      3  C   UNL     1      -1.890  11.995  21.945  0.00  0.00    +0.000 A 
ATOM      4  C   UNL     1      -0.917  11.043  21.708  0.00  0.00    +0.000 A 
ATOM      5  C   UNL     1      -0.612  10.877  20.289  0.00  0.00    +0.000 A 
ENDROOT
BRANCH   5   6
ATOM      6  C   UNL     1       0.463  10.006  19.754  0.00  0.00    +0.000 A 
ATOM      7  C   UNL     1       1.103  10.324  18.541  0.00  0.00    +0.000 A 
ATOM      8  C   UNL     1       1.992   9.434  17.927  0.00  0.00    +0.000 A 
ATOM      9  C   UNL     1       2.314   8.238  18.556  0.00  0.00    +0.000 A 
ATOM     10 CL   UNL     1       3.402   7.139  17.803  0.00  0.00    +0.000 Cl
ATOM     11  C   UNL     1       1.749   7.927  19.788  0.00  0.00    +0.000 A 
ATOM     12  C   UNL     1       0.811   8.793  20.369  0.00  0.00    +0.000 A 
ENDBRANCH   5   6
BRANCH   1  15
ATOM     13  N   UNL     1      -2.187  10.771  17.299  0.00  0.00    +0.000 N 
ATOM     14  C   UNL     1      -3.338  10.011  17.769  0.00  0.00    +0.000 C 
ATOM     15  C   UNL     1      -1.538  11.793  18.038  0.00  0.00    +0.000 C 
ATOM     16  O   UNL     1      -1.038  12.755  17.449  0.00  0.00    +0.000 OA
BRANCH  13  18
ATOM     17  C   UNL     1      -2.835  10.100  15.171  0.00  0.00    +0.000 C 
ATOM     18  O   UNL     1      -2.462  11.223  15.969  0.00  0.00    +0.000 OA
ENDBRANCH  13  18
ENDBRANCH   1  15
BRANCH   4  19
ATOM     19  C   UNL     1      -0.263  10.319  22.759  0.00  0.00    +0.000 C 
ATOM     20  N   UNL     1       0.253   9.741  23.625  0.00  0.00    +0.000 NA
ENDBRANCH   4  19
BRANCH   3  21
ATOM     21  S   UNL     1      -2.550  12.662  23.440  0.00  0.00    +0.000 S 
BRANCH  21  22
ATOM     22  C   UNL     1      -1.819  14.324  23.635  0.00  0.00    +0.000 C 
ATOM     23  C   UNL     1      -0.515  14.504  22.859  0.00  0.00    +0.000 C 
ATOM     24  C   UNL     1      -2.847  15.353  23.167  0.00  0.00    +0.000 C 
ENDBRANCH  21  22
ENDBRANCH   3  21
TORSDOF 6
ENDMDL
MODEL 5
REMARK VINA RESULT:      -5.5      6.592     10.061
REMARK  Name = 
REMARK  10 active torsions:
REMARK  status: ('A' for Active; 'I' for Inactive)
REMARK    1  A    between atoms: C_1  and  O_2
REMARK    2  A    between atoms: O_2  and  N_3
REMARK    3  A    between atoms: N_3  and  C_4
REMARK    4  A    between atoms: C_5  and  C_7
REMARK    5  A    between atoms: C_9  and  S_10
REMARK    6  A    between atoms: S_10  and  C_11
REMARK    7  A    between atoms: C_11  and  C_12
REMARK    8  A    between atoms: C_11  and  C_13
REMARK    9  A    between atoms: C_14  and  C_15
REMARK   10  A    between atoms: C_17  and  C_18
REMARK                            x       y       z     vdW  Elec       q    Type
REMARK                         _______ _______ _______ _____ _____    ______ ____
ROOT
ATOM      1  C   UNL     1      -1.323  11.693  19.473  0.00  0.00    +0.000 A 
ATOM      2  S   UNL     1      -2.306  12.681  20.475  0.00  0.00    +0.000 S 
ATOM      3  C   UNL     1      -1.590  12.134  21.921  0.00  0.00    +0.000 A 
ATOM      4  C   UNL     1      -0.769  11.052  21.671  0.00  0.00    +0.000 A 
ATOM      5  C   UNL     1      -0.568  10.803  20.246  0.00  0.00    +0.000 A 
ENDROOT
BRANCH   5   6
ATOM      6  C   UNL     1       0.349   9.777  19.689  0.00  0.00    +0.000 A 
ATOM      7  C   UNL     1       0.742   8.672  20.468  0.00  0.00    +0.000 A 
ATOM      8  C   UNL     1       1.737   7.787  20.035  0.00  0.00    +0.000 A 
ATOM      9  C   UNL     1       2.306   7.952  18.779  0.00  0.00    +0.000 A 
ATOM     10 CL   UNL     1       3.532   6.871  18.244  0.00  0.00    +0.000 Cl
ATOM     11  C   UNL     1       1.889   8.996  17.959  0.00  0.00    +0.000 A 
ATOM     12  C   UNL     1       0.938   9.916  18.422  0.00  0.00    +0.000 A 
ENDBRANCH   5   6
BRANCH   1  15
ATOM     13  N   UNL     1      -2.210  10.752  17.332  0.00  0.00    +0.000 N 
ATOM     14  C   UNL     1      -3.363  10.049  17.876  0.00  0.00    +0.000 C 
ATOM     15  C   UNL     1      -1.488  11.766  18.012  0.00  0.00    +0.000 C 
ATOM     16  O   UNL     1      -0.982  12.694  17.374  0.00  0.00    +0.000 OA
BRANCH  13  18
ATOM     17  C   UNL     1      -2.906  10.040  15.233  0.00  0.00    +0.000 C 
ATOM     18  O   UNL     1      -2.532  11.182  16.005  0.00  0.00    +0.000 OA
ENDBRANCH  13  18
ENDBRANCH   1  15
BRANCH   4  19
ATOM     19  C   UNL     1      -0.159  10.278  22.713  0.00  0.00    +0.000 C 
ATOM     20  N   UNL     1       0.350   9.645  23.544  0.00  0.00    +0.000 NA
ENDBRANCH   4  19
BRANCH   3  21
ATOM     21  S   UNL     1      -2.069  12.931  23.422  0.00  0.00    +0.000 S 
BRANCH  21  22
ATOM     22  C   UNL     1      -3.895  12.933  23.449  0.00  0.00    +0.000 C 
ATOM     23  C   UNL     1      -4.480  12.365  24.740  0.00  0.00    +0.000 C 
ATOM     24  C   UNL     1      -4.370  14.373  23.254  0.00  0.00    +0.000 C 
ENDBRANCH  21  22
ENDBRANCH   3  21
TORSDOF 6
ENDMDL
MODEL 6
REMARK VINA RESULT:      -5.5      7.265     10.661
REMARK  Name = 
REMARK  10 active torsions:
REMARK  status: ('A' for Active; 'I' for Inactive)
REMARK    1  A    between atoms: C_1  and  O_2
REMARK    2  A    between atoms: O_2  and  N_3
REMARK    3  A    between atoms: N_3  and  C_4
REMARK    4  A    between atoms: C_5  and  C_7
REMARK    5  A    between atoms: C_9  and  S_10
REMARK    6  A    between atoms: S_10  and  C_11
REMARK    7  A    between atoms: C_11  and  C_12
REMARK    8  A    between atoms: C_11  and  C_13
REMARK    9  A    between atoms: C_14  and  C_15
REMARK   10  A    between atoms: C_17  and  C_18
REMARK                            x       y       z     vdW  Elec       q    Type
REMARK                         _______ _______ _______ _____ _____    ______ ____
ROOT
ATOM      1  C   UNL     1      -1.388  12.511  20.757  0.00  0.00    +0.000 A 
ATOM      2  S   UNL     1      -2.848  13.411  20.682  0.00  0.00    +0.000 S 
ATOM      3  C   UNL     1      -3.578  12.362  19.554  0.00  0.00    +0.000 A 
ATOM      4  C   UNL     1      -2.650  11.462  19.066  0.00  0.00    +0.000 A 
ATOM      5  C   UNL     1      -1.378  11.507  19.782  0.00  0.00    +0.000 A 
ENDROOT
BRANCH   5   6
ATOM      6  C   UNL     1      -0.243  10.580  19.543  0.00  0.00    +0.000 A 
ATOM      7  C   UNL     1       0.456  10.607  18.322  0.00  0.00    +0.000 A 
ATOM      8  C   UNL     1       1.411   9.634  18.003  0.00  0.00    +0.000 A 
ATOM      9  C   UNL     1       1.735   8.656  18.935  0.00  0.00    +0.000 A 
ATOM     10 CL   UNL     1       2.903   7.455  18.546  0.00  0.00    +0.000 Cl
ATOM     11  C   UNL     1       1.108   8.644  20.176  0.00  0.00    +0.000 A 
ATOM     12  C   UNL     1       0.108   9.583  20.467  0.00  0.00    +0.000 A 
ENDBRANCH   5   6
BRANCH   1  15
ATOM     13  N   UNL     1       0.759  13.734  21.142  0.00  0.00    +0.000 N 
ATOM     14  C   UNL     1       0.639  14.710  20.068  0.00  0.00    +0.000 C 
ATOM     15  C   UNL     1      -0.315  12.962  21.656  0.00  0.00    +0.000 C 
ATOM     16  O   UNL     1      -0.333  12.653  22.851  0.00  0.00    +0.000 OA
BRANCH  13  18
ATOM     17  C   UNL     1       2.744  14.799  21.711  0.00  0.00    +0.000 C 
ATOM     18  O   UNL     1       1.491  14.336  22.215  0.00  0.00    +0.000 OA
ENDBRANCH  13  18
ENDBRANCH   1  15
BRANCH   4  19
ATOM     19  C   UNL     1      -2.931  10.563  17.985  0.00  0.00    +0.000 C 
ATOM     20  N   UNL     1      -3.157   9.851  17.094  0.00  0.00    +0.000 NA
ENDBRANCH   4  19
BRANCH   3  21
ATOM     21  S   UNL     1      -5.272  12.650  19.147  0.00  0.00    +0.000 S 
BRANCH  21  22
ATOM     22  C   UNL     1      -6.220  11.260  19.855  0.00  0.00    +0.000 C 
ATOM     23  C   UNL     1      -7.305  11.705  20.833  0.00  0.00    +0.000 C 
ATOM     24  C   UNL     1      -6.850  10.479  18.702  0.00  0.00    +0.000 C 
ENDBRANCH  21  22
ENDBRANCH   3  21
TORSDOF 6
ENDMDL
MODEL 7
REMARK VINA RESULT:      -5.5      3.471      6.262
REMARK  Name = 
REMARK  10 active torsions:
REMARK  status: ('A' for Active; 'I' for Inactive)
REMARK    1  A    between atoms: C_1  and  O_2
REMARK    2  A    between atoms: O_2  and  N_3
REMARK    3  A    between atoms: N_3  and  C_4
REMARK    4  A    between atoms: C_5  and  C_7
REMARK    5  A    between atoms: C_9  and  S_10
REMARK    6  A    between atoms: S_10  and  C_11
REMARK    7  A    between atoms: C_11  and  C_12
REMARK    8  A    between atoms: C_11  and  C_13
REMARK    9  A    between atoms: C_14  and  C_15
REMARK   10  A    between atoms: C_17  and  C_18
REMARK                            x       y       z     vdW  Elec       q    Type
REMARK                         _______ _______ _______ _____ _____    ______ ____
ROOT
ATOM      1  C   UNL     1       3.131   4.955  19.695  0.00  0.00    +0.000 A 
ATOM      2  S   UNL     1       2.091   5.497  20.950  0.00  0.00    +0.000 S 
ATOM      3  C   UNL     1       1.617   6.903  20.112  0.00  0.00    +0.000 A 
ATOM      4  C   UNL     1       2.402   7.081  18.990  0.00  0.00    +0.000 A 
ATOM      5  C   UNL     1       3.265   5.937  18.707  0.00  0.00    +0.000 A 
ENDROOT
BRANCH   5   6
ATOM      6  C   UNL     1       4.130   5.809  17.508  0.00  0.00    +0.000 A 
ATOM      7  C   UNL     1       4.064   4.660  16.699  0.00  0.00    +0.000 A 
ATOM      8  C   UNL     1       4.985   4.434  15.669  0.00  0.00    +0.000 A 
ATOM      9  C   UNL     1       5.948   5.394  15.384  0.00  0.00    +0.000 A 
ATOM     10 CL   UNL     1       7.086   5.120  14.124  0.00  0.00    +0.000 Cl
ATOM     11  C   UNL     1       5.996   6.571  16.124  0.00  0.00    +0.000 A 
ATOM     12  C   UNL     1       5.111   6.764  17.195  0.00  0.00    +0.000 A 
ENDBRANCH   5   6
BRANCH   1  15
ATOM     13  N   UNL     1       3.126   2.461  19.877  0.00  0.00    +0.000 N 
ATOM     14  C   UNL     1       1.926   2.197  19.095  0.00  0.00    +0.000 C 
ATOM     15  C   UNL     1       3.849   3.681  19.861  0.00  0.00    +0.000 C 
ATOM     16  O   UNL     1       5.074   3.672  20.007  0.00  0.00    +0.000 OA
BRANCH  13  18
ATOM     17  C   UNL     1       4.033   0.981  18.333  0.00  0.00    +0.000 C 
ATOM     18  O   UNL     1       4.020   1.356  19.711  0.00  0.00    +0.000 OA
ENDBRANCH  13  18
ENDBRANCH   1  15
BRANCH   4  19
ATOM     19  C   UNL     1       2.345   8.262  18.178  0.00  0.00    +0.000 C 
ATOM     20  N   UNL     1       2.309   9.231  17.536  0.00  0.00    +0.000 NA
ENDBRANCH   4  19
BRANCH   3  21
ATOM     21  S   UNL     1       0.344   7.893  20.832  0.00  0.00    +0.000 S 
BRANCH  21  22
ATOM     22  C   UNL     1       1.176   9.308  21.631  0.00  0.00    +0.000 C 
ATOM     23  C   UNL     1       1.001  10.620  20.869  0.00  0.00    +0.000 C 
ATOM     24  C   UNL     1       0.615   9.452  23.045  0.00  0.00    +0.000 C 
ENDBRANCH  21  22
ENDBRANCH   3  21
TORSDOF 6
ENDMDL
MODEL 8
REMARK VINA RESULT:      -5.4      9.248     11.745
REMARK  Name = 
REMARK  10 active torsions:
REMARK  status: ('A' for Active; 'I' for Inactive)
REMARK    1  A    between atoms: C_1  and  O_2
REMARK    2  A    between atoms: O_2  and  N_3
REMARK    3  A    between atoms: N_3  and  C_4
REMARK    4  A    between atoms: C_5  and  C_7
REMARK    5  A    between atoms: C_9  and  S_10
REMARK    6  A    between atoms: S_10  and  C_11
REMARK    7  A    between atoms: C_11  and  C_12
REMARK    8  A    between atoms: C_11  and  C_13
REMARK    9  A    between atoms: C_14  and  C_15
REMARK   10  A    between atoms: C_17  and  C_18
REMARK                            x       y       z     vdW  Elec       q    Type
REMARK                         _______ _______ _______ _____ _____    ______ ____
ROOT
ATOM      1  C   UNL     1      -3.237  13.795  22.372  0.00  0.00    +0.000 A 
ATOM      2  S   UNL     1      -3.421  15.469  22.703  0.00  0.00    +0.000 S 
ATOM      3  C   UNL     1      -1.778  15.827  22.423  0.00  0.00    +0.000 A 
ATOM      4  C   UNL     1      -1.047  14.662  22.297  0.00  0.00    +0.000 A 
ATOM      5  C   UNL     1      -1.884  13.466  22.225  0.00  0.00    +0.000 A 
ENDROOT
BRANCH   5   6
ATOM      6  C   UNL     1      -1.375  12.094  21.981  0.00  0.00    +0.000 A 
ATOM      7  C   UNL     1      -1.096  11.233  23.059  0.00  0.00    +0.000 A 
ATOM      8  C   UNL     1      -0.453  10.004  22.867  0.00  0.00    +0.000 A 
ATOM      9  C   UNL     1      -0.145   9.581  21.580  0.00  0.00    +0.000 A 
ATOM     10 CL   UNL     1       0.649   8.074  21.340  0.00  0.00    +0.000 Cl
ATOM     11  C   UNL     1      -0.470  10.381  20.490  0.00  0.00    +0.000 A 
ATOM     12  C   UNL     1      -1.056  11.639  20.691  0.00  0.00    +0.000 A 
ENDBRANCH   5   6
BRANCH   1  15
ATOM     13  N   UNL     1      -5.317  12.862  21.342  0.00  0.00    +0.000 N 
ATOM     14  C   UNL     1      -4.928  12.982  19.944  0.00  0.00    +0.000 C 
ATOM     15  C   UNL     1      -4.417  12.918  22.438  0.00  0.00    +0.000 C 
ATOM     16  O   UNL     1      -4.640  12.249  23.450  0.00  0.00    +0.000 OA
BRANCH  13  18
ATOM     17  C   UNL     1      -7.524  12.147  21.227  0.00  0.00    +0.000 C 
ATOM     18  O   UNL     1      -6.181  11.729  21.472  0.00  0.00    +0.000 OA
ENDBRANCH  13  18
ENDBRANCH   1  15
BRANCH   4  19
ATOM     19  C   UNL     1       0.384  14.644  22.218  0.00  0.00    +0.000 C 
ATOM     20  N   UNL     1       1.545  14.646  22.167  0.00  0.00    +0.000 NA
ENDBRANCH   4  19
BRANCH   3  21
ATOM     21  S   UNL     1      -1.297  17.526  22.442  0.00  0.00    +0.000 S 
BRANCH  21  22
ATOM     22  C   UNL     1      -0.908  17.975  20.716  0.00  0.00    +0.000 C 
ATOM     23  C   UNL     1       0.564  17.779  20.358  0.00  0.00    +0.000 C 
ATOM     24  C   UNL     1      -1.782  17.123  19.796  0.00  0.00    +0.000 C 
ENDBRANCH  21  22
ENDBRANCH   3  21
TORSDOF 6
ENDMDL
MODEL 9
REMARK VINA RESULT:      -5.1      6.945     10.399
REMARK  Name = 
REMARK  10 active torsions:
REMARK  status: ('A' for Active; 'I' for Inactive)
REMARK    1  A    between atoms: C_1  and  O_2
REMARK    2  A    between atoms: O_2  and  N_3
REMARK    3  A    between atoms: N_3  and  C_4
REMARK    4  A    between atoms: C_5  and  C_7
REMARK    5  A    between atoms: C_9  and  S_10
REMARK    6  A    between atoms: S_10  and  C_11
REMARK    7  A    between atoms: C_11  and  C_12
REMARK    8  A    between atoms: C_11  and  C_13
REMARK    9  A    between atoms: C_14  and  C_15
REMARK   10  A    between atoms: C_17  and  C_18
REMARK                            x       y       z     vdW  Elec       q    Type
REMARK                         _______ _______ _______ _____ _____    ______ ____
ROOT
ATOM      1  C   UNL     1      -1.028  12.130  20.478  0.00  0.00    +0.000 A 
ATOM      2  S   UNL     1      -2.404  13.156  20.477  0.00  0.00    +0.000 S 
ATOM      3  C   UNL     1      -3.299  12.155  19.427  0.00  0.00    +0.000 A 
ATOM      4  C   UNL     1      -2.490  11.165  18.902  0.00  0.00    +0.000 A 
ATOM      5  C   UNL     1      -1.173  11.110  19.530  0.00  0.00    +0.000 A 
ENDROOT
BRANCH   5   6
ATOM      6  C   UNL     1      -0.143  10.081  19.242  0.00  0.00    +0.000 A 
ATOM      7  C   UNL     1       0.325   9.232  20.263  0.00  0.00    +0.000 A 
ATOM      8  C   UNL     1       1.415   8.376  20.062  0.00  0.00    +0.000 A 
ATOM      9  C   UNL     1       2.010   8.301  18.809  0.00  0.00    +0.000 A 
ATOM     10 CL   UNL     1       3.352   7.255  18.558  0.00  0.00    +0.000 Cl
ATOM     11  C   UNL     1       1.526   9.079  17.762  0.00  0.00    +0.000 A 
ATOM     12  C   UNL     1       0.475   9.981  17.985  0.00  0.00    +0.000 A 
ENDBRANCH   5   6
BRANCH   1  15
ATOM     13  N   UNL     1       1.333  12.935  20.659  0.00  0.00    +0.000 N 
ATOM     14  C   UNL     1       1.383  13.714  19.429  0.00  0.00    +0.000 C 
ATOM     15  C   UNL     1       0.140  12.501  21.292  0.00  0.00    +0.000 C 
ATOM     16  O   UNL     1       0.094  12.414  22.522  0.00  0.00    +0.000 OA
BRANCH  13  18
ATOM     17  C   UNL     1       3.303  14.140  20.920  0.00  0.00    +0.000 C 
ATOM     18  O   UNL     1       2.203  13.552  21.615  0.00  0.00    +0.000 OA
ENDBRANCH  13  18
ENDBRANCH   1  15
BRANCH   4  19
ATOM     19  C   UNL     1      -2.922  10.274  17.865  0.00  0.00    +0.000 C 
ATOM     20  N   UNL     1      -3.257   9.560  17.011  0.00  0.00    +0.000 NA
ENDBRANCH   4  19
BRANCH   3  21
ATOM     21  S   UNL     1      -4.984  12.585  19.126  0.00  0.00    +0.000 S 
BRANCH  21  22
ATOM     22  C   UNL     1      -5.914  12.128  20.629  0.00  0.00    +0.000 C 
ATOM     23  C   UNL     1      -6.488  13.332  21.373  0.00  0.00    +0.000 C 
ATOM     24  C   UNL     1      -7.044  11.185  20.219  0.00  0.00    +0.000 C 
ENDBRANCH  21  22
ENDBRANCH   3  21
TORSDOF 6
ENDMDL
