MODEL 1
REMARK VINA RESULT:      -7.9      0.000      0.000
REMARK  Name = 
REMARK  6 active torsions:
REMARK  status: ('A' for Active; 'I' for Inactive)
REMARK    1  A    between atoms: C_1  and  C_2
REMARK    2  A    between atoms: C_5  and  C_6
REMARK    3  A    between atoms: C_8  and  S_9
REMARK    4  A    between atoms: S_9  and  C_10
REMARK    5  A    between atoms: C_10  and  C_11
REMARK    6  A    between atoms: C_10  and  C_12
REMARK                            x       y       z     vdW  Elec       q    Type
REMARK                         _______ _______ _______ _____ _____    ______ ____
ROOT
ATOM      1  C   UNL     1       8.472   8.914  18.339  0.00  0.00    +0.000 A 
ATOM      2  N   UNL     1       8.540   7.698  18.855  0.00  0.00    +0.000 NA
ATOM      3  C   UNL     1       7.676   6.967  18.084  0.00  0.00    +0.000 A 
ATOM      4  N   UNL     1       7.073   7.657  17.114  0.00  0.00    +0.000 NA
ATOM      5  N   UNL     1       7.572   8.884  17.307  0.00  0.00    +0.000 N 
ATOM      6  H   UNL     1       7.246   9.649  16.727  0.00  0.00    +0.000 HD
ENDROOT
BRANCH   1  11
ATOM      7  C   UNL     1      11.119  13.719  20.204  0.00  0.00    +0.000 C 
ATOM      8  C   UNL     1      10.454  12.471  19.703  0.00  0.00    +0.000 A 
ATOM      9  C   UNL     1      10.359  12.202  18.332  0.00  0.00    +0.000 A 
ATOM     10  C   UNL     1       9.724  11.040  17.879  0.00  0.00    +0.000 A 
ATOM     11  C   UNL     1       9.167  10.124  18.784  0.00  0.00    +0.000 A 
ATOM     12  C   UNL     1       9.283  10.390  20.153  0.00  0.00    +0.000 A 
ATOM     13  C   UNL     1       9.914  11.554  20.609  0.00  0.00    +0.000 A 
ENDBRANCH   1  11
BRANCH   3  14
ATOM     14  S   UNL     1       7.356   5.269  18.281  0.00  0.00    +0.000 S 
BRANCH  14  15
ATOM     15  C   UNL     1       5.649   5.110  17.637  0.00  0.00    +0.000 C 
ATOM     16  C   UNL     1       5.639   4.443  16.260  0.00  0.00    +0.000 C 
BRANCH  15  17
ATOM     17  C   UNL     1       4.874   4.234  18.647  0.00  0.00    +0.000 C 
ATOM     18  O   UNL     1       5.424   3.268  19.189  0.00  0.00    +0.000 OA
ATOM     19  N   UNL     1       3.568   4.569  18.974  0.00  0.00    +0.000 N 
ATOM     20  C   UNL     1       2.767   5.661  18.413  0.00  0.00    +0.000 C 
ATOM     21  C   UNL     1       2.299   6.596  19.533  0.00  0.00    +0.000 C 
ATOM     22  O   UNL     1       1.569   5.869  20.536  0.00  0.00    +0.000 OA
ATOM     23  C   UNL     1       2.389   4.841  21.120  0.00  0.00    +0.000 C 
ATOM     24  C   UNL     1       2.879   3.851  20.053  0.00  0.00    +0.000 C 
ENDBRANCH  15  17
ENDBRANCH  14  15
ENDBRANCH   3  14
TORSDOF 4
ENDMDL
MODEL 2
REMARK VINA RESULT:      -7.7      1.639      2.281
REMARK  Name = 
REMARK  6 active torsions:
REMARK  status: ('A' for Active; 'I' for Inactive)
REMARK    1  A    between atoms: C_1  and  C_2
REMARK    2  A    between atoms: C_5  and  C_6
REMARK    3  A    between atoms: C_8  and  S_9
REMARK    4  A    between atoms: S_9  and  C_10
REMARK    5  A    between atoms: C_10  and  C_11
REMARK    6  A    between atoms: C_10  and  C_12
REMARK                            x       y       z     vdW  Elec       q    Type
REMARK                         _______ _______ _______ _____ _____    ______ ____
ROOT
ATOM      1  C   UNL     1       8.364   8.835  18.307  0.00  0.00    +0.000 A 
ATOM      2  N   UNL     1       7.567   8.429  17.331  0.00  0.00    +0.000 NA
ATOM      3  C   UNL     1       7.395   7.094  17.584  0.00  0.00    +0.000 A 
ATOM      4  N   UNL     1       8.039   6.642  18.662  0.00  0.00    +0.000 NA
ATOM      5  N   UNL     1       8.660   7.749  19.088  0.00  0.00    +0.000 N 
ATOM      6  H   UNL     1       9.278   7.694  19.889  0.00  0.00    +0.000 HD
ENDROOT
BRANCH   1  11
ATOM      7  C   UNL     1      10.539  14.155  19.033  0.00  0.00    +0.000 C 
ATOM      8  C   UNL     1       9.971  12.776  18.873  0.00  0.00    +0.000 A 
ATOM      9  C   UNL     1      10.321  11.743  19.750  0.00  0.00    +0.000 A 
ATOM     10  C   UNL     1       9.793  10.458  19.580  0.00  0.00    +0.000 A 
ATOM     11  C   UNL     1       8.909  10.176  18.527  0.00  0.00    +0.000 A 
ATOM     12  C   UNL     1       8.550  11.218  17.666  0.00  0.00    +0.000 A 
ATOM     13  C   UNL     1       9.079  12.503  17.832  0.00  0.00    +0.000 A 
ENDBRANCH   1  11
BRANCH   3  14
ATOM     14  S   UNL     1       6.417   6.017  16.633  0.00  0.00    +0.000 S 
BRANCH  14  15
ATOM     15  C   UNL     1       4.880   5.900  17.621  0.00  0.00    +0.000 C 
ATOM     16  C   UNL     1       3.991   7.127  17.407  0.00  0.00    +0.000 C 
BRANCH  15  17
ATOM     17  C   UNL     1       4.140   4.630  17.143  0.00  0.00    +0.000 C 
ATOM     18  O   UNL     1       4.447   4.092  16.072  0.00  0.00    +0.000 OA
ATOM     19  N   UNL     1       3.157   4.074  17.948  0.00  0.00    +0.000 N 
ATOM     20  C   UNL     1       2.659   4.592  19.226  0.00  0.00    +0.000 C 
ATOM     21  C   UNL     1       2.842   3.540  20.325  0.00  0.00    +0.000 C 
ATOM     22  O   UNL     1       2.192   2.309  19.968  0.00  0.00    +0.000 OA
ATOM     23  C   UNL     1       2.734   1.781  18.743  0.00  0.00    +0.000 C 
ATOM     24  C   UNL     1       2.566   2.779  17.588  0.00  0.00    +0.000 C 
ENDBRANCH  15  17
ENDBRANCH  14  15
ENDBRANCH   3  14
TORSDOF 4
ENDMDL
MODEL 3
REMARK VINA RESULT:      -7.6      1.554      1.959
REMARK  Name = 
REMARK  6 active torsions:
REMARK  status: ('A' for Active; 'I' for Inactive)
REMARK    1  A    between atoms: C_1  and  C_2
REMARK    2  A    between atoms: C_5  and  C_6
REMARK    3  A    between atoms: C_8  and  S_9
REMARK    4  A    between atoms: S_9  and  C_10
REMARK    5  A    between atoms: C_10  and  C_11
REMARK    6  A    between atoms: C_10  and  C_12
REMARK                            x       y       z     vdW  Elec       q    Type
REMARK                         _______ _______ _______ _____ _____    ______ ____
ROOT
ATOM      1  C   UNL     1       8.255   8.673  18.296  0.00  0.00    +0.000 A 
ATOM      2  N   UNL     1       7.399   8.241  17.384  0.00  0.00    +0.000 NA
ATOM      3  C   UNL     1       7.268   6.908  17.665  0.00  0.00    +0.000 A 
ATOM      4  N   UNL     1       7.992   6.482  18.701  0.00  0.00    +0.000 NA
ATOM      5  N   UNL     1       8.622   7.604  19.068  0.00  0.00    +0.000 N 
ATOM      6  H   UNL     1       9.296   7.570  19.825  0.00  0.00    +0.000 HD
ENDROOT
BRANCH   1  11
ATOM      7  C   UNL     1      10.358  14.013  19.095  0.00  0.00    +0.000 C 
ATOM      8  C   UNL     1       9.819  12.633  18.860  0.00  0.00    +0.000 A 
ATOM      9  C   UNL     1       8.957  12.365  17.791  0.00  0.00    +0.000 A 
ATOM     10  C   UNL     1       8.451  11.075  17.592  0.00  0.00    +0.000 A 
ATOM     11  C   UNL     1       8.791  10.026  18.461  0.00  0.00    +0.000 A 
ATOM     12  C   UNL     1       9.668  10.298  19.517  0.00  0.00    +0.000 A 
ATOM     13  C   UNL     1      10.172  11.588  19.720  0.00  0.00    +0.000 A 
ENDBRANCH   1  11
BRANCH   3  14
ATOM     14  S   UNL     1       6.244   5.802  16.798  0.00  0.00    +0.000 S 
BRANCH  14  15
ATOM     15  C   UNL     1       4.679   5.884  17.746  0.00  0.00    +0.000 C 
ATOM     16  C   UNL     1       3.874   7.131  17.377  0.00  0.00    +0.000 C 
BRANCH  15  17
ATOM     17  C   UNL     1       3.873   4.616  17.384  0.00  0.00    +0.000 C 
ATOM     18  O   UNL     1       4.221   3.903  16.435  0.00  0.00    +0.000 OA
ATOM     19  N   UNL     1       2.781   4.260  18.162  0.00  0.00    +0.000 N 
ATOM     20  C   UNL     1       2.226   4.999  19.299  0.00  0.00    +0.000 C 
ATOM     21  C   UNL     1       2.222   4.112  20.548  0.00  0.00    +0.000 C 
ATOM     22  O   UNL     1       1.498   2.893  20.309  0.00  0.00    +0.000 OA
ATOM     23  C   UNL     1       2.093   2.150  19.229  0.00  0.00    +0.000 C 
ATOM     24  C   UNL     1       2.111   2.974  17.933  0.00  0.00    +0.000 C 
ENDBRANCH  15  17
ENDBRANCH  14  15
ENDBRANCH   3  14
TORSDOF 4
ENDMDL
MODEL 4
REMARK VINA RESULT:      -7.3      5.162      6.518
REMARK  Name = 
REMARK  6 active torsions:
REMARK  status: ('A' for Active; 'I' for Inactive)
REMARK    1  A    between atoms: C_1  and  C_2
REMARK    2  A    between atoms: C_5  and  C_6
REMARK    3  A    between atoms: C_8  and  S_9
REMARK    4  A    between atoms: S_9  and  C_10
REMARK    5  A    between atoms: C_10  and  C_11
REMARK    6  A    between atoms: C_10  and  C_12
REMARK                            x       y       z     vdW  Elec       q    Type
REMARK                         _______ _______ _______ _____ _____    ______ ____
ROOT
ATOM      1  C   UNL     1       2.065   8.176  18.760  0.00  0.00    +0.000 A 
ATOM      2  N   UNL     1       2.965   8.157  17.789  0.00  0.00    +0.000 NA
ATOM      3  C   UNL     1       3.691   7.024  18.041  0.00  0.00    +0.000 A 
ATOM      4  N   UNL     1       3.297   6.333  19.112  0.00  0.00    +0.000 NA
ATOM      5  N   UNL     1       2.287   7.088  19.562  0.00  0.00    +0.000 N 
ATOM      6  H   UNL     1       1.814   6.824  20.418  0.00  0.00    +0.000 HD
ENDROOT
BRANCH   1  11
ATOM      7  C   UNL     1      -2.062  12.084  19.883  0.00  0.00    +0.000 C 
ATOM      8  C   UNL     1      -0.986  11.088  19.570  0.00  0.00    +0.000 A 
ATOM      9  C   UNL     1      -0.765  10.648  18.260  0.00  0.00    +0.000 A 
ATOM     10  C   UNL     1       0.234   9.707  17.984  0.00  0.00    +0.000 A 
ATOM     11  C   UNL     1       1.032   9.182  19.013  0.00  0.00    +0.000 A 
ATOM     12  C   UNL     1       0.818   9.641  20.317  0.00  0.00    +0.000 A 
ATOM     13  C   UNL     1      -0.184  10.578  20.596  0.00  0.00    +0.000 A 
ENDBRANCH   1  11
BRANCH   3  14
ATOM     14  S   UNL     1       5.022   6.458  17.074  0.00  0.00    +0.000 S 
BRANCH  14  15
ATOM     15  C   UNL     1       4.564   4.715  16.751  0.00  0.00    +0.000 C 
ATOM     16  C   UNL     1       5.365   4.142  15.581  0.00  0.00    +0.000 C 
BRANCH  15  17
ATOM     17  C   UNL     1       4.884   3.925  18.040  0.00  0.00    +0.000 C 
ATOM     18  O   UNL     1       5.943   4.122  18.647  0.00  0.00    +0.000 OA
ATOM     19  N   UNL     1       3.951   3.025  18.534  0.00  0.00    +0.000 N 
ATOM     20  C   UNL     1       2.666   2.660  17.930  0.00  0.00    +0.000 C 
ATOM     21  C   UNL     1       1.526   2.947  18.913  0.00  0.00    +0.000 C 
ATOM     22  O   UNL     1       1.737   2.259  20.157  0.00  0.00    +0.000 OA
ATOM     23  C   UNL     1       2.973   2.673  20.767  0.00  0.00    +0.000 C 
ATOM     24  C   UNL     1       4.167   2.395  19.842  0.00  0.00    +0.000 C 
ENDBRANCH  15  17
ENDBRANCH  14  15
ENDBRANCH   3  14
TORSDOF 4
ENDMDL
MODEL 5
REMARK VINA RESULT:      -7.3      5.295      6.634
REMARK  Name = 
REMARK  6 active torsions:
REMARK  status: ('A' for Active; 'I' for Inactive)
REMARK    1  A    between atoms: C_1  and  C_2
REMARK    2  A    between atoms: C_5  and  C_6
REMARK    3  A    between atoms: C_8  and  S_9
REMARK    4  A    between atoms: S_9  and  C_10
REMARK    5  A    between atoms: C_10  and  C_11
REMARK    6  A    between atoms: C_10  and  C_12
REMARK                            x       y       z     vdW  Elec       q    Type
REMARK                         _______ _______ _______ _____ _____    ______ ____
ROOT
ATOM      1  C   UNL     1       1.860   8.238  19.192  0.00  0.00    +0.000 A 
ATOM      2  N   UNL     1       2.698   8.082  18.180  0.00  0.00    +0.000 NA
ATOM      3  C   UNL     1       3.408   6.961  18.514  0.00  0.00    +0.000 A 
ATOM      4  N   UNL     1       3.062   6.406  19.677  0.00  0.00    +0.000 NA
ATOM      5  N   UNL     1       2.102   7.239  20.097  0.00  0.00    +0.000 N 
ATOM      6  H   UNL     1       1.675   7.087  21.003  0.00  0.00    +0.000 HD
ENDROOT
BRANCH   1  11
ATOM      7  C   UNL     1      -1.992  12.514  19.861  0.00  0.00    +0.000 C 
ATOM      8  C   UNL     1      -1.008  11.393  19.709  0.00  0.00    +0.000 A 
ATOM      9  C   UNL     1      -0.415  10.794  20.826  0.00  0.00    +0.000 A 
ATOM     10  C   UNL     1       0.512   9.757  20.668  0.00  0.00    +0.000 A 
ATOM     11  C   UNL     1       0.871   9.300  19.390  0.00  0.00    +0.000 A 
ATOM     12  C   UNL     1       0.260   9.892  18.279  0.00  0.00    +0.000 A 
ATOM     13  C   UNL     1      -0.664  10.931  18.434  0.00  0.00    +0.000 A 
ENDBRANCH   1  11
BRANCH   3  14
ATOM     14  S   UNL     1       4.661   6.247  17.541  0.00  0.00    +0.000 S 
BRANCH  14  15
ATOM     15  C   UNL     1       4.048   4.539  17.295  0.00  0.00    +0.000 C 
ATOM     16  C   UNL     1       4.770   3.856  16.133  0.00  0.00    +0.000 C 
BRANCH  15  17
ATOM     17  C   UNL     1       4.329   3.774  18.607  0.00  0.00    +0.000 C 
ATOM     18  O   UNL     1       5.447   3.823  19.134  0.00  0.00    +0.000 OA
ATOM     19  N   UNL     1       3.301   3.065  19.213  0.00  0.00    +0.000 N 
ATOM     20  C   UNL     1       1.934   2.887  18.715  0.00  0.00    +0.000 C 
ATOM     21  C   UNL     1       0.929   3.407  19.748  0.00  0.00    +0.000 C 
ATOM     22  O   UNL     1       1.115   2.757  21.016  0.00  0.00    +0.000 OA
ATOM     23  C   UNL     1       2.443   2.992  21.521  0.00  0.00    +0.000 C 
ATOM     24  C   UNL     1       3.507   2.475  20.542  0.00  0.00    +0.000 C 
ENDBRANCH  15  17
ENDBRANCH  14  15
ENDBRANCH   3  14
TORSDOF 4
ENDMDL
MODEL 6
REMARK VINA RESULT:      -7.2      4.649      7.287
REMARK  Name = 
REMARK  6 active torsions:
REMARK  status: ('A' for Active; 'I' for Inactive)
REMARK    1  A    between atoms: C_1  and  C_2
REMARK    2  A    between atoms: C_5  and  C_6
REMARK    3  A    between atoms: C_8  and  S_9
REMARK    4  A    between atoms: S_9  and  C_10
REMARK    5  A    between atoms: C_10  and  C_11
REMARK    6  A    between atoms: C_10  and  C_12
REMARK                            x       y       z     vdW  Elec       q    Type
REMARK                         _______ _______ _______ _____ _____    ______ ____
ROOT
ATOM      1  C   UNL     1       1.442   7.541  20.694  0.00  0.00    +0.000 A 
ATOM      2  N   UNL     1       1.128   6.269  20.879  0.00  0.00    +0.000 NA
ATOM      3  C   UNL     1       2.053   5.593  20.128  0.00  0.00    +0.000 A 
ATOM      4  N   UNL     1       2.926   6.369  19.485  0.00  0.00    +0.000 NA
ATOM      5  N   UNL     1       2.509   7.592  19.837  0.00  0.00    +0.000 N 
ATOM      6  H   UNL     1       2.972   8.405  19.448  0.00  0.00    +0.000 HD
ENDROOT
BRANCH   1  11
ATOM      7  C   UNL     1      -1.320  12.133  22.897  0.00  0.00    +0.000 C 
ATOM      8  C   UNL     1      -0.585  10.962  22.317  0.00  0.00    +0.000 A 
ATOM      9  C   UNL     1      -0.067  11.004  21.017  0.00  0.00    +0.000 A 
ATOM     10  C   UNL     1       0.604   9.898  20.483  0.00  0.00    +0.000 A 
ATOM     11  C   UNL     1       0.769   8.724  21.235  0.00  0.00    +0.000 A 
ATOM     12  C   UNL     1       0.266   8.696  22.540  0.00  0.00    +0.000 A 
ATOM     13  C   UNL     1      -0.410   9.800  23.074  0.00  0.00    +0.000 A 
ENDBRANCH   1  11
BRANCH   3  14
ATOM     14  S   UNL     1       2.153   3.862  19.993  0.00  0.00    +0.000 S 
BRANCH  14  15
ATOM     15  C   UNL     1       3.913   3.599  19.564  0.00  0.00    +0.000 C 
ATOM     16  C   UNL     1       4.420   2.263  20.110  0.00  0.00    +0.000 C 
BRANCH  15  17
ATOM     17  C   UNL     1       3.999   3.598  18.021  0.00  0.00    +0.000 C 
ATOM     18  O   UNL     1       3.070   3.145  17.343  0.00  0.00    +0.000 OA
ATOM     19  N   UNL     1       5.111   4.153  17.403  0.00  0.00    +0.000 N 
ATOM     20  C   UNL     1       6.301   4.709  18.054  0.00  0.00    +0.000 C 
ATOM     21  C   UNL     1       6.498   6.167  17.627  0.00  0.00    +0.000 C 
ATOM     22  O   UNL     1       6.582   6.275  16.196  0.00  0.00    +0.000 OA
ATOM     23  C   UNL     1       5.381   5.781  15.575  0.00  0.00    +0.000 C 
ATOM     24  C   UNL     1       5.131   4.312  15.944  0.00  0.00    +0.000 C 
ENDBRANCH  15  17
ENDBRANCH  14  15
ENDBRANCH   3  14
TORSDOF 4
ENDMDL
MODEL 7
REMARK VINA RESULT:      -7.2      5.226      6.504
REMARK  Name = 
REMARK  6 active torsions:
REMARK  status: ('A' for Active; 'I' for Inactive)
REMARK    1  A    between atoms: C_1  and  C_2
REMARK    2  A    between atoms: C_5  and  C_6
REMARK    3  A    between atoms: C_8  and  S_9
REMARK    4  A    between atoms: S_9  and  C_10
REMARK    5  A    between atoms: C_10  and  C_11
REMARK    6  A    between atoms: C_10  and  C_12
REMARK                            x       y       z     vdW  Elec       q    Type
REMARK                         _______ _______ _______ _____ _____    ______ ____
ROOT
ATOM      1  C   UNL     1       2.025   8.357  19.075  0.00  0.00    +0.000 A 
ATOM      2  N   UNL     1       2.999   7.474  19.230  0.00  0.00    +0.000 NA
ATOM      3  C   UNL     1       3.443   7.250  17.955  0.00  0.00    +0.000 A 
ATOM      4  N   UNL     1       2.804   7.943  17.011  0.00  0.00    +0.000 NA
ATOM      5  N   UNL     1       1.901   8.615  17.736  0.00  0.00    +0.000 N 
ATOM      6  H   UNL     1       1.227   9.206  17.264  0.00  0.00    +0.000 HD
ENDROOT
BRANCH   1  11
ATOM      7  C   UNL     1      -1.312  10.807  23.128  0.00  0.00    +0.000 C 
ATOM      8  C   UNL     1      -0.462  10.148  22.082  0.00  0.00    +0.000 A 
ATOM      9  C   UNL     1       0.080   8.875  22.288  0.00  0.00    +0.000 A 
ATOM     10  C   UNL     1       0.883   8.278  21.308  0.00  0.00    +0.000 A 
ATOM     11  C   UNL     1       1.166   8.943  20.105  0.00  0.00    +0.000 A 
ATOM     12  C   UNL     1       0.604  10.208  19.900  0.00  0.00    +0.000 A 
ATOM     13  C   UNL     1      -0.195  10.809  20.879  0.00  0.00    +0.000 A 
ENDBRANCH   1  11
BRANCH   3  14
ATOM     14  S   UNL     1       4.743   6.178  17.526  0.00  0.00    +0.000 S 
BRANCH  14  15
ATOM     15  C   UNL     1       3.903   4.554  17.429  0.00  0.00    +0.000 C 
ATOM     16  C   UNL     1       4.435   3.727  16.257  0.00  0.00    +0.000 C 
BRANCH  15  17
ATOM     17  C   UNL     1       4.194   3.823  18.759  0.00  0.00    +0.000 C 
ATOM     18  O   UNL     1       5.313   3.895  19.281  0.00  0.00    +0.000 OA
ATOM     19  N   UNL     1       3.174   3.121  19.385  0.00  0.00    +0.000 N 
ATOM     20  C   UNL     1       1.807   2.919  18.895  0.00  0.00    +0.000 C 
ATOM     21  C   UNL     1       0.800   3.455  19.917  0.00  0.00    +0.000 C 
ATOM     22  O   UNL     1       0.996   2.839  21.201  0.00  0.00    +0.000 OA
ATOM     23  C   UNL     1       2.322   3.097  21.696  0.00  0.00    +0.000 C 
ATOM     24  C   UNL     1       3.388   2.566  20.727  0.00  0.00    +0.000 C 
ENDBRANCH  15  17
ENDBRANCH  14  15
ENDBRANCH   3  14
TORSDOF 4
ENDMDL
MODEL 8
REMARK VINA RESULT:      -7.1      4.639      7.306
REMARK  Name = 
REMARK  6 active torsions:
REMARK  status: ('A' for Active; 'I' for Inactive)
REMARK    1  A    between atoms: C_1  and  C_2
REMARK    2  A    between atoms: C_5  and  C_6
REMARK    3  A    between atoms: C_8  and  S_9
REMARK    4  A    between atoms: S_9  and  C_10
REMARK    5  A    between atoms: C_10  and  C_11
REMARK    6  A    between atoms: C_10  and  C_12
REMARK                            x       y       z     vdW  Elec       q    Type
REMARK                         _______ _______ _______ _____ _____    ______ ____
ROOT
ATOM      1  C   UNL     1       1.443   7.487  20.573  0.00  0.00    +0.000 A 
ATOM      2  N   UNL     1       1.187   6.210  20.808  0.00  0.00    +0.000 NA
ATOM      3  C   UNL     1       2.065   5.546  19.994  0.00  0.00    +0.000 A 
ATOM      4  N   UNL     1       2.856   6.335  19.264  0.00  0.00    +0.000 NA
ATOM      5  N   UNL     1       2.432   7.551  19.628  0.00  0.00    +0.000 N 
ATOM      6  H   UNL     1       2.834   8.369  19.185  0.00  0.00    +0.000 HD
ENDROOT
BRANCH   1  11
ATOM      7  C   UNL     1      -1.075  12.217  22.776  0.00  0.00    +0.000 C 
ATOM      8  C   UNL     1      -0.443  10.977  22.218  0.00  0.00    +0.000 A 
ATOM      9  C   UNL     1      -0.269   9.835  23.008  0.00  0.00    +0.000 A 
ATOM     10  C   UNL     1       0.334   8.689  22.477  0.00  0.00    +0.000 A 
ATOM     11  C   UNL     1       0.782   8.661  21.147  0.00  0.00    +0.000 A 
ATOM     12  C   UNL     1       0.587   9.800  20.358  0.00  0.00    +0.000 A 
ATOM     13  C   UNL     1      -0.012  10.948  20.888  0.00  0.00    +0.000 A 
ENDBRANCH   1  11
BRANCH   3  14
ATOM     14  S   UNL     1       2.208   3.817  19.882  0.00  0.00    +0.000 S 
BRANCH  14  15
ATOM     15  C   UNL     1       3.985   3.589  19.504  0.00  0.00    +0.000 C 
ATOM     16  C   UNL     1       4.513   2.282  20.098  0.00  0.00    +0.000 C 
BRANCH  15  17
ATOM     17  C   UNL     1       4.109   3.549  17.964  0.00  0.00    +0.000 C 
ATOM     18  O   UNL     1       3.209   3.055  17.276  0.00  0.00    +0.000 OA
ATOM     19  N   UNL     1       5.222   4.115  17.358  0.00  0.00    +0.000 N 
ATOM     20  C   UNL     1       6.381   4.719  18.022  0.00  0.00    +0.000 C 
ATOM     21  C   UNL     1       6.553   6.169  17.560  0.00  0.00    +0.000 C 
ATOM     22  O   UNL     1       6.669   6.241  16.129  0.00  0.00    +0.000 OA
ATOM     23  C   UNL     1       5.497   5.701  15.493  0.00  0.00    +0.000 C 
ATOM     24  C   UNL     1       5.274   4.236  15.896  0.00  0.00    +0.000 C 
ENDBRANCH  15  17
ENDBRANCH  14  15
ENDBRANCH   3  14
TORSDOF 4
ENDMDL
MODEL 9
REMARK VINA RESULT:      -7.0      4.405      7.501
REMARK  Name = 
REMARK  6 active torsions:
REMARK  status: ('A' for Active; 'I' for Inactive)
REMARK    1  A    between atoms: C_1  and  C_2
REMARK    2  A    between atoms: C_5  and  C_6
REMARK    3  A    between atoms: C_8  and  S_9
REMARK    4  A    between atoms: S_9  and  C_10
REMARK    5  A    between atoms: C_10  and  C_11
REMARK    6  A    between atoms: C_10  and  C_12
REMARK                            x       y       z     vdW  Elec       q    Type
REMARK                         _______ _______ _______ _____ _____    ______ ____
ROOT
ATOM      1  C   UNL     1       1.198   8.665  20.722  0.00  0.00    +0.000 A 
ATOM      2  N   UNL     1       1.610   8.567  19.468  0.00  0.00    +0.000 NA
ATOM      3  C   UNL     1       2.214   7.339  19.418  0.00  0.00    +0.000 A 
ATOM      4  N   UNL     1       2.202   6.664  20.568  0.00  0.00    +0.000 NA
ATOM      5  N   UNL     1       1.578   7.526  21.380  0.00  0.00    +0.000 N 
ATOM      6  H   UNL     1       1.465   7.292  22.359  0.00  0.00    +0.000 HD
ENDROOT
BRANCH   1  11
ATOM      7  C   UNL     1      -1.655  13.020  23.265  0.00  0.00    +0.000 C 
ATOM      8  C   UNL     1      -0.894  11.909  22.605  0.00  0.00    +0.000 A 
ATOM      9  C   UNL     1      -0.103  12.146  21.475  0.00  0.00    +0.000 A 
ATOM     10  C   UNL     1       0.592  11.097  20.861  0.00  0.00    +0.000 A 
ATOM     11  C   UNL     1       0.507   9.788  21.360  0.00  0.00    +0.000 A 
ATOM     12  C   UNL     1      -0.271   9.562  22.501  0.00  0.00    +0.000 A 
ATOM     13  C   UNL     1      -0.970  10.609  23.114  0.00  0.00    +0.000 A 
ENDBRANCH   1  11
BRANCH   3  14
ATOM     14  S   UNL     1       2.941   6.644  18.000  0.00  0.00    +0.000 S 
BRANCH  14  15
ATOM     15  C   UNL     1       3.187   4.898  18.496  0.00  0.00    +0.000 C 
ATOM     16  C   UNL     1       1.850   4.166  18.621  0.00  0.00    +0.000 C 
BRANCH  15  17
ATOM     17  C   UNL     1       4.042   4.239  17.391  0.00  0.00    +0.000 C 
ATOM     18  O   UNL     1       3.526   3.461  16.580  0.00  0.00    +0.000 OA
ATOM     19  N   UNL     1       5.388   4.563  17.290  0.00  0.00    +0.000 N 
ATOM     20  C   UNL     1       6.156   5.444  18.175  0.00  0.00    +0.000 C 
ATOM     21  C   UNL     1       6.779   6.585  17.365  0.00  0.00    +0.000 C 
ATOM     22  O   UNL     1       7.593   6.072  16.298  0.00  0.00    +0.000 OA
ATOM     23  C   UNL     1       6.811   5.259  15.404  0.00  0.00    +0.000 C 
ATOM     24  C   UNL     1       6.171   4.078  16.147  0.00  0.00    +0.000 C 
ENDBRANCH  15  17
ENDBRANCH  14  15
ENDBRANCH   3  14
TORSDOF 4
ENDMDL
