MODEL 1
REMARK VINA RESULT:      -3.6      0.000      0.000
REMARK  Name = 
REMARK  1 active torsions:
REMARK  status: ('A' for Active; 'I' for Inactive)
REMARK    1  A    between atoms: C_3  and  C_4
REMARK                            x       y       z     vdW  Elec       q    Type
REMARK                         _______ _______ _______ _____ _____    ______ ____
ROOT
ATOM      1  C   UNL     1       2.668   4.662   9.092  0.00  0.00    +0.000 C 
ATOM      2  C   UNL     1       3.102   3.847  10.003  0.00  0.00    +0.000 C 
ATOM      3  C   UNL     1       3.562   3.041  10.915  0.00  0.00    +0.000 C 
ENDROOT
BRANCH   3   4
ATOM      4  C   UNL     1       4.807   3.286  11.695  0.00  0.00    +0.000 C 
ATOM      5 BR   UNL     1       6.019   1.794  11.409  0.00  0.00    +0.000 Br
ENDBRANCH   3   4
TORSDOF 1
ENDMDL
MODEL 2
REMARK VINA RESULT:      -3.6      1.093      1.093
REMARK  Name = 
REMARK  1 active torsions:
REMARK  status: ('A' for Active; 'I' for Inactive)
REMARK    1  A    between atoms: C_3  and  C_4
REMARK                            x       y       z     vdW  Elec       q    Type
REMARK                         _______ _______ _______ _____ _____    ______ ____
ROOT
ATOM      1  C   UNL     1       2.835   4.383   9.278  0.00  0.00    +0.000 C 
ATOM      2  C   UNL     1       3.322   3.767  10.311  0.00  0.00    +0.000 C 
ATOM      3  C   UNL     1       3.830   3.138  11.331  0.00  0.00    +0.000 C 
ENDROOT
BRANCH   3   4
ATOM      4  C   UNL     1       5.194   2.540  11.348  0.00  0.00    +0.000 C 
ATOM      5 BR   UNL     1       6.319   3.604  12.522  0.00  0.00    +0.000 Br
ENDBRANCH   3   4
TORSDOF 1
ENDMDL
MODEL 3
REMARK VINA RESULT:      -3.5      1.816      2.215
REMARK  Name = 
REMARK  1 active torsions:
REMARK  status: ('A' for Active; 'I' for Inactive)
REMARK    1  A    between atoms: C_3  and  C_4
REMARK                            x       y       z     vdW  Elec       q    Type
REMARK                         _______ _______ _______ _____ _____    ______ ____
ROOT
ATOM      1  C   UNL     1       3.281   3.688  10.317  0.00  0.00    +0.000 C 
ATOM      2  C   UNL     1       4.200   3.218  11.103  0.00  0.00    +0.000 C 
ATOM      3  C   UNL     1       5.138   2.765  11.883  0.00  0.00    +0.000 C 
ENDROOT
BRANCH   3   4
ATOM      4  C   UNL     1       6.349   3.541  12.269  0.00  0.00    +0.000 C 
ATOM      5 BR   UNL     1       6.174   4.075  14.129  0.00  0.00    +0.000 Br
ENDBRANCH   3   4
TORSDOF 1
ENDMDL
MODEL 4
REMARK VINA RESULT:      -3.4      0.707      1.161
REMARK  Name = 
REMARK  1 active torsions:
REMARK  status: ('A' for Active; 'I' for Inactive)
REMARK    1  A    between atoms: C_3  and  C_4
REMARK                            x       y       z     vdW  Elec       q    Type
REMARK                         _______ _______ _______ _____ _____    ______ ____
ROOT
ATOM      1  C   UNL     1       3.139   3.740   9.746  0.00  0.00    +0.000 C 
ATOM      2  C   UNL     1       3.820   3.519  10.828  0.00  0.00    +0.000 C 
ATOM      3  C   UNL     1       4.522   3.285  11.898  0.00  0.00    +0.000 C 
ENDROOT
BRANCH   3   4
ATOM      4  C   UNL     1       5.975   2.959  11.888  0.00  0.00    +0.000 C 
ATOM      5 BR   UNL     1       6.206   1.181  11.139  0.00  0.00    +0.000 Br
ENDBRANCH   3   4
TORSDOF 1
ENDMDL
MODEL 5
REMARK VINA RESULT:      -3.2      2.426      3.181
REMARK  Name = 
REMARK  1 active torsions:
REMARK  status: ('A' for Active; 'I' for Inactive)
REMARK    1  A    between atoms: C_3  and  C_4
REMARK                            x       y       z     vdW  Elec       q    Type
REMARK                         _______ _______ _______ _____ _____    ______ ____
ROOT
ATOM      1  C   UNL     1       3.904   3.251  11.202  0.00  0.00    +0.000 C 
ATOM      2  C   UNL     1       5.043   3.238  11.823  0.00  0.00    +0.000 C 
ATOM      3  C   UNL     1       6.182   3.251  12.451  0.00  0.00    +0.000 C 
ENDROOT
BRANCH   3   4
ATOM      4  C   UNL     1       6.620   4.344  13.363  0.00  0.00    +0.000 C 
ATOM      5 BR   UNL     1       5.938   3.972  15.144  0.00  0.00    +0.000 Br
ENDBRANCH   3   4
TORSDOF 1
ENDMDL
MODEL 6
REMARK VINA RESULT:      -3.2     18.200     18.451
REMARK  Name = 
REMARK  1 active torsions:
REMARK  status: ('A' for Active; 'I' for Inactive)
REMARK    1  A    between atoms: C_3  and  C_4
REMARK                            x       y       z     vdW  Elec       q    Type
REMARK                         _______ _______ _______ _____ _____    ______ ____
ROOT
ATOM      1  C   UNL     1       7.616   5.273  28.214  0.00  0.00    +0.000 C 
ATOM      2  C   UNL     1       8.719   4.735  27.792  0.00  0.00    +0.000 C 
ATOM      3  C   UNL     1       9.836   4.199  27.394  0.00  0.00    +0.000 C 
ENDROOT
BRANCH   3   4
ATOM      4  C   UNL     1      10.910   3.729  28.312  0.00  0.00    +0.000 C 
ATOM      5 BR   UNL     1      12.325   5.061  28.340  0.00  0.00    +0.000 Br
ENDBRANCH   3   4
TORSDOF 1
ENDMDL
MODEL 7
REMARK VINA RESULT:      -3.2      2.912      4.127
REMARK  Name = 
REMARK  1 active torsions:
REMARK  status: ('A' for Active; 'I' for Inactive)
REMARK    1  A    between atoms: C_3  and  C_4
REMARK                            x       y       z     vdW  Elec       q    Type
REMARK                         _______ _______ _______ _____ _____    ______ ____
ROOT
ATOM      1  C   UNL     1       6.048   4.076  14.854  0.00  0.00    +0.000 C 
ATOM      2  C   UNL     1       6.174   3.809  13.590  0.00  0.00    +0.000 C 
ATOM      3  C   UNL     1       6.287   3.517  12.327  0.00  0.00    +0.000 C 
ENDROOT
BRANCH   3   4
ATOM      4  C   UNL     1       5.490   2.464  11.639  0.00  0.00    +0.000 C 
ATOM      5 BR   UNL     1       3.830   3.256  11.012  0.00  0.00    +0.000 Br
ENDBRANCH   3   4
TORSDOF 1
ENDMDL
MODEL 8
REMARK VINA RESULT:      -3.2      9.272     10.175
REMARK  Name = 
REMARK  1 active torsions:
REMARK  status: ('A' for Active; 'I' for Inactive)
REMARK    1  A    between atoms: C_3  and  C_4
REMARK                            x       y       z     vdW  Elec       q    Type
REMARK                         _______ _______ _______ _____ _____    ______ ____
ROOT
ATOM      1  C   UNL     1       1.581   2.662  21.538  0.00  0.00    +0.000 C 
ATOM      2  C   UNL     1       1.631   3.861  21.045  0.00  0.00    +0.000 C 
ATOM      3  C   UNL     1       1.703   5.056  20.535  0.00  0.00    +0.000 C 
ENDROOT
BRANCH   3   4
ATOM      4  C   UNL     1       2.427   5.384  19.275  0.00  0.00    +0.000 C 
ATOM      5 BR   UNL     1       1.743   4.246  17.855  0.00  0.00    +0.000 Br
ENDBRANCH   3   4
TORSDOF 1
ENDMDL
MODEL 9
REMARK VINA RESULT:      -3.1     17.612     18.377
REMARK  Name = 
REMARK  1 active torsions:
REMARK  status: ('A' for Active; 'I' for Inactive)
REMARK    1  A    between atoms: C_3  and  C_4
REMARK                            x       y       z     vdW  Elec       q    Type
REMARK                         _______ _______ _______ _____ _____    ______ ____
ROOT
ATOM      1  C   UNL     1       7.702   4.372  27.293  0.00  0.00    +0.000 C 
ATOM      2  C   UNL     1       8.831   4.787  27.779  0.00  0.00    +0.000 C 
ATOM      3  C   UNL     1       9.977   5.181  28.255  0.00  0.00    +0.000 C 
ENDROOT
BRANCH   3   4
ATOM      4  C   UNL     1      11.297   4.712  27.750  0.00  0.00    +0.000 C 
ATOM      5 BR   UNL     1      11.780   3.087  28.699  0.00  0.00    +0.000 Br
ENDBRANCH   3   4
TORSDOF 1
ENDMDL
