MODEL 1
REMARK VINA RESULT:      -8.9      0.000      0.000
REMARK  Name = 
REMARK  9 active torsions:
REMARK  status: ('A' for Active; 'I' for Inactive)
REMARK    1  A    between atoms: C_1  and  C_2
REMARK    2  A    between atoms: C_6  and  O_7
REMARK    3  A    between atoms: C_9  and  C_10
REMARK    4  A    between atoms: C_14  and  O_15
REMARK    5  A    between atoms: C_17  and  C_18
REMARK    6  A    between atoms: N_20  and  C_21
REMARK    7  A    between atoms: C_21  and  C_22
REMARK    8  A    between atoms: C_25  and  C_26
REMARK    9  A    between atoms: C_30  and  C_31
REMARK                            x       y       z     vdW  Elec       q    Type
REMARK                         _______ _______ _______ _____ _____    ______ ____
ROOT
ATOM      1  C   UNL     1       4.893   4.682  19.234  0.00  0.00    +0.000 C 
ATOM      2  O   UNL     1       5.667   4.189  20.062  0.00  0.00    +0.000 OA
ATOM      3  N   UNL     1       5.340   5.444  18.186  0.00  0.00    +0.000 N 
ATOM      4  C   UNL     1       4.512   5.967  17.096  0.00  0.00    +0.000 C 
ATOM      5  C   UNL     1       5.361   5.817  15.841  0.00  0.00    +0.000 C 
ATOM      6  C   UNL     1       6.769   5.884  16.377  0.00  0.00    +0.000 C 
ATOM      7  C   UNL     1       6.777   5.397  17.808  0.00  0.00    +0.000 C 
ENDROOT
BRANCH   1  15
ATOM      8  C   UNL     1       4.235   2.326  17.270  0.00  0.00    +0.000 C 
ATOM      9  C   UNL     1       3.524   1.945  18.552  0.00  0.00    +0.000 C 
ATOM     10  O   UNL     1       3.270   0.762  18.780  0.00  0.00    +0.000 OA
ATOM     11  N   UNL     1       3.123   2.941  19.416  0.00  0.00    +0.000 N 
ATOM     12  C   UNL     1       2.307   2.648  20.581  0.00  0.00    +0.000 C 
ATOM     13  C   UNL     1       1.699   4.002  20.959  0.00  0.00    +0.000 C 
ATOM     14  C   UNL     1       2.777   5.000  20.560  0.00  0.00    +0.000 C 
ATOM     15  C   UNL     1       3.383   4.378  19.297  0.00  0.00    +0.000 C 
BRANCH  13  16
ATOM     16  O   UNL     1       0.516   4.284  20.208  0.00  0.00    +0.000 OA
ATOM     17  H   UNL     1      -0.162   4.614  20.823  0.00  0.00    +0.000 HD
ENDBRANCH  13  16
ENDBRANCH   1  15
BRANCH   7  18
ATOM     18  C   UNL     1       7.801   6.139  18.748  0.00  0.00    +0.000 C 
ATOM     19  O   UNL     1       8.322   5.562  19.713  0.00  0.00    +0.000 OA
ATOM     20  N   UNL     1       8.233   7.428  18.579  0.00  0.00    +0.000 N 
ATOM     21  H   UNL     1       8.930   7.627  19.288  0.00  0.00    +0.000 HD
BRANCH  20  22
ATOM     22  C   UNL     1       7.866   8.586  17.752  0.00  0.00    +0.000 C 
BRANCH  22  23
ATOM     23  C   UNL     1       8.497   9.879  18.240  0.00  0.00    +0.000 A 
ATOM     24  C   UNL     1       8.277  11.062  17.544  0.00  0.00    +0.000 A 
ATOM     25  C   UNL     1       8.938  12.240  17.920  0.00  0.00    +0.000 A 
ATOM     26  C   UNL     1       9.905  12.264  18.936  0.00  0.00    +0.000 A 
ATOM     27  C   UNL     1      10.119  11.071  19.630  0.00  0.00    +0.000 A 
ATOM     28  C   UNL     1       9.353   9.936  19.353  0.00  0.00    +0.000 A 
BRANCH  26  29
ATOM     29  C   UNL     1      10.639  13.500  19.277  0.00  0.00    +0.000 A 
ATOM     30  S   UNL     1      10.411  14.253  20.822  0.00  0.00    +0.000 S 
ATOM     31  C   UNL     1      11.487  15.497  20.386  0.00  0.00    +0.000 A 
ATOM     32  N   UNL     1      12.013  15.410  19.189  0.00  0.00    +0.000 NA
ATOM     33  C   UNL     1      11.540  14.274  18.544  0.00  0.00    +0.000 A 
ATOM     34  C   UNL     1      12.057  14.026  17.172  0.00  0.00    +0.000 C 
ENDBRANCH  26  29
ENDBRANCH  22  23
ENDBRANCH  20  22
ENDBRANCH   7  18
BRANCH   5  35
ATOM     35  O   UNL     1       5.117   4.601  15.157  0.00  0.00    +0.000 OA
ATOM     36  H   UNL     1       4.485   4.760  14.436  0.00  0.00    +0.000 HD
ENDBRANCH   5  35
TORSDOF 7
ENDMDL
MODEL 2
REMARK VINA RESULT:      -8.9      0.802      1.141
REMARK  Name = 
REMARK  9 active torsions:
REMARK  status: ('A' for Active; 'I' for Inactive)
REMARK    1  A    between atoms: C_1  and  C_2
REMARK    2  A    between atoms: C_6  and  O_7
REMARK    3  A    between atoms: C_9  and  C_10
REMARK    4  A    between atoms: C_14  and  O_15
REMARK    5  A    between atoms: C_17  and  C_18
REMARK    6  A    between atoms: N_20  and  C_21
REMARK    7  A    between atoms: C_21  and  C_22
REMARK    8  A    between atoms: C_25  and  C_26
REMARK    9  A    between atoms: C_30  and  C_31
REMARK                            x       y       z     vdW  Elec       q    Type
REMARK                         _______ _______ _______ _____ _____    ______ ____
ROOT
ATOM      1  C   UNL     1       4.897   4.762  19.221  0.00  0.00    +0.000 C 
ATOM      2  O   UNL     1       5.677   4.251  20.032  0.00  0.00    +0.000 OA
ATOM      3  N   UNL     1       5.337   5.537  18.179  0.00  0.00    +0.000 N 
ATOM      4  C   UNL     1       4.500   6.082  17.107  0.00  0.00    +0.000 C 
ATOM      5  C   UNL     1       5.334   5.946  15.841  0.00  0.00    +0.000 C 
ATOM      6  C   UNL     1       6.749   5.997  16.362  0.00  0.00    +0.000 C 
ATOM      7  C   UNL     1       6.769   5.488  17.785  0.00  0.00    +0.000 C 
ENDROOT
BRANCH   1  15
ATOM      8  C   UNL     1       4.205   2.435  17.233  0.00  0.00    +0.000 C 
ATOM      9  C   UNL     1       3.505   2.041  18.518  0.00  0.00    +0.000 C 
ATOM     10  O   UNL     1       3.246   0.857  18.732  0.00  0.00    +0.000 OA
ATOM     11  N   UNL     1       3.119   3.028  19.398  0.00  0.00    +0.000 N 
ATOM     12  C   UNL     1       2.313   2.725  20.568  0.00  0.00    +0.000 C 
ATOM     13  C   UNL     1       1.717   4.077  20.969  0.00  0.00    +0.000 C 
ATOM     14  C   UNL     1       2.796   5.073  20.573  0.00  0.00    +0.000 C 
ATOM     15  C   UNL     1       3.386   4.464  19.295  0.00  0.00    +0.000 C 
BRANCH  13  16
ATOM     16  O   UNL     1       0.528   4.375  20.235  0.00  0.00    +0.000 OA
ATOM     17  H   UNL     1      -0.207   4.463  20.868  0.00  0.00    +0.000 HD
ENDBRANCH  13  16
ENDBRANCH   1  15
BRANCH   7  18
ATOM     18  C   UNL     1       7.807   6.209  18.725  0.00  0.00    +0.000 C 
ATOM     19  O   UNL     1       8.339   5.613  19.673  0.00  0.00    +0.000 OA
ATOM     20  N   UNL     1       8.242   7.500  18.574  0.00  0.00    +0.000 N 
ATOM     21  H   UNL     1       8.949   7.683  19.278  0.00  0.00    +0.000 HD
BRANCH  20  22
ATOM     22  C   UNL     1       7.869   8.673  17.773  0.00  0.00    +0.000 C 
BRANCH  22  23
ATOM     23  C   UNL     1       8.505   9.957  18.281  0.00  0.00    +0.000 A 
ATOM     24  C   UNL     1       8.299  11.148  17.596  0.00  0.00    +0.000 A 
ATOM     25  C   UNL     1       8.966  12.317  17.990  0.00  0.00    +0.000 A 
ATOM     26  C   UNL     1       9.924  12.324  19.015  0.00  0.00    +0.000 A 
ATOM     27  C   UNL     1      10.123  11.122  19.699  0.00  0.00    +0.000 A 
ATOM     28  C   UNL     1       9.351   9.995  19.402  0.00  0.00    +0.000 A 
BRANCH  26  29
ATOM     29  C   UNL     1      10.663  13.550  19.376  0.00  0.00    +0.000 A 
ATOM     30  S   UNL     1      11.827  14.224  18.281  0.00  0.00    +0.000 S 
ATOM     31  C   UNL     1      12.183  15.455  19.400  0.00  0.00    +0.000 A 
ATOM     32  N   UNL     1      11.513  15.421  20.526  0.00  0.00    +0.000 NA
ATOM     33  C   UNL     1      10.640  14.340  20.527  0.00  0.00    +0.000 A 
ATOM     34  C   UNL     1       9.794  14.171  21.738  0.00  0.00    +0.000 C 
ENDBRANCH  26  29
ENDBRANCH  22  23
ENDBRANCH  20  22
ENDBRANCH   7  18
BRANCH   5  35
ATOM     35  O   UNL     1       5.076   4.743  15.140  0.00  0.00    +0.000 OA
ATOM     36  H   UNL     1       5.162   4.903  14.186  0.00  0.00    +0.000 HD
ENDBRANCH   5  35
TORSDOF 7
ENDMDL
MODEL 3
REMARK VINA RESULT:      -8.8      4.798      7.525
REMARK  Name = 
REMARK  9 active torsions:
REMARK  status: ('A' for Active; 'I' for Inactive)
REMARK    1  A    between atoms: C_1  and  C_2
REMARK    2  A    between atoms: C_6  and  O_7
REMARK    3  A    between atoms: C_9  and  C_10
REMARK    4  A    between atoms: C_14  and  O_15
REMARK    5  A    between atoms: C_17  and  C_18
REMARK    6  A    between atoms: N_20  and  C_21
REMARK    7  A    between atoms: C_21  and  C_22
REMARK    8  A    between atoms: C_25  and  C_26
REMARK    9  A    between atoms: C_30  and  C_31
REMARK                            x       y       z     vdW  Elec       q    Type
REMARK                         _______ _______ _______ _____ _____    ______ ____
ROOT
ATOM      1  C   UNL     1       4.701   4.505  17.830  0.00  0.00    +0.000 C 
ATOM      2  O   UNL     1       4.225   5.169  16.903  0.00  0.00    +0.000 OA
ATOM      3  N   UNL     1       3.953   3.593  18.529  0.00  0.00    +0.000 N 
ATOM      4  C   UNL     1       4.461   2.681  19.557  0.00  0.00    +0.000 C 
ATOM      5  C   UNL     1       3.730   1.366  19.322  0.00  0.00    +0.000 C 
ATOM      6  C   UNL     1       2.436   1.810  18.685  0.00  0.00    +0.000 C 
ATOM      7  C   UNL     1       2.664   3.118  17.963  0.00  0.00    +0.000 C 
ENDROOT
BRANCH   1  15
ATOM      8  C   UNL     1       6.401   3.656  15.334  0.00  0.00    +0.000 C 
ATOM      9  C   UNL     1       7.050   4.942  15.800  0.00  0.00    +0.000 C 
ATOM     10  O   UNL     1       7.695   5.624  15.002  0.00  0.00    +0.000 OA
ATOM     11  N   UNL     1       6.955   5.296  17.128  0.00  0.00    +0.000 N 
ATOM     12  C   UNL     1       7.682   6.435  17.662  0.00  0.00    +0.000 C 
ATOM     13  C   UNL     1       7.701   6.189  19.173  0.00  0.00    +0.000 C 
ATOM     14  C   UNL     1       6.385   5.471  19.433  0.00  0.00    +0.000 C 
ATOM     15  C   UNL     1       6.200   4.609  18.178  0.00  0.00    +0.000 C 
BRANCH  13  16
ATOM     16  O   UNL     1       8.775   5.329  19.559  0.00  0.00    +0.000 OA
ATOM     17  H   UNL     1       8.573   4.967  20.441  0.00  0.00    +0.000 HD
ENDBRANCH  13  16
ENDBRANCH   1  15
BRANCH   7  18
ATOM     18  C   UNL     1       1.441   4.111  18.005  0.00  0.00    +0.000 C 
ATOM     19  O   UNL     1       0.406   3.883  17.363  0.00  0.00    +0.000 OA
ATOM     20  N   UNL     1       1.383   5.257  18.754  0.00  0.00    +0.000 N 
ATOM     21  H   UNL     1       0.463   5.668  18.637  0.00  0.00    +0.000 HD
BRANCH  20  22
ATOM     22  C   UNL     1       2.314   6.075  19.542  0.00  0.00    +0.000 C 
BRANCH  22  23
ATOM     23  C   UNL     1       2.055   7.565  19.396  0.00  0.00    +0.000 A 
ATOM     24  C   UNL     1       1.470   8.271  20.440  0.00  0.00    +0.000 A 
ATOM     25  C   UNL     1       1.126   9.621  20.280  0.00  0.00    +0.000 A 
ATOM     26  C   UNL     1       1.266  10.288  19.053  0.00  0.00    +0.000 A 
ATOM     27  C   UNL     1       1.856   9.571  18.010  0.00  0.00    +0.000 A 
ATOM     28  C   UNL     1       2.333   8.274  18.215  0.00  0.00    +0.000 A 
BRANCH  26  29
ATOM     29  C   UNL     1       0.841  11.693  18.884  0.00  0.00    +0.000 A 
ATOM     30  S   UNL     1       1.992  12.980  19.044  0.00  0.00    +0.000 S 
ATOM     31  C   UNL     1       0.764  14.125  18.767  0.00  0.00    +0.000 A 
ATOM     32  N   UNL     1      -0.437  13.644  18.560  0.00  0.00    +0.000 NA
ATOM     33  C   UNL     1      -0.409  12.256  18.622  0.00  0.00    +0.000 A 
ATOM     34  C   UNL     1      -1.701  11.555  18.393  0.00  0.00    +0.000 C 
ENDBRANCH  26  29
ENDBRANCH  22  23
ENDBRANCH  20  22
ENDBRANCH   7  18
BRANCH   5  35
ATOM     35  O   UNL     1       4.451   0.481  18.484  0.00  0.00    +0.000 OA
ATOM     36  H   UNL     1       3.943  -0.340  18.374  0.00  0.00    +0.000 HD
ENDBRANCH   5  35
TORSDOF 7
ENDMDL
MODEL 4
REMARK VINA RESULT:      -8.7      4.932      7.370
REMARK  Name = 
REMARK  9 active torsions:
REMARK  status: ('A' for Active; 'I' for Inactive)
REMARK    1  A    between atoms: C_1  and  C_2
REMARK    2  A    between atoms: C_6  and  O_7
REMARK    3  A    between atoms: C_9  and  C_10
REMARK    4  A    between atoms: C_14  and  O_15
REMARK    5  A    between atoms: C_17  and  C_18
REMARK    6  A    between atoms: N_20  and  C_21
REMARK    7  A    between atoms: C_21  and  C_22
REMARK    8  A    between atoms: C_25  and  C_26
REMARK    9  A    between atoms: C_30  and  C_31
REMARK                            x       y       z     vdW  Elec       q    Type
REMARK                         _______ _______ _______ _____ _____    ______ ____
ROOT
ATOM      1  C   UNL     1       4.717   4.533  17.800  0.00  0.00    +0.000 C 
ATOM      2  O   UNL     1       4.261   5.206  16.869  0.00  0.00    +0.000 OA
ATOM      3  N   UNL     1       3.949   3.628  18.486  0.00  0.00    +0.000 N 
ATOM      4  C   UNL     1       4.433   2.707  19.517  0.00  0.00    +0.000 C 
ATOM      5  C   UNL     1       3.690   1.402  19.268  0.00  0.00    +0.000 C 
ATOM      6  C   UNL     1       2.410   1.863  18.617  0.00  0.00    +0.000 C 
ATOM      7  C   UNL     1       2.662   3.170  17.902  0.00  0.00    +0.000 C 
ENDROOT
BRANCH   1  15
ATOM      8  C   UNL     1       6.440   3.697  15.314  0.00  0.00    +0.000 C 
ATOM      9  C   UNL     1       7.096   4.971  15.804  0.00  0.00    +0.000 C 
ATOM     10  O   UNL     1       7.757   5.655  15.022  0.00  0.00    +0.000 OA
ATOM     11  N   UNL     1       6.987   5.311  17.135  0.00  0.00    +0.000 N 
ATOM     12  C   UNL     1       7.719   6.435  17.691  0.00  0.00    +0.000 C 
ATOM     13  C   UNL     1       7.717   6.171  19.199  0.00  0.00    +0.000 C 
ATOM     14  C   UNL     1       6.391   5.464  19.434  0.00  0.00    +0.000 C 
ATOM     15  C   UNL     1       6.212   4.619  18.167  0.00  0.00    +0.000 C 
BRANCH  13  16
ATOM     16  O   UNL     1       8.777   5.296  19.588  0.00  0.00    +0.000 OA
ATOM     17  H   UNL     1       8.970   4.701  18.843  0.00  0.00    +0.000 HD
ENDBRANCH  13  16
ENDBRANCH   1  15
BRANCH   7  18
ATOM     18  C   UNL     1       1.451   4.178  17.931  0.00  0.00    +0.000 C 
ATOM     19  O   UNL     1       0.415   3.957  17.287  0.00  0.00    +0.000 OA
ATOM     20  N   UNL     1       1.403   5.330  18.671  0.00  0.00    +0.000 N 
ATOM     21  H   UNL     1       0.489   5.751  18.547  0.00  0.00    +0.000 HD
BRANCH  20  22
ATOM     22  C   UNL     1       2.341   6.143  19.457  0.00  0.00    +0.000 C 
BRANCH  22  23
ATOM     23  C   UNL     1       2.036   7.630  19.379  0.00  0.00    +0.000 A 
ATOM     24  C   UNL     1       1.469   8.277  20.471  0.00  0.00    +0.000 A 
ATOM     25  C   UNL     1       1.083   9.622  20.376  0.00  0.00    +0.000 A 
ATOM     26  C   UNL     1       1.161  10.341  19.173  0.00  0.00    +0.000 A 
ATOM     27  C   UNL     1       1.734   9.682  18.083  0.00  0.00    +0.000 A 
ATOM     28  C   UNL     1       2.253   8.392  18.219  0.00  0.00    +0.000 A 
BRANCH  26  29
ATOM     29  C   UNL     1       0.692  11.738  19.075  0.00  0.00    +0.000 A 
ATOM     30  S   UNL     1      -0.952  12.136  19.454  0.00  0.00    +0.000 S 
ATOM     31  C   UNL     1      -0.657  13.767  19.068  0.00  0.00    +0.000 A 
ATOM     32  N   UNL     1       0.561  14.056  18.682  0.00  0.00    +0.000 NA
ATOM     33  C   UNL     1       1.344  12.908  18.682  0.00  0.00    +0.000 A 
ATOM     34  C   UNL     1       2.765  13.074  18.276  0.00  0.00    +0.000 C 
ENDBRANCH  26  29
ENDBRANCH  22  23
ENDBRANCH  20  22
ENDBRANCH   7  18
BRANCH   5  35
ATOM     35  O   UNL     1       4.411   0.510  18.437  0.00  0.00    +0.000 OA
ATOM     36  H   UNL     1       3.785  -0.012  17.908  0.00  0.00    +0.000 HD
ENDBRANCH   5  35
TORSDOF 7
ENDMDL
MODEL 5
REMARK VINA RESULT:      -8.4      4.863      7.870
REMARK  Name = 
REMARK  9 active torsions:
REMARK  status: ('A' for Active; 'I' for Inactive)
REMARK    1  A    between atoms: C_1  and  C_2
REMARK    2  A    between atoms: C_6  and  O_7
REMARK    3  A    between atoms: C_9  and  C_10
REMARK    4  A    between atoms: C_14  and  O_15
REMARK    5  A    between atoms: C_17  and  C_18
REMARK    6  A    between atoms: N_20  and  C_21
REMARK    7  A    between atoms: C_21  and  C_22
REMARK    8  A    between atoms: C_25  and  C_26
REMARK    9  A    between atoms: C_30  and  C_31
REMARK                            x       y       z     vdW  Elec       q    Type
REMARK                         _______ _______ _______ _____ _____    ______ ____
ROOT
ATOM      1  C   UNL     1       4.730   4.627  17.748  0.00  0.00    +0.000 C 
ATOM      2  O   UNL     1       4.284   5.349  16.849  0.00  0.00    +0.000 OA
ATOM      3  N   UNL     1       3.945   3.712  18.401  0.00  0.00    +0.000 N 
ATOM      4  C   UNL     1       4.413   2.738  19.390  0.00  0.00    +0.000 C 
ATOM      5  C   UNL     1       3.638   1.461  19.091  0.00  0.00    +0.000 C 
ATOM      6  C   UNL     1       2.366   1.978  18.467  0.00  0.00    +0.000 C 
ATOM      7  C   UNL     1       2.644   3.308  17.806  0.00  0.00    +0.000 C 
ENDROOT
BRANCH   1  15
ATOM      8  C   UNL     1       6.416   3.774  15.244  0.00  0.00    +0.000 C 
ATOM      9  C   UNL     1       7.112   5.022  15.748  0.00  0.00    +0.000 C 
ATOM     10  O   UNL     1       7.789   5.696  14.972  0.00  0.00    +0.000 OA
ATOM     11  N   UNL     1       7.019   5.346  17.084  0.00  0.00    +0.000 N 
ATOM     12  C   UNL     1       7.786   6.441  17.651  0.00  0.00    +0.000 C 
ATOM     13  C   UNL     1       7.783   6.157  19.155  0.00  0.00    +0.000 C 
ATOM     14  C   UNL     1       6.437   5.486  19.387  0.00  0.00    +0.000 C 
ATOM     15  C   UNL     1       6.228   4.663  18.110  0.00  0.00    +0.000 C 
BRANCH  13  16
ATOM     16  O   UNL     1       8.818   5.245  19.528  0.00  0.00    +0.000 OA
ATOM     17  H   UNL     1       9.358   5.665  20.222  0.00  0.00    +0.000 HD
ENDBRANCH  13  16
ENDBRANCH   1  15
BRANCH   7  18
ATOM     18  C   UNL     1       1.457   4.341  17.884  0.00  0.00    +0.000 C 
ATOM     19  O   UNL     1       0.464   4.235  17.151  0.00  0.00    +0.000 OA
ATOM     20  N   UNL     1       1.383   5.391  18.761  0.00  0.00    +0.000 N 
ATOM     21  H   UNL     1       0.489   5.852  18.633  0.00  0.00    +0.000 HD
BRANCH  20  22
ATOM     22  C   UNL     1       2.282   6.069  19.705  0.00  0.00    +0.000 C 
BRANCH  22  23
ATOM     23  C   UNL     1       1.864   7.502  19.988  0.00  0.00    +0.000 A 
ATOM     24  C   UNL     1       1.491   7.873  21.274  0.00  0.00    +0.000 A 
ATOM     25  C   UNL     1       1.000   9.162  21.528  0.00  0.00    +0.000 A 
ATOM     26  C   UNL     1       0.776  10.093  20.502  0.00  0.00    +0.000 A 
ATOM     27  C   UNL     1       1.154   9.711  19.212  0.00  0.00    +0.000 A 
ATOM     28  C   UNL     1       1.780   8.483  18.985  0.00  0.00    +0.000 A 
BRANCH  26  29
ATOM     29  C   UNL     1       0.199  11.424  20.777  0.00  0.00    +0.000 A 
ATOM     30  S   UNL     1       0.544  12.760  19.728  0.00  0.00    +0.000 S 
ATOM     31  C   UNL     1      -0.388  13.788  20.713  0.00  0.00    +0.000 A 
ATOM     32  N   UNL     1      -0.945  13.232  21.760  0.00  0.00    +0.000 NA
ATOM     33  C   UNL     1      -0.620  11.882  21.810  0.00  0.00    +0.000 A 
ATOM     34  C   UNL     1      -1.190  11.104  22.942  0.00  0.00    +0.000 C 
ENDBRANCH  26  29
ENDBRANCH  22  23
ENDBRANCH  20  22
ENDBRANCH   7  18
BRANCH   5  35
ATOM     35  O   UNL     1       4.334   0.589  18.219  0.00  0.00    +0.000 OA
ATOM     36  H   UNL     1       5.282   0.802  18.242  0.00  0.00    +0.000 HD
ENDBRANCH   5  35
TORSDOF 7
ENDMDL
MODEL 6
REMARK VINA RESULT:      -8.3      0.735      1.137
REMARK  Name = 
REMARK  9 active torsions:
REMARK  status: ('A' for Active; 'I' for Inactive)
REMARK    1  A    between atoms: C_1  and  C_2
REMARK    2  A    between atoms: C_6  and  O_7
REMARK    3  A    between atoms: C_9  and  C_10
REMARK    4  A    between atoms: C_14  and  O_15
REMARK    5  A    between atoms: C_17  and  C_18
REMARK    6  A    between atoms: N_20  and  C_21
REMARK    7  A    between atoms: C_21  and  C_22
REMARK    8  A    between atoms: C_25  and  C_26
REMARK    9  A    between atoms: C_30  and  C_31
REMARK                            x       y       z     vdW  Elec       q    Type
REMARK                         _______ _______ _______ _____ _____    ______ ____
ROOT
ATOM      1  C   UNL     1       4.888   4.711  19.245  0.00  0.00    +0.000 C 
ATOM      2  O   UNL     1       5.649   4.182  20.063  0.00  0.00    +0.000 OA
ATOM      3  N   UNL     1       5.353   5.501  18.226  0.00  0.00    +0.000 N 
ATOM      4  C   UNL     1       4.540   6.069  17.147  0.00  0.00    +0.000 C 
ATOM      5  C   UNL     1       5.398   5.949  15.895  0.00  0.00    +0.000 C 
ATOM      6  C   UNL     1       6.802   5.982  16.444  0.00  0.00    +0.000 C 
ATOM      7  C   UNL     1       6.792   5.449  17.859  0.00  0.00    +0.000 C 
ENDROOT
BRANCH   1  15
ATOM      8  C   UNL     1       4.217   2.436  17.192  0.00  0.00    +0.000 C 
ATOM      9  C   UNL     1       3.492   2.017  18.454  0.00  0.00    +0.000 C 
ATOM     10  O   UNL     1       3.222   0.830  18.636  0.00  0.00    +0.000 OA
ATOM     11  N   UNL     1       3.096   2.986  19.350  0.00  0.00    +0.000 N 
ATOM     12  C   UNL     1       2.267   2.661  20.498  0.00  0.00    +0.000 C 
ATOM     13  C   UNL     1       1.672   4.007  20.920  0.00  0.00    +0.000 C 
ATOM     14  C   UNL     1       2.765   5.006  20.566  0.00  0.00    +0.000 C 
ATOM     15  C   UNL     1       3.374   4.423  19.285  0.00  0.00    +0.000 C 
BRANCH  13  16
ATOM     16  O   UNL     1       0.499   4.330  20.171  0.00  0.00    +0.000 OA
ATOM     17  H   UNL     1       0.543   5.272  19.927  0.00  0.00    +0.000 HD
ENDBRANCH  13  16
ENDBRANCH   1  15
BRANCH   7  18
ATOM     18  C   UNL     1       7.816   6.149  18.831  0.00  0.00    +0.000 C 
ATOM     19  O   UNL     1       8.259   5.561  19.828  0.00  0.00    +0.000 OA
ATOM     20  N   UNL     1       8.332   7.406  18.659  0.00  0.00    +0.000 N 
ATOM     21  H   UNL     1       9.008   7.577  19.395  0.00  0.00    +0.000 HD
BRANCH  20  22
ATOM     22  C   UNL     1       8.071   8.566  17.797  0.00  0.00    +0.000 C 
BRANCH  22  23
ATOM     23  C   UNL     1       8.642   9.857  18.361  0.00  0.00    +0.000 A 
ATOM     24  C   UNL     1       9.166   9.877  19.648  0.00  0.00    +0.000 A 
ATOM     25  C   UNL     1       9.596  11.082  20.221  0.00  0.00    +0.000 A 
ATOM     26  C   UNL     1       9.438  12.317  19.573  0.00  0.00    +0.000 A 
ATOM     27  C   UNL     1       8.912  12.287  18.280  0.00  0.00    +0.000 A 
ATOM     28  C   UNL     1       8.622  11.072  17.655  0.00  0.00    +0.000 A 
BRANCH  26  29
ATOM     29  C   UNL     1       9.839  13.585  20.216  0.00  0.00    +0.000 A 
ATOM     30  S   UNL     1       9.687  13.781  21.932  0.00  0.00    +0.000 S 
ATOM     31  C   UNL     1      10.269  15.375  21.812  0.00  0.00    +0.000 A 
ATOM     32  N   UNL     1      10.575  15.787  20.607  0.00  0.00    +0.000 NA
ATOM     33  C   UNL     1      10.336  14.775  19.684  0.00  0.00    +0.000 A 
ATOM     34  C   UNL     1      10.648  15.086  18.264  0.00  0.00    +0.000 C 
ENDBRANCH  26  29
ENDBRANCH  22  23
ENDBRANCH  20  22
ENDBRANCH   7  18
BRANCH   5  35
ATOM     35  O   UNL     1       5.146   4.759  15.169  0.00  0.00    +0.000 OA
ATOM     36  H   UNL     1       4.956   4.039  15.792  0.00  0.00    +0.000 HD
ENDBRANCH   5  35
TORSDOF 7
ENDMDL
MODEL 7
REMARK VINA RESULT:      -8.1      8.740     11.750
REMARK  Name = 
REMARK  9 active torsions:
REMARK  status: ('A' for Active; 'I' for Inactive)
REMARK    1  A    between atoms: C_1  and  C_2
REMARK    2  A    between atoms: C_6  and  O_7
REMARK    3  A    between atoms: C_9  and  C_10
REMARK    4  A    between atoms: C_14  and  O_15
REMARK    5  A    between atoms: C_17  and  C_18
REMARK    6  A    between atoms: N_20  and  C_21
REMARK    7  A    between atoms: C_21  and  C_22
REMARK    8  A    between atoms: C_25  and  C_26
REMARK    9  A    between atoms: C_30  and  C_31
REMARK                            x       y       z     vdW  Elec       q    Type
REMARK                         _______ _______ _______ _____ _____    ______ ____
ROOT
ATOM      1  C   UNL     1      -2.962  12.934  21.125  0.00  0.00    +0.000 C 
ATOM      2  O   UNL     1      -3.858  12.448  20.426  0.00  0.00    +0.000 OA
ATOM      3  N   UNL     1      -1.692  13.126  20.647  0.00  0.00    +0.000 N 
ATOM      4  C   UNL     1      -0.604  13.801  21.360  0.00  0.00    +0.000 C 
ATOM      5  C   UNL     1       0.118  14.624  20.302  0.00  0.00    +0.000 C 
ATOM      6  C   UNL     1      -0.149  13.850  19.035  0.00  0.00    +0.000 C 
ATOM      7  C   UNL     1      -1.449  13.094  19.181  0.00  0.00    +0.000 C 
ENDROOT
BRANCH   1  15
ATOM      8  C   UNL     1      -3.942  15.911  20.978  0.00  0.00    +0.000 C 
ATOM      9  C   UNL     1      -4.946  15.239  21.891  0.00  0.00    +0.000 C 
ATOM     10  O   UNL     1      -6.074  15.716  22.013  0.00  0.00    +0.000 OA
ATOM     11  N   UNL     1      -4.555  14.133  22.616  0.00  0.00    +0.000 N 
ATOM     12  C   UNL     1      -5.424  13.540  23.617  0.00  0.00    +0.000 C 
ATOM     13  C   UNL     1      -4.476  12.709  24.486  0.00  0.00    +0.000 C 
ATOM     14  C   UNL     1      -3.408  12.247  23.505  0.00  0.00    +0.000 C 
ATOM     15  C   UNL     1      -3.268  13.438  22.550  0.00  0.00    +0.000 C 
BRANCH  13  16
ATOM     16  O   UNL     1      -3.853  13.498  25.501  0.00  0.00    +0.000 OA
ATOM     17  H   UNL     1      -3.896  13.004  26.339  0.00  0.00    +0.000 HD
ENDBRANCH  13  16
ENDBRANCH   1  15
BRANCH   7  18
ATOM     18  C   UNL     1      -1.475  11.689  18.470  0.00  0.00    +0.000 C 
ATOM     19  O   UNL     1      -2.270  11.448  17.550  0.00  0.00    +0.000 OA
ATOM     20  N   UNL     1      -0.630  10.648  18.753  0.00  0.00    +0.000 N 
ATOM     21  H   UNL     1      -0.829   9.891  18.107  0.00  0.00    +0.000 HD
BRANCH  20  22
ATOM     22  C   UNL     1       0.354  10.314  19.790  0.00  0.00    +0.000 C 
BRANCH  22  23
ATOM     23  C   UNL     1       1.294   9.196  19.369  0.00  0.00    +0.000 A 
ATOM     24  C   UNL     1       1.806   9.173  18.077  0.00  0.00    +0.000 A 
ATOM     25  C   UNL     1       2.587   8.092  17.642  0.00  0.00    +0.000 A 
ATOM     26  C   UNL     1       2.808   6.960  18.441  0.00  0.00    +0.000 A 
ATOM     27  C   UNL     1       2.291   6.993  19.738  0.00  0.00    +0.000 A 
ATOM     28  C   UNL     1       1.641   8.132  20.219  0.00  0.00    +0.000 A 
BRANCH  26  29
ATOM     29  C   UNL     1       3.580   5.802  17.944  0.00  0.00    +0.000 A 
ATOM     30  S   UNL     1       5.278   5.955  17.627  0.00  0.00    +0.000 S 
ATOM     31  C   UNL     1       5.336   4.336  17.106  0.00  0.00    +0.000 A 
ATOM     32  N   UNL     1       4.205   3.677  17.147  0.00  0.00    +0.000 NA
ATOM     33  C   UNL     1       3.192   4.500  17.624  0.00  0.00    +0.000 A 
ATOM     34  C   UNL     1       1.841   3.890  17.742  0.00  0.00    +0.000 C 
ENDBRANCH  26  29
ENDBRANCH  22  23
ENDBRANCH  20  22
ENDBRANCH   7  18
BRANCH   5  35
ATOM     35  O   UNL     1      -0.365  15.953  20.217  0.00  0.00    +0.000 OA
ATOM     36  H   UNL     1      -1.290  15.977  20.512  0.00  0.00    +0.000 HD
ENDBRANCH   5  35
TORSDOF 7
ENDMDL
MODEL 8
REMARK VINA RESULT:      -8.1      4.939      7.551
REMARK  Name = 
REMARK  9 active torsions:
REMARK  status: ('A' for Active; 'I' for Inactive)
REMARK    1  A    between atoms: C_1  and  C_2
REMARK    2  A    between atoms: C_6  and  O_7
REMARK    3  A    between atoms: C_9  and  C_10
REMARK    4  A    between atoms: C_14  and  O_15
REMARK    5  A    between atoms: C_17  and  C_18
REMARK    6  A    between atoms: N_20  and  C_21
REMARK    7  A    between atoms: C_21  and  C_22
REMARK    8  A    between atoms: C_25  and  C_26
REMARK    9  A    between atoms: C_30  and  C_31
REMARK                            x       y       z     vdW  Elec       q    Type
REMARK                         _______ _______ _______ _____ _____    ______ ____
ROOT
ATOM      1  C   UNL     1       4.748   4.621  17.680  0.00  0.00    +0.000 C 
ATOM      2  O   UNL     1       4.318   5.288  16.732  0.00  0.00    +0.000 OA
ATOM      3  N   UNL     1       3.950   3.748  18.374  0.00  0.00    +0.000 N 
ATOM      4  C   UNL     1       4.400   2.834  19.427  0.00  0.00    +0.000 C 
ATOM      5  C   UNL     1       3.626   1.544  19.194  0.00  0.00    +0.000 C 
ATOM      6  C   UNL     1       2.365   2.025  18.520  0.00  0.00    +0.000 C 
ATOM      7  C   UNL     1       2.657   3.312  17.785  0.00  0.00    +0.000 C 
ENDROOT
BRANCH   1  15
ATOM      8  C   UNL     1       6.478   3.788  15.198  0.00  0.00    +0.000 C 
ATOM      9  C   UNL     1       7.152   5.044  15.711  0.00  0.00    +0.000 C 
ATOM     10  O   UNL     1       7.831   5.728  14.945  0.00  0.00    +0.000 OA
ATOM     11  N   UNL     1       7.036   5.368  17.046  0.00  0.00    +0.000 N 
ATOM     12  C   UNL     1       7.783   6.472  17.623  0.00  0.00    +0.000 C 
ATOM     13  C   UNL     1       7.762   6.188  19.127  0.00  0.00    +0.000 C 
ATOM     14  C   UNL     1       6.422   5.500  19.341  0.00  0.00    +0.000 C 
ATOM     15  C   UNL     1       6.240   4.675  18.062  0.00  0.00    +0.000 C 
BRANCH  13  16
ATOM     16  O   UNL     1       8.804   5.289  19.515  0.00  0.00    +0.000 OA
ATOM     17  H   UNL     1       8.460   4.710  20.218  0.00  0.00    +0.000 HD
ENDBRANCH  13  16
ENDBRANCH   1  15
BRANCH   7  18
ATOM     18  C   UNL     1       1.472   4.351  17.782  0.00  0.00    +0.000 C 
ATOM     19  O   UNL     1       0.460   4.169  17.090  0.00  0.00    +0.000 OA
ATOM     20  N   UNL     1       1.421   5.489  18.543  0.00  0.00    +0.000 N 
ATOM     21  H   UNL     1       0.524   5.936  18.389  0.00  0.00    +0.000 HD
BRANCH  20  22
ATOM     22  C   UNL     1       2.344   6.261  19.386  0.00  0.00    +0.000 C 
BRANCH  22  23
ATOM     23  C   UNL     1       1.743   7.572  19.864  0.00  0.00    +0.000 A 
ATOM     24  C   UNL     1       1.561   8.618  18.967  0.00  0.00    +0.000 A 
ATOM     25  C   UNL     1       1.109   9.868  19.415  0.00  0.00    +0.000 A 
ATOM     26  C   UNL     1       0.912  10.148  20.776  0.00  0.00    +0.000 A 
ATOM     27  C   UNL     1       1.097   9.091  21.670  0.00  0.00    +0.000 A 
ATOM     28  C   UNL     1       1.403   7.809  21.207  0.00  0.00    +0.000 A 
BRANCH  26  29
ATOM     29  C   UNL     1       0.497  11.489  21.238  0.00  0.00    +0.000 A 
ATOM     30  S   UNL     1      -0.850  11.663  22.315  0.00  0.00    +0.000 S 
ATOM     31  C   UNL     1      -0.666  13.355  22.287  0.00  0.00    +0.000 A 
ATOM     32  N   UNL     1       0.314  13.816  21.550  0.00  0.00    +0.000 NA
ATOM     33  C   UNL     1       0.989  12.762  20.944  0.00  0.00    +0.000 A 
ATOM     34  C   UNL     1       2.143  13.123  20.079  0.00  0.00    +0.000 C 
ENDBRANCH  26  29
ENDBRANCH  22  23
ENDBRANCH  20  22
ENDBRANCH   7  18
BRANCH   5  35
ATOM     35  O   UNL     1       4.332   0.619  18.386  0.00  0.00    +0.000 OA
ATOM     36  H   UNL     1       5.001   0.167  18.927  0.00  0.00    +0.000 HD
ENDBRANCH   5  35
TORSDOF 7
ENDMDL
MODEL 9
REMARK VINA RESULT:      -8.1      4.968      7.969
REMARK  Name = 
REMARK  9 active torsions:
REMARK  status: ('A' for Active; 'I' for Inactive)
REMARK    1  A    between atoms: C_1  and  C_2
REMARK    2  A    between atoms: C_6  and  O_7
REMARK    3  A    between atoms: C_9  and  C_10
REMARK    4  A    between atoms: C_14  and  O_15
REMARK    5  A    between atoms: C_17  and  C_18
REMARK    6  A    between atoms: N_20  and  C_21
REMARK    7  A    between atoms: C_21  and  C_22
REMARK    8  A    between atoms: C_25  and  C_26
REMARK    9  A    between atoms: C_30  and  C_31
REMARK                            x       y       z     vdW  Elec       q    Type
REMARK                         _______ _______ _______ _____ _____    ______ ____
ROOT
ATOM      1  C   UNL     1       4.759   4.594  17.705  0.00  0.00    +0.000 C 
ATOM      2  O   UNL     1       4.316   5.253  16.758  0.00  0.00    +0.000 OA
ATOM      3  N   UNL     1       3.974   3.723  18.414  0.00  0.00    +0.000 N 
ATOM      4  C   UNL     1       4.439   2.818  19.468  0.00  0.00    +0.000 C 
ATOM      5  C   UNL     1       3.669   1.522  19.252  0.00  0.00    +0.000 C 
ATOM      6  C   UNL     1       2.398   1.993  18.590  0.00  0.00    +0.000 C 
ATOM      7  C   UNL     1       2.677   3.277  17.842  0.00  0.00    +0.000 C 
ENDROOT
BRANCH   1  15
ATOM      8  C   UNL     1       6.466   3.777  15.202  0.00  0.00    +0.000 C 
ATOM      9  C   UNL     1       7.137   5.037  15.709  0.00  0.00    +0.000 C 
ATOM     10  O   UNL     1       7.803   5.726  14.936  0.00  0.00    +0.000 OA
ATOM     11  N   UNL     1       7.036   5.357  17.046  0.00  0.00    +0.000 N 
ATOM     12  C   UNL     1       7.781   6.465  17.616  0.00  0.00    +0.000 C 
ATOM     13  C   UNL     1       7.780   6.179  19.120  0.00  0.00    +0.000 C 
ATOM     14  C   UNL     1       6.447   5.482  19.348  0.00  0.00    +0.000 C 
ATOM     15  C   UNL     1       6.256   4.658  18.069  0.00  0.00    +0.000 C 
BRANCH  13  16
ATOM     16  O   UNL     1       8.832   5.287  19.493  0.00  0.00    +0.000 OA
ATOM     17  H   UNL     1       9.520   5.323  18.806  0.00  0.00    +0.000 HD
ENDBRANCH  13  16
ENDBRANCH   1  15
BRANCH   7  18
ATOM     18  C   UNL     1       1.487   4.310  17.847  0.00  0.00    +0.000 C 
ATOM     19  O   UNL     1       0.524   4.184  17.076  0.00  0.00    +0.000 OA
ATOM     20  N   UNL     1       1.377   5.381  18.693  0.00  0.00    +0.000 N 
ATOM     21  H   UNL     1       0.489   5.838  18.518  0.00  0.00    +0.000 HD
BRANCH  20  22
ATOM     22  C   UNL     1       2.237   6.084  19.655  0.00  0.00    +0.000 C 
BRANCH  22  23
ATOM     23  C   UNL     1       1.703   7.457  20.026  0.00  0.00    +0.000 A 
ATOM     24  C   UNL     1       1.088   7.650  21.258  0.00  0.00    +0.000 A 
ATOM     25  C   UNL     1       0.495   8.882  21.570  0.00  0.00    +0.000 A 
ATOM     26  C   UNL     1       0.411   9.929  20.640  0.00  0.00    +0.000 A 
ATOM     27  C   UNL     1       1.032   9.726  19.405  0.00  0.00    +0.000 A 
ATOM     28  C   UNL     1       1.749   8.555  19.151  0.00  0.00    +0.000 A 
BRANCH  26  29
ATOM     29  C   UNL     1      -0.273  11.198  20.963  0.00  0.00    +0.000 A 
ATOM     30  S   UNL     1      -0.844  11.498  22.573  0.00  0.00    +0.000 S 
ATOM     31  C   UNL     1      -1.469  13.002  22.082  0.00  0.00    +0.000 A 
ATOM     32  N   UNL     1      -1.293  13.316  20.822  0.00  0.00    +0.000 NA
ATOM     33  C   UNL     1      -0.611  12.295  20.170  0.00  0.00    +0.000 A 
ATOM     34  C   UNL     1      -0.321  12.507  18.726  0.00  0.00    +0.000 C 
ENDBRANCH  26  29
ENDBRANCH  22  23
ENDBRANCH  20  22
ENDBRANCH   7  18
BRANCH   5  35
ATOM     35  O   UNL     1       4.371   0.596  18.442  0.00  0.00    +0.000 OA
ATOM     36  H   UNL     1       4.818   1.073  17.724  0.00  0.00    +0.000 HD
ENDBRANCH   5  35
TORSDOF 7
ENDMDL
