MODEL 1
REMARK VINA RESULT:      -7.3      0.000      0.000
REMARK  Name = 
REMARK  2 active torsions:
REMARK  status: ('A' for Active; 'I' for Inactive)
REMARK    1  A    between atoms: C_1  and  C_2
REMARK    2  A    between atoms: C_2  and  C_3
REMARK                            x       y       z     vdW  Elec       q    Type
REMARK                         _______ _______ _______ _____ _____    ______ ____
ROOT
ATOM      1  C   UNL     1       5.926   4.523  16.044  0.00  0.00    +0.000 C 
ATOM      2  C   UNL     1       7.036   4.468  17.151  0.00  0.00    +0.000 C 
ATOM      3  C   UNL     1       6.976   5.650  18.110  0.00  0.00    +0.000 C 
ATOM      4  C   UNL     1       6.731   6.917  17.303  0.00  0.00    +0.000 C 
ATOM      5  N   UNL     1       5.351   6.951  16.796  0.00  0.00    +0.000 NA
ATOM      6  C   UNL     1       4.516   7.722  17.777  0.00  0.00    +0.000 C 
ATOM      7  C   UNL     1       3.045   7.312  18.001  0.00  0.00    +0.000 C 
ATOM      8  C   UNL     1       3.012   5.841  18.153  0.00  0.00    +0.000 A 
ATOM      9  C   UNL     1       3.866   5.073  17.393  0.00  0.00    +0.000 A 
ATOM     10  N   UNL     1       3.733   3.754  17.748  0.00  0.00    +0.000 N 
ATOM     11  C   UNL     1       2.793   3.679  18.777  0.00  0.00    +0.000 A 
ATOM     12  C   UNL     1       2.304   2.577  19.506  0.00  0.00    +0.000 A 
ATOM     13  C   UNL     1       1.377   2.806  20.525  0.00  0.00    +0.000 A 
ATOM     14  C   UNL     1       0.939   4.092  20.817  0.00  0.00    +0.000 A 
ATOM     15  C   UNL     1       1.409   5.186  20.083  0.00  0.00    +0.000 A 
ATOM     16  C   UNL     1       2.339   4.979  19.044  0.00  0.00    +0.000 A 
ATOM     17  C   UNL     1       4.471   2.714  17.170  0.00  0.00    +0.000 C 
ATOM     18  O   UNL     1       4.386   1.563  17.591  0.00  0.00    +0.000 OA
ATOM     19  C   UNL     1       5.254   3.128  15.949  0.00  0.00    +0.000 C 
ATOM     20  C   UNL     1       4.836   5.607  16.386  0.00  0.00    +0.000 C 
ENDROOT
BRANCH   1  22
ATOM     21  C   UNL     1       6.278   3.907  13.496  0.00  0.00    +0.000 C 
ATOM     22  C   UNL     1       6.649   4.797  14.677  0.00  0.00    +0.000 C 
ENDBRANCH   1  22
TORSDOF 1
ENDMDL
MODEL 2
REMARK VINA RESULT:      -6.8      2.432      4.446
REMARK  Name = 
REMARK  2 active torsions:
REMARK  status: ('A' for Active; 'I' for Inactive)
REMARK    1  A    between atoms: C_1  and  C_2
REMARK    2  A    between atoms: C_2  and  C_3
REMARK                            x       y       z     vdW  Elec       q    Type
REMARK                         _______ _______ _______ _____ _____    ______ ____
ROOT
ATOM      1  C   UNL     1       4.362   4.656  17.648  0.00  0.00    +0.000 C 
ATOM      2  C   UNL     1       3.197   4.205  16.699  0.00  0.00    +0.000 C 
ATOM      3  C   UNL     1       2.076   3.485  17.438  0.00  0.00    +0.000 C 
ATOM      4  C   UNL     1       2.697   2.519  18.438  0.00  0.00    +0.000 C 
ATOM      5  N   UNL     1       3.294   3.251  19.565  0.00  0.00    +0.000 NA
ATOM      6  C   UNL     1       2.272   3.325  20.662  0.00  0.00    +0.000 C 
ATOM      7  C   UNL     1       2.222   4.578  21.563  0.00  0.00    +0.000 C 
ATOM      8  C   UNL     1       2.300   5.762  20.681  0.00  0.00    +0.000 A 
ATOM      9  C   UNL     1       3.102   5.711  19.563  0.00  0.00    +0.000 A 
ATOM     10  N   UNL     1       2.962   6.872  18.846  0.00  0.00    +0.000 N 
ATOM     11  C   UNL     1       2.029   7.674  19.505  0.00  0.00    +0.000 A 
ATOM     12  C   UNL     1       1.515   8.947  19.188  0.00  0.00    +0.000 A 
ATOM     13  C   UNL     1       0.545   9.505  20.024  0.00  0.00    +0.000 A 
ATOM     14  C   UNL     1       0.094   8.824  21.149  0.00  0.00    +0.000 A 
ATOM     15  C   UNL     1       0.616   7.568  21.474  0.00  0.00    +0.000 A 
ATOM     16  C   UNL     1       1.602   6.989  20.651  0.00  0.00    +0.000 A 
ATOM     17  C   UNL     1       3.636   7.132  17.645  0.00  0.00    +0.000 C 
ATOM     18  O   UNL     1       3.403   8.146  16.991  0.00  0.00    +0.000 OA
ATOM     19  C   UNL     1       4.717   6.132  17.325  0.00  0.00    +0.000 C 
ATOM     20  C   UNL     1       3.941   4.538  19.161  0.00  0.00    +0.000 C 
ENDROOT
BRANCH   1  22
ATOM     21  C   UNL     1       6.590   4.329  16.262  0.00  0.00    +0.000 C 
ATOM     22  C   UNL     1       5.613   3.776  17.294  0.00  0.00    +0.000 C 
ENDBRANCH   1  22
TORSDOF 1
ENDMDL
MODEL 3
REMARK VINA RESULT:      -6.4      8.243     10.936
REMARK  Name = 
REMARK  2 active torsions:
REMARK  status: ('A' for Active; 'I' for Inactive)
REMARK    1  A    between atoms: C_1  and  C_2
REMARK    2  A    between atoms: C_2  and  C_3
REMARK                            x       y       z     vdW  Elec       q    Type
REMARK                         _______ _______ _______ _____ _____    ______ ____
ROOT
ATOM      1  C   UNL     1      -1.711  13.195  21.916  0.00  0.00    +0.000 C 
ATOM      2  C   UNL     1      -1.238  14.502  21.190  0.00  0.00    +0.000 C 
ATOM      3  C   UNL     1      -0.003  14.285  20.325  0.00  0.00    +0.000 C 
ATOM      4  C   UNL     1       0.978  13.410  21.092  0.00  0.00    +0.000 C 
ATOM      5  N   UNL     1       0.492  12.024  21.163  0.00  0.00    +0.000 NA
ATOM      6  C   UNL     1       1.099  11.260  20.023  0.00  0.00    +0.000 C 
ATOM      7  C   UNL     1       0.281  10.139  19.347  0.00  0.00    +0.000 C 
ATOM      8  C   UNL     1      -1.081  10.664  19.111  0.00  0.00    +0.000 A 
ATOM      9  C   UNL     1      -1.645  11.502  20.047  0.00  0.00    +0.000 A 
ATOM     10  N   UNL     1      -2.865  11.937  19.594  0.00  0.00    +0.000 N 
ATOM     11  C   UNL     1      -3.076  11.387  18.329  0.00  0.00    +0.000 A 
ATOM     12  C   UNL     1      -4.149  11.523  17.427  0.00  0.00    +0.000 A 
ATOM     13  C   UNL     1      -4.073  10.875  16.192  0.00  0.00    +0.000 A 
ATOM     14  C   UNL     1      -2.964  10.108  15.855  0.00  0.00    +0.000 A 
ATOM     15  C   UNL     1      -1.906   9.957  16.755  0.00  0.00    +0.000 A 
ATOM     16  C   UNL     1      -1.963  10.593  18.011  0.00  0.00    +0.000 A 
ATOM     17  C   UNL     1      -3.693  12.813  20.308  0.00  0.00    +0.000 C 
ATOM     18  O   UNL     1      -4.731  13.250  19.817  0.00  0.00    +0.000 OA
ATOM     19  C   UNL     1      -3.245  13.054  21.727  0.00  0.00    +0.000 C 
ATOM     20  C   UNL     1      -0.993  11.924  21.325  0.00  0.00    +0.000 C 
ENDROOT
BRANCH   1  22
ATOM     21  C   UNL     1      -1.198  14.815  23.942  0.00  0.00    +0.000 C 
ATOM     22  C   UNL     1      -1.437  13.392  23.449  0.00  0.00    +0.000 C 
ENDBRANCH   1  22
TORSDOF 1
ENDMDL
MODEL 4
REMARK VINA RESULT:      -6.3      2.323      3.810
REMARK  Name = 
REMARK  2 active torsions:
REMARK  status: ('A' for Active; 'I' for Inactive)
REMARK    1  A    between atoms: C_1  and  C_2
REMARK    2  A    between atoms: C_2  and  C_3
REMARK                            x       y       z     vdW  Elec       q    Type
REMARK                         _______ _______ _______ _____ _____    ______ ____
ROOT
ATOM      1  C   UNL     1       3.797   3.764  18.560  0.00  0.00    +0.000 C 
ATOM      2  C   UNL     1       5.047   3.994  19.479  0.00  0.00    +0.000 C 
ATOM      3  C   UNL     1       5.840   5.239  19.099  0.00  0.00    +0.000 C 
ATOM      4  C   UNL     1       5.956   5.295  17.583  0.00  0.00    +0.000 C 
ATOM      5  N   UNL     1       4.662   5.643  16.976  0.00  0.00    +0.000 NA
ATOM      6  C   UNL     1       4.630   7.129  16.772  0.00  0.00    +0.000 C 
ATOM      7  C   UNL     1       3.292   7.883  16.922  0.00  0.00    +0.000 C 
ATOM      8  C   UNL     1       2.643   7.394  18.158  0.00  0.00    +0.000 A 
ATOM      9  C   UNL     1       2.762   6.063  18.492  0.00  0.00    +0.000 A 
ATOM     10  N   UNL     1       2.165   5.843  19.708  0.00  0.00    +0.000 N 
ATOM     11  C   UNL     1       1.676   7.064  20.175  0.00  0.00    +0.000 A 
ATOM     12  C   UNL     1       1.000   7.396  21.365  0.00  0.00    +0.000 A 
ATOM     13  C   UNL     1       0.656   8.731  21.590  0.00  0.00    +0.000 A 
ATOM     14  C   UNL     1       0.970   9.716  20.661  0.00  0.00    +0.000 A 
ATOM     15  C   UNL     1       1.626   9.386  19.471  0.00  0.00    +0.000 A 
ATOM     16  C   UNL     1       1.975   8.044  19.217  0.00  0.00    +0.000 A 
ATOM     17  C   UNL     1       2.122   4.592  20.338  0.00  0.00    +0.000 C 
ATOM     18  O   UNL     1       1.661   4.466  21.470  0.00  0.00    +0.000 OA
ATOM     19  C   UNL     1       2.573   3.452  19.462  0.00  0.00    +0.000 C 
ATOM     20  C   UNL     1       3.492   5.037  17.685  0.00  0.00    +0.000 C 
ENDROOT
BRANCH   1  22
ATOM     21  C   UNL     1       3.765   1.130  18.314  0.00  0.00    +0.000 C 
ATOM     22  C   UNL     1       4.089   2.486  17.695  0.00  0.00    +0.000 C 
ENDBRANCH   1  22
TORSDOF 1
ENDMDL
MODEL 5
REMARK VINA RESULT:      -6.2      9.241     11.228
REMARK  Name = 
REMARK  2 active torsions:
REMARK  status: ('A' for Active; 'I' for Inactive)
REMARK    1  A    between atoms: C_1  and  C_2
REMARK    2  A    between atoms: C_2  and  C_3
REMARK                            x       y       z     vdW  Elec       q    Type
REMARK                         _______ _______ _______ _____ _____    ______ ____
ROOT
ATOM      1  C   UNL     1      -3.434  11.050  17.077  0.00  0.00    +0.000 C 
ATOM      2  C   UNL     1      -3.223   9.581  17.585  0.00  0.00    +0.000 C 
ATOM      3  C   UNL     1      -2.259   9.494  18.761  0.00  0.00    +0.000 C 
ATOM      4  C   UNL     1      -1.075  10.410  18.486  0.00  0.00    +0.000 C 
ATOM      5  N   UNL     1      -1.472  11.821  18.607  0.00  0.00    +0.000 NA
ATOM      6  C   UNL     1      -1.164  12.270  20.006  0.00  0.00    +0.000 C 
ATOM      7  C   UNL     1      -2.090  13.300  20.688  0.00  0.00    +0.000 C 
ATOM      8  C   UNL     1      -3.485  12.872  20.446  0.00  0.00    +0.000 A 
ATOM      9  C   UNL     1      -3.808  12.304  19.234  0.00  0.00    +0.000 A 
ATOM     10  N   UNL     1      -5.121  11.904  19.252  0.00  0.00    +0.000 N 
ATOM     11  C   UNL     1      -5.642  12.198  20.513  0.00  0.00    +0.000 A 
ATOM     12  C   UNL     1      -6.923  11.981  21.058  0.00  0.00    +0.000 A 
ATOM     13  C   UNL     1      -7.157  12.349  22.385  0.00  0.00    +0.000 A 
ATOM     14  C   UNL     1      -6.151  12.919  23.157  0.00  0.00    +0.000 A 
ATOM     15  C   UNL     1      -4.884  13.151  22.612  0.00  0.00    +0.000 A 
ATOM     16  C   UNL     1      -4.627  12.798  21.272  0.00  0.00    +0.000 A 
ATOM     17  C   UNL     1      -5.759  11.279  18.173  0.00  0.00    +0.000 C 
ATOM     18  O   UNL     1      -6.907  10.852  18.274  0.00  0.00    +0.000 OA
ATOM     19  C   UNL     1      -4.956  11.296  16.897  0.00  0.00    +0.000 C 
ATOM     20  C   UNL     1      -2.853  12.096  18.101  0.00  0.00    +0.000 C 
ENDROOT
BRANCH   1  22
ATOM     21  C   UNL     1      -3.179  10.119  14.615  0.00  0.00    +0.000 C 
ATOM     22  C   UNL     1      -2.766  11.149  15.660  0.00  0.00    +0.000 C 
ENDBRANCH   1  22
TORSDOF 1
ENDMDL
MODEL 6
REMARK VINA RESULT:      -6.2      2.273      4.147
REMARK  Name = 
REMARK  2 active torsions:
REMARK  status: ('A' for Active; 'I' for Inactive)
REMARK    1  A    between atoms: C_1  and  C_2
REMARK    2  A    between atoms: C_2  and  C_3
REMARK                            x       y       z     vdW  Elec       q    Type
REMARK                         _______ _______ _______ _____ _____    ______ ____
ROOT
ATOM      1  C   UNL     1       4.011   3.874  18.778  0.00  0.00    +0.000 C 
ATOM      2  C   UNL     1       5.138   4.255  19.799  0.00  0.00    +0.000 C 
ATOM      3  C   UNL     1       6.106   5.296  19.252  0.00  0.00    +0.000 C 
ATOM      4  C   UNL     1       6.437   4.939  17.810  0.00  0.00    +0.000 C 
ATOM      5  N   UNL     1       5.287   5.199  16.933  0.00  0.00    +0.000 NA
ATOM      6  C   UNL     1       5.445   6.576  16.357  0.00  0.00    +0.000 C 
ATOM      7  C   UNL     1       4.188   7.432  16.091  0.00  0.00    +0.000 C 
ATOM      8  C   UNL     1       3.325   7.336  17.288  0.00  0.00    +0.000 A 
ATOM      9  C   UNL     1       3.251   6.137  17.963  0.00  0.00    +0.000 A 
ATOM     10  N   UNL     1       2.470   6.290  19.081  0.00  0.00    +0.000 N 
ATOM     11  C   UNL     1       2.056   7.622  19.137  0.00  0.00    +0.000 A 
ATOM     12  C   UNL     1       1.260   8.305  20.078  0.00  0.00    +0.000 A 
ATOM     13  C   UNL     1       1.035   9.671  19.899  0.00  0.00    +0.000 A 
ATOM     14  C   UNL     1       1.581  10.349  18.815  0.00  0.00    +0.000 A 
ATOM     15  C   UNL     1       2.356   9.670  17.871  0.00  0.00    +0.000 A 
ATOM     16  C   UNL     1       2.589   8.289  18.025  0.00  0.00    +0.000 A 
ATOM     17  C   UNL     1       2.203   5.259  19.991  0.00  0.00    +0.000 C 
ATOM     18  O   UNL     1       1.578   5.471  21.027  0.00  0.00    +0.000 OA
ATOM     19  C   UNL     1       2.646   3.898  19.516  0.00  0.00    +0.000 C 
ATOM     20  C   UNL     1       3.970   4.885  17.571  0.00  0.00    +0.000 C 
ENDROOT
BRANCH   1  22
ATOM     21  C   UNL     1       3.146   1.390  18.498  0.00  0.00    +0.000 C 
ATOM     22  C   UNL     1       4.280   2.395  18.324  0.00  0.00    +0.000 C 
ENDBRANCH   1  22
TORSDOF 1
ENDMDL
MODEL 7
REMARK VINA RESULT:      -6.1      2.334      4.942
REMARK  Name = 
REMARK  2 active torsions:
REMARK  status: ('A' for Active; 'I' for Inactive)
REMARK    1  A    between atoms: C_1  and  C_2
REMARK    2  A    between atoms: C_2  and  C_3
REMARK                            x       y       z     vdW  Elec       q    Type
REMARK                         _______ _______ _______ _____ _____    ______ ____
ROOT
ATOM      1  C   UNL     1       3.864   3.821  18.243  0.00  0.00    +0.000 C 
ATOM      2  C   UNL     1       2.792   3.452  17.159  0.00  0.00    +0.000 C 
ATOM      3  C   UNL     1       1.368   3.485  17.699  0.00  0.00    +0.000 C 
ATOM      4  C   UNL     1       1.356   2.831  19.073  0.00  0.00    +0.000 C 
ATOM      5  N   UNL     1       2.007   3.698  20.067  0.00  0.00    +0.000 NA
ATOM      6  C   UNL     1       0.942   4.521  20.732  0.00  0.00    +0.000 C 
ATOM      7  C   UNL     1       1.269   5.963  21.174  0.00  0.00    +0.000 C 
ATOM      8  C   UNL     1       1.977   6.620  20.054  0.00  0.00    +0.000 A 
ATOM      9  C   UNL     1       2.858   5.882  19.297  0.00  0.00    +0.000 A 
ATOM     10  N   UNL     1       3.335   6.654  18.268  0.00  0.00    +0.000 N 
ATOM     11  C   UNL     1       2.726   7.907  18.353  0.00  0.00    +0.000 A 
ATOM     12  C   UNL     1       2.848   9.053  17.542  0.00  0.00    +0.000 A 
ATOM     13  C   UNL     1       2.074  10.175  17.847  0.00  0.00    +0.000 A 
ATOM     14  C   UNL     1       1.200  10.168  18.928  0.00  0.00    +0.000 A 
ATOM     15  C   UNL     1       1.091   9.038  19.744  0.00  0.00    +0.000 A 
ATOM     16  C   UNL     1       1.868   7.897  19.463  0.00  0.00    +0.000 A 
ATOM     17  C   UNL     1       4.245   6.195  17.307  0.00  0.00    +0.000 C 
ATOM     18  O   UNL     1       4.566   6.895  16.349  0.00  0.00    +0.000 OA
ATOM     19  C   UNL     1       4.849   4.853  17.632  0.00  0.00    +0.000 C 
ATOM     20  C   UNL     1       3.188   4.440  19.524  0.00  0.00    +0.000 C 
ENDROOT
BRANCH   1  22
ATOM     21  C   UNL     1       4.746   2.061  20.008  0.00  0.00    +0.000 C 
ATOM     22  C   UNL     1       4.676   2.514  18.554  0.00  0.00    +0.000 C 
ENDBRANCH   1  22
TORSDOF 1
ENDMDL
MODEL 8
REMARK VINA RESULT:      -6.1      7.564     10.242
REMARK  Name = 
REMARK  2 active torsions:
REMARK  status: ('A' for Active; 'I' for Inactive)
REMARK    1  A    between atoms: C_1  and  C_2
REMARK    2  A    between atoms: C_2  and  C_3
REMARK                            x       y       z     vdW  Elec       q    Type
REMARK                         _______ _______ _______ _____ _____    ______ ____
ROOT
ATOM      1  C   UNL     1      -1.323  12.261  21.122  0.00  0.00    +0.000 C 
ATOM      2  C   UNL     1      -0.813  13.631  20.555  0.00  0.00    +0.000 C 
ATOM      3  C   UNL     1       0.307  13.471  19.535  0.00  0.00    +0.000 C 
ATOM      4  C   UNL     1       1.281  12.418  20.046  0.00  0.00    +0.000 C 
ATOM      5  N   UNL     1       0.687  11.076  19.961  0.00  0.00    +0.000 NA
ATOM      6  C   UNL     1       1.111  10.464  18.658  0.00  0.00    +0.000 C 
ATOM      7  C   UNL     1       0.138   9.525  17.914  0.00  0.00    +0.000 C 
ATOM      8  C   UNL     1      -1.191  10.173  17.912  0.00  0.00    +0.000 A 
ATOM      9  C   UNL     1      -1.586  10.888  19.021  0.00  0.00    +0.000 A 
ATOM     10  N   UNL     1      -2.803  11.473  18.778  0.00  0.00    +0.000 N 
ATOM     11  C   UNL     1      -3.183  11.148  17.475  0.00  0.00    +0.000 A 
ATOM     12  C   UNL     1      -4.325  11.501  16.729  0.00  0.00    +0.000 A 
ATOM     13  C   UNL     1      -4.427  11.055  15.409  0.00  0.00    +0.000 A 
ATOM     14  C   UNL     1      -3.426  10.276  14.839  0.00  0.00    +0.000 A 
ATOM     15  C   UNL     1      -2.301   9.910  15.583  0.00  0.00    +0.000 A 
ATOM     16  C   UNL     1      -2.180  10.340  16.920  0.00  0.00    +0.000 A 
ATOM     17  C   UNL     1      -3.478  12.279  19.703  0.00  0.00    +0.000 C 
ATOM     18  O   UNL     1      -4.519  12.859  19.402  0.00  0.00    +0.000 OA
ATOM     19  C   UNL     1      -2.874  12.258  21.084  0.00  0.00    +0.000 C 
ATOM     20  C   UNL     1      -0.777  11.054  20.269  0.00  0.00    +0.000 C 
ENDROOT
BRANCH   1  22
ATOM     21  C   UNL     1      -0.910  10.825  23.304  0.00  0.00    +0.000 C 
ATOM     22  C   UNL     1      -0.882  12.191  22.627  0.00  0.00    +0.000 C 
ENDBRANCH   1  22
TORSDOF 1
ENDMDL
MODEL 9
REMARK VINA RESULT:      -6.1      9.083     11.696
REMARK  Name = 
REMARK  2 active torsions:
REMARK  status: ('A' for Active; 'I' for Inactive)
REMARK    1  A    between atoms: C_1  and  C_2
REMARK    2  A    between atoms: C_2  and  C_3
REMARK                            x       y       z     vdW  Elec       q    Type
REMARK                         _______ _______ _______ _____ _____    ______ ____
ROOT
ATOM      1  C   UNL     1       9.907  11.846  19.030  0.00  0.00    +0.000 C 
ATOM      2  C   UNL     1      11.423  11.599  19.344  0.00  0.00    +0.000 C 
ATOM      3  C   UNL     1      12.332  12.672  18.758  0.00  0.00    +0.000 C 
ATOM      4  C   UNL     1      11.861  12.986  17.345  0.00  0.00    +0.000 C 
ATOM      5  N   UNL     1      10.596  13.735  17.373  0.00  0.00    +0.000 NA
ATOM      6  C   UNL     1      10.923  15.199  17.314  0.00  0.00    +0.000 C 
ATOM      7  C   UNL     1      10.031  16.203  18.074  0.00  0.00    +0.000 C 
ATOM      8  C   UNL     1       9.801  15.654  19.429  0.00  0.00    +0.000 A 
ATOM      9  C   UNL     1       9.647  14.294  19.580  0.00  0.00    +0.000 A 
ATOM     10  N   UNL     1       9.532  13.994  20.914  0.00  0.00    +0.000 N 
ATOM     11  C   UNL     1       9.642  15.185  21.634  0.00  0.00    +0.000 A 
ATOM     12  C   UNL     1       9.609  15.435  23.020  0.00  0.00    +0.000 A 
ATOM     13  C   UNL     1       9.785  16.745  23.469  0.00  0.00    +0.000 A 
ATOM     14  C   UNL     1       9.987  17.787  22.571  0.00  0.00    +0.000 A 
ATOM     15  C   UNL     1      10.002  17.544  21.194  0.00  0.00    +0.000 A 
ATOM     16  C   UNL     1       9.817  16.231  20.717  0.00  0.00    +0.000 A 
ATOM     17  C   UNL     1       9.374  12.693  21.408  0.00  0.00    +0.000 C 
ATOM     18  O   UNL     1       9.373  12.466  22.616  0.00  0.00    +0.000 OA
ATOM     19  C   UNL     1       9.095  11.666  20.341  0.00  0.00    +0.000 C 
ATOM     20  C   UNL     1       9.671  13.297  18.465  0.00  0.00    +0.000 C 
ENDROOT
BRANCH   1  22
ATOM     21  C   UNL     1       8.716   9.521  18.613  0.00  0.00    +0.000 C 
ATOM     22  C   UNL     1       9.453  10.723  18.031  0.00  0.00    +0.000 C 
ENDBRANCH   1  22
TORSDOF 1
ENDMDL
