MODEL 1
REMARK VINA RESULT:      -7.7      0.000      0.000
REMARK  Name = 
REMARK  6 active torsions:
REMARK  status: ('A' for Active; 'I' for Inactive)
REMARK    1  A    between atoms: C_1  and  O_2
REMARK    2  A    between atoms: O_2  and  C_3
REMARK    3  A    between atoms: C_6  and  C_7
REMARK    4  A    between atoms: C_7  and  N_8
REMARK    5  A    between atoms: C_14  and  N_15
REMARK    6  A    between atoms: N_18  and  C_19
REMARK                            x       y       z     vdW  Elec       q    Type
REMARK                         _______ _______ _______ _____ _____    ______ ____
ROOT
ATOM      1  N   UNL     1       2.376   8.101  18.722  0.00  0.00    +0.000 N 
ATOM      2  C   UNL     1       1.932   9.350  18.350  0.00  0.00    +0.000 C 
ATOM      3  O   UNL     1       2.214   9.854  17.267  0.00  0.00    +0.000 OA
ATOM      4  N   UNL     1       1.127   9.966  19.275  0.00  0.00    +0.000 N 
ATOM      5  C   UNL     1       0.822   9.544  20.625  0.00  0.00    +0.000 C 
ATOM      6  C   UNL     1      -0.598  10.016  20.805  0.00  0.00    +0.000 C 
ATOM      7  C   UNL     1      -0.667  11.364  20.058  0.00  0.00    +0.000 C 
ATOM      8  C   UNL     1       0.433  11.221  18.975  0.00  0.00    +0.000 C 
ATOM      9  H   UNL     1       1.679   7.575  19.224  0.00  0.00    +0.000 HD
ENDROOT
BRANCH   7  10
ATOM     10  N   UNL     1      -2.026  11.650  19.622  0.00  0.00    +0.000 N 
ATOM     11  C   UNL     1      -2.942  12.460  20.338  0.00  0.00    +0.000 A 
ATOM     12  O   UNL     1      -2.780  12.986  21.428  0.00  0.00    +0.000 OA
ATOM     13  N   UNL     1      -4.109  12.539  19.557  0.00  0.00    +0.000 N 
ATOM     14  C   UNL     1      -5.312  13.225  19.927  0.00  0.00    +0.000 C 
ATOM     15  C   UNL     1      -3.885  11.866  18.361  0.00  0.00    +0.000 A 
ATOM     16  C   UNL     1      -4.716  11.683  17.275  0.00  0.00    +0.000 A 
ATOM     17  C   UNL     1      -4.182  10.966  16.206  0.00  0.00    +0.000 A 
ATOM     18  C   UNL     1      -2.868  10.491  16.289  0.00  0.00    +0.000 A 
ATOM     19  N   UNL     1      -2.042  10.673  17.354  0.00  0.00    +0.000 NA
ATOM     20  C   UNL     1      -2.591  11.345  18.375  0.00  0.00    +0.000 A 
ENDBRANCH   7  10
BRANCH   1  21
ATOM     21  C   UNL     1       3.150   7.316  17.785  0.00  0.00    +0.000 C 
BRANCH  21  25
ATOM     22  C   UNL     1       3.405   3.137  18.945  0.00  0.00    +0.000 A 
ATOM     23  C   UNL     1       4.467   4.010  19.173  0.00  0.00    +0.000 A 
ATOM     24  C   UNL     1       4.378   5.356  18.800  0.00  0.00    +0.000 A 
ATOM     25  C   UNL     1       3.227   5.855  18.173  0.00  0.00    +0.000 A 
ATOM     26  C   UNL     1       2.170   4.968  17.932  0.00  0.00    +0.000 A 
ATOM     27  C   UNL     1       2.256   3.619  18.313  0.00  0.00    +0.000 A 
BRANCH  22  29
ATOM     28  C   UNL     1       4.651   1.646  20.291  0.00  0.00    +0.000 C 
ATOM     29  O   UNL     1       3.605   1.845  19.344  0.00  0.00    +0.000 OA
ENDBRANCH  22  29
ENDBRANCH  21  25
ENDBRANCH   1  21
TORSDOF 4
ENDMDL
MODEL 2
REMARK VINA RESULT:      -7.7      5.993      9.554
REMARK  Name = 
REMARK  6 active torsions:
REMARK  status: ('A' for Active; 'I' for Inactive)
REMARK    1  A    between atoms: C_1  and  O_2
REMARK    2  A    between atoms: O_2  and  C_3
REMARK    3  A    between atoms: C_6  and  C_7
REMARK    4  A    between atoms: C_7  and  N_8
REMARK    5  A    between atoms: C_14  and  N_15
REMARK    6  A    between atoms: N_18  and  C_19
REMARK                            x       y       z     vdW  Elec       q    Type
REMARK                         _______ _______ _______ _____ _____    ______ ____
ROOT
ATOM      1  N   UNL     1       8.017   8.265  18.018  0.00  0.00    +0.000 N 
ATOM      2  C   UNL     1       7.779   6.941  18.311  0.00  0.00    +0.000 C 
ATOM      3  O   UNL     1       8.417   6.330  19.164  0.00  0.00    +0.000 OA
ATOM      4  N   UNL     1       6.755   6.375  17.595  0.00  0.00    +0.000 N 
ATOM      5  C   UNL     1       6.015   6.938  16.486  0.00  0.00    +0.000 C 
ATOM      6  C   UNL     1       4.638   6.358  16.681  0.00  0.00    +0.000 C 
ATOM      7  C   UNL     1       4.878   4.923  17.196  0.00  0.00    +0.000 C 
ATOM      8  C   UNL     1       6.257   5.031  17.897  0.00  0.00    +0.000 C 
ATOM      9  H   UNL     1       7.171   8.781  17.842  0.00  0.00    +0.000 HD
ENDROOT
BRANCH   7  10
ATOM     10  N   UNL     1       3.745   4.453  17.979  0.00  0.00    +0.000 N 
ATOM     11  C   UNL     1       3.326   3.101  18.047  0.00  0.00    +0.000 A 
ATOM     12  O   UNL     1       3.785   2.146  17.440  0.00  0.00    +0.000 OA
ATOM     13  N   UNL     1       2.250   3.055  18.951  0.00  0.00    +0.000 N 
ATOM     14  C   UNL     1       1.492   1.885  19.284  0.00  0.00    +0.000 C 
ATOM     15  C   UNL     1       2.068   4.328  19.483  0.00  0.00    +0.000 A 
ATOM     16  C   UNL     1       1.157   4.778  20.416  0.00  0.00    +0.000 A 
ATOM     17  C   UNL     1       1.244   6.126  20.759  0.00  0.00    +0.000 A 
ATOM     18  C   UNL     1       2.228   6.922  20.160  0.00  0.00    +0.000 A 
ATOM     19  N   UNL     1       3.133   6.482  19.245  0.00  0.00    +0.000 NA
ATOM     20  C   UNL     1       3.008   5.189  18.918  0.00  0.00    +0.000 A 
ENDBRANCH   7  10
BRANCH   1  21
ATOM     21  C   UNL     1       9.008   8.993  18.781  0.00  0.00    +0.000 C 
BRANCH  21  25
ATOM     22  C   UNL     1       9.040  13.252  17.928  0.00  0.00    +0.000 A 
ATOM     23  C   UNL     1       9.975  12.688  18.793  0.00  0.00    +0.000 A 
ATOM     24  C   UNL     1       9.962  11.314  19.062  0.00  0.00    +0.000 A 
ATOM     25  C   UNL     1       8.999  10.476  18.481  0.00  0.00    +0.000 A 
ATOM     26  C   UNL     1       8.051  11.053  17.626  0.00  0.00    +0.000 A 
ATOM     27  C   UNL     1       8.070  12.430  17.350  0.00  0.00    +0.000 A 
BRANCH  22  29
ATOM     28  C   UNL     1       8.275  15.404  18.540  0.00  0.00    +0.000 C 
ATOM     29  O   UNL     1       9.144  14.603  17.745  0.00  0.00    +0.000 OA
ENDBRANCH  22  29
ENDBRANCH  21  25
ENDBRANCH   1  21
TORSDOF 4
ENDMDL
MODEL 3
REMARK VINA RESULT:      -7.6      1.390      2.429
REMARK  Name = 
REMARK  6 active torsions:
REMARK  status: ('A' for Active; 'I' for Inactive)
REMARK    1  A    between atoms: C_1  and  O_2
REMARK    2  A    between atoms: O_2  and  C_3
REMARK    3  A    between atoms: C_6  and  C_7
REMARK    4  A    between atoms: C_7  and  N_8
REMARK    5  A    between atoms: C_14  and  N_15
REMARK    6  A    between atoms: N_18  and  C_19
REMARK                            x       y       z     vdW  Elec       q    Type
REMARK                         _______ _______ _______ _____ _____    ______ ____
ROOT
ATOM      1  N   UNL     1       2.429   8.203  18.590  0.00  0.00    +0.000 N 
ATOM      2  C   UNL     1       1.998   9.476  18.286  0.00  0.00    +0.000 C 
ATOM      3  O   UNL     1       2.357  10.068  17.273  0.00  0.00    +0.000 OA
ATOM      4  N   UNL     1       1.115  10.008  19.191  0.00  0.00    +0.000 N 
ATOM      5  C   UNL     1       0.711   9.475  20.474  0.00  0.00    +0.000 C 
ATOM      6  C   UNL     1      -0.725   9.920  20.578  0.00  0.00    +0.000 C 
ATOM      7  C   UNL     1      -0.755  11.325  19.939  0.00  0.00    +0.000 C 
ATOM      8  C   UNL     1       0.429  11.278  18.939  0.00  0.00    +0.000 C 
ATOM      9  H   UNL     1       1.702   7.634  18.991  0.00  0.00    +0.000 HD
ENDROOT
BRANCH   7  10
ATOM     10  N   UNL     1      -2.079  11.635  19.422  0.00  0.00    +0.000 N 
ATOM     11  C   UNL     1      -2.593  11.146  18.195  0.00  0.00    +0.000 A 
ATOM     12  O   UNL     1      -2.017  10.459  17.365  0.00  0.00    +0.000 OA
ATOM     13  N   UNL     1      -3.914  11.617  18.092  0.00  0.00    +0.000 N 
ATOM     14  C   UNL     1      -4.792  11.395  16.982  0.00  0.00    +0.000 C 
ATOM     15  C   UNL     1      -4.228  12.305  19.260  0.00  0.00    +0.000 A 
ATOM     16  C   UNL     1      -5.400  12.929  19.636  0.00  0.00    +0.000 A 
ATOM     17  C   UNL     1      -5.402  13.525  20.895  0.00  0.00    +0.000 A 
ATOM     18  C   UNL     1      -4.251  13.452  21.689  0.00  0.00    +0.000 A 
ATOM     19  N   UNL     1      -3.096  12.832  21.327  0.00  0.00    +0.000 NA
ATOM     20  C   UNL     1      -3.116  12.291  20.102  0.00  0.00    +0.000 A 
ENDBRANCH   7  10
BRANCH   1  21
ATOM     21  C   UNL     1       3.285   7.503  17.657  0.00  0.00    +0.000 C 
BRANCH  21  25
ATOM     22  C   UNL     1       2.778   3.191  17.798  0.00  0.00    +0.000 A 
ATOM     23  C   UNL     1       4.007   3.758  17.466  0.00  0.00    +0.000 A 
ATOM     24  C   UNL     1       4.165   5.148  17.425  0.00  0.00    +0.000 A 
ATOM     25  C   UNL     1       3.089   6.003  17.700  0.00  0.00    +0.000 A 
ATOM     26  C   UNL     1       1.852   5.427  18.017  0.00  0.00    +0.000 A 
ATOM     27  C   UNL     1       1.695   4.032  18.066  0.00  0.00    +0.000 A 
BRANCH  22  29
ATOM     28  C   UNL     1       3.792   1.177  18.508  0.00  0.00    +0.000 C 
ATOM     29  O   UNL     1       2.739   1.825  17.800  0.00  0.00    +0.000 OA
ENDBRANCH  22  29
ENDBRANCH  21  25
ENDBRANCH   1  21
TORSDOF 4
ENDMDL
MODEL 4
REMARK VINA RESULT:      -7.6      2.023      2.629
REMARK  Name = 
REMARK  6 active torsions:
REMARK  status: ('A' for Active; 'I' for Inactive)
REMARK    1  A    between atoms: C_1  and  O_2
REMARK    2  A    between atoms: O_2  and  C_3
REMARK    3  A    between atoms: C_6  and  C_7
REMARK    4  A    between atoms: C_7  and  N_8
REMARK    5  A    between atoms: C_14  and  N_15
REMARK    6  A    between atoms: N_18  and  C_19
REMARK                            x       y       z     vdW  Elec       q    Type
REMARK                         _______ _______ _______ _____ _____    ______ ____
ROOT
ATOM      1  N   UNL     1       2.157   6.034  19.930  0.00  0.00    +0.000 N 
ATOM      2  C   UNL     1       1.996   7.175  19.176  0.00  0.00    +0.000 C 
ATOM      3  O   UNL     1       2.138   7.184  17.957  0.00  0.00    +0.000 OA
ATOM      4  N   UNL     1       1.633   8.285  19.896  0.00  0.00    +0.000 N 
ATOM      5  C   UNL     1       1.555   8.440  21.332  0.00  0.00    +0.000 C 
ATOM      6  C   UNL     1       0.403   9.397  21.498  0.00  0.00    +0.000 C 
ATOM      7  C   UNL     1       0.528  10.381  20.315  0.00  0.00    +0.000 C 
ATOM      8  C   UNL     1       1.257   9.538  19.237  0.00  0.00    +0.000 C 
ATOM      9  H   UNL     1       1.484   5.963  20.676  0.00  0.00    +0.000 HD
ENDROOT
BRANCH   7  10
ATOM     10  N   UNL     1      -0.765  10.957  19.978  0.00  0.00    +0.000 N 
ATOM     11  C   UNL     1      -1.413  11.966  20.734  0.00  0.00    +0.000 A 
ATOM     12  O   UNL     1      -1.045  12.461  21.788  0.00  0.00    +0.000 OA
ATOM     13  N   UNL     1      -2.595  12.292  20.046  0.00  0.00    +0.000 N 
ATOM     14  C   UNL     1      -3.579  13.238  20.484  0.00  0.00    +0.000 C 
ATOM     15  C   UNL     1      -2.629  11.565  18.860  0.00  0.00    +0.000 A 
ATOM     16  C   UNL     1      -3.570  11.555  17.850  0.00  0.00    +0.000 A 
ATOM     17  C   UNL     1      -3.303  10.717  16.770  0.00  0.00    +0.000 A 
ATOM     18  C   UNL     1      -2.126   9.959  16.766  0.00  0.00    +0.000 A 
ATOM     19  N   UNL     1      -1.192   9.969  17.755  0.00  0.00    +0.000 NA
ATOM     20  C   UNL     1      -1.488  10.766  18.791  0.00  0.00    +0.000 A 
ENDBRANCH   7  10
BRANCH   1  21
ATOM     21  C   UNL     1       2.442   4.780  19.267  0.00  0.00    +0.000 C 
BRANCH  21  25
ATOM     22  C   UNL     1       6.297   4.776  17.264  0.00  0.00    +0.000 A 
ATOM     23  C   UNL     1       5.149   4.334  16.610  0.00  0.00    +0.000 A 
ATOM     24  C   UNL     1       3.909   4.341  17.259  0.00  0.00    +0.000 A 
ATOM     25  C   UNL     1       3.794   4.775  18.588  0.00  0.00    +0.000 A 
ATOM     26  C   UNL     1       4.955   5.201  19.245  0.00  0.00    +0.000 A 
ATOM     27  C   UNL     1       6.198   5.202  18.591  0.00  0.00    +0.000 A 
BRANCH  22  29
ATOM     28  C   UNL     1       7.298   4.829  15.123  0.00  0.00    +0.000 C 
ATOM     29  O   UNL     1       7.452   4.719  16.535  0.00  0.00    +0.000 OA
ENDBRANCH  22  29
ENDBRANCH  21  25
ENDBRANCH   1  21
TORSDOF 4
ENDMDL
MODEL 5
REMARK VINA RESULT:      -7.4      1.314      1.426
REMARK  Name = 
REMARK  6 active torsions:
REMARK  status: ('A' for Active; 'I' for Inactive)
REMARK    1  A    between atoms: C_1  and  O_2
REMARK    2  A    between atoms: O_2  and  C_3
REMARK    3  A    between atoms: C_6  and  C_7
REMARK    4  A    between atoms: C_7  and  N_8
REMARK    5  A    between atoms: C_14  and  N_15
REMARK    6  A    between atoms: N_18  and  C_19
REMARK                            x       y       z     vdW  Elec       q    Type
REMARK                         _______ _______ _______ _____ _____    ______ ____
ROOT
ATOM      1  N   UNL     1       1.970   8.604  19.217  0.00  0.00    +0.000 N 
ATOM      2  C   UNL     1       1.379   9.707  18.641  0.00  0.00    +0.000 C 
ATOM      3  O   UNL     1       1.395   9.906  17.430  0.00  0.00    +0.000 OA
ATOM      4  N   UNL     1       0.749  10.543  19.528  0.00  0.00    +0.000 N 
ATOM      5  C   UNL     1       0.761  10.493  20.974  0.00  0.00    +0.000 C 
ATOM      6  C   UNL     1      -0.617  10.988  21.333  0.00  0.00    +0.000 C 
ATOM      7  C   UNL     1      -0.927  12.089  20.296  0.00  0.00    +0.000 C 
ATOM      8  C   UNL     1      -0.072  11.668  19.074  0.00  0.00    +0.000 C 
ATOM      9  H   UNL     1       1.429   8.228  19.978  0.00  0.00    +0.000 HD
ENDROOT
BRANCH   7  10
ATOM     10  N   UNL     1      -2.363  12.240  20.110  0.00  0.00    +0.000 N 
ATOM     11  C   UNL     1      -3.217  12.929  21.006  0.00  0.00    +0.000 A 
ATOM     12  O   UNL     1      -2.922  13.443  22.074  0.00  0.00    +0.000 OA
ATOM     13  N   UNL     1      -4.504  12.905  20.439  0.00  0.00    +0.000 N 
ATOM     14  C   UNL     1      -5.687  13.450  21.036  0.00  0.00    +0.000 C 
ATOM     15  C   UNL     1      -4.424  12.290  19.193  0.00  0.00    +0.000 A 
ATOM     16  C   UNL     1      -5.409  12.048  18.257  0.00  0.00    +0.000 A 
ATOM     17  C   UNL     1      -4.999  11.419  17.084  0.00  0.00    +0.000 A 
ATOM     18  C   UNL     1      -3.650  11.083  16.922  0.00  0.00    +0.000 A 
ATOM     19  N   UNL     1      -2.674  11.325  17.838  0.00  0.00    +0.000 NA
ATOM     20  C   UNL     1      -3.102  11.909  18.965  0.00  0.00    +0.000 A 
ENDBRANCH   7  10
BRANCH   1  21
ATOM     21  C   UNL     1       2.579   7.603  18.369  0.00  0.00    +0.000 C 
BRANCH  21  25
ATOM     22  C   UNL     1       1.758   3.576  19.775  0.00  0.00    +0.000 A 
ATOM     23  C   UNL     1       1.767   4.655  20.657  0.00  0.00    +0.000 A 
ATOM     24  C   UNL     1       2.030   5.951  20.198  0.00  0.00    +0.000 A 
ATOM     25  C   UNL     1       2.305   6.193  18.844  0.00  0.00    +0.000 A 
ATOM     26  C   UNL     1       2.311   5.101  17.966  0.00  0.00    +0.000 A 
ATOM     27  C   UNL     1       2.040   3.802  18.426  0.00  0.00    +0.000 A 
BRANCH  22  29
ATOM     28  C   UNL     1       1.948   2.183  21.676  0.00  0.00    +0.000 C 
ATOM     29  O   UNL     1       1.496   2.357  20.336  0.00  0.00    +0.000 OA
ENDBRANCH  22  29
ENDBRANCH  21  25
ENDBRANCH   1  21
TORSDOF 4
ENDMDL
MODEL 6
REMARK VINA RESULT:      -7.4      2.010      3.264
REMARK  Name = 
REMARK  6 active torsions:
REMARK  status: ('A' for Active; 'I' for Inactive)
REMARK    1  A    between atoms: C_1  and  O_2
REMARK    2  A    between atoms: O_2  and  C_3
REMARK    3  A    between atoms: C_6  and  C_7
REMARK    4  A    between atoms: C_7  and  N_8
REMARK    5  A    between atoms: C_14  and  N_15
REMARK    6  A    between atoms: N_18  and  C_19
REMARK                            x       y       z     vdW  Elec       q    Type
REMARK                         _______ _______ _______ _____ _____    ______ ____
ROOT
ATOM      1  N   UNL     1       1.721   8.577  19.583  0.00  0.00    +0.000 N 
ATOM      2  C   UNL     1       1.289   9.863  19.348  0.00  0.00    +0.000 C 
ATOM      3  O   UNL     1       1.399  10.405  18.252  0.00  0.00    +0.000 OA
ATOM      4  N   UNL     1       0.701  10.471  20.428  0.00  0.00    +0.000 N 
ATOM      5  C   UNL     1       0.621   9.999  21.793  0.00  0.00    +0.000 C 
ATOM      6  C   UNL     1      -0.714  10.529  22.248  0.00  0.00    +0.000 C 
ATOM      7  C   UNL     1      -0.842  11.915  21.580  0.00  0.00    +0.000 C 
ATOM      8  C   UNL     1       0.035  11.771  20.309  0.00  0.00    +0.000 C 
ATOM      9  H   UNL     1       1.098   8.062  20.183  0.00  0.00    +0.000 HD
ENDROOT
BRANCH   7  10
ATOM     10  N   UNL     1      -2.239  12.286  21.411  0.00  0.00    +0.000 N 
ATOM     11  C   UNL     1      -2.905  12.348  20.162  0.00  0.00    +0.000 A 
ATOM     12  O   UNL     1      -2.428  12.167  19.052  0.00  0.00    +0.000 OA
ATOM     13  N   UNL     1      -4.245  12.678  20.433  0.00  0.00    +0.000 N 
ATOM     14  C   UNL     1      -5.265  12.888  19.449  0.00  0.00    +0.000 C 
ATOM     15  C   UNL     1      -4.413  12.735  21.813  0.00  0.00    +0.000 A 
ATOM     16  C   UNL     1      -5.543  13.002  22.560  0.00  0.00    +0.000 A 
ATOM     17  C   UNL     1      -5.386  12.968  23.944  0.00  0.00    +0.000 A 
ATOM     18  C   UNL     1      -4.130  12.665  24.484  0.00  0.00    +0.000 A 
ATOM     19  N   UNL     1      -3.015  12.395  23.753  0.00  0.00    +0.000 NA
ATOM     20  C   UNL     1      -3.191  12.459  22.426  0.00  0.00    +0.000 A 
ENDBRANCH   7  10
BRANCH   1  21
ATOM     21  C   UNL     1       2.268   7.802  18.491  0.00  0.00    +0.000 C 
BRANCH  21  25
ATOM     22  C   UNL     1       2.749   3.590  19.440  0.00  0.00    +0.000 A 
ATOM     23  C   UNL     1       2.977   4.064  18.150  0.00  0.00    +0.000 A 
ATOM     24  C   UNL     1       2.823   5.423  17.850  0.00  0.00    +0.000 A 
ATOM     25  C   UNL     1       2.421   6.336  18.835  0.00  0.00    +0.000 A 
ATOM     26  C   UNL     1       2.177   5.850  20.126  0.00  0.00    +0.000 A 
ATOM     27  C   UNL     1       2.339   4.488  20.429  0.00  0.00    +0.000 A 
BRANCH  22  29
ATOM     28  C   UNL     1       3.492   1.547  18.512  0.00  0.00    +0.000 C 
ATOM     29  O   UNL     1       2.923   2.246  19.615  0.00  0.00    +0.000 OA
ENDBRANCH  22  29
ENDBRANCH  21  25
ENDBRANCH   1  21
TORSDOF 4
ENDMDL
MODEL 7
REMARK VINA RESULT:      -7.3      1.683      2.770
REMARK  Name = 
REMARK  6 active torsions:
REMARK  status: ('A' for Active; 'I' for Inactive)
REMARK    1  A    between atoms: C_1  and  O_2
REMARK    2  A    between atoms: O_2  and  C_3
REMARK    3  A    between atoms: C_6  and  C_7
REMARK    4  A    between atoms: C_7  and  N_8
REMARK    5  A    between atoms: C_14  and  N_15
REMARK    6  A    between atoms: N_18  and  C_19
REMARK                            x       y       z     vdW  Elec       q    Type
REMARK                         _______ _______ _______ _____ _____    ______ ____
ROOT
ATOM      1  N   UNL     1       1.996   8.608  19.138  0.00  0.00    +0.000 N 
ATOM      2  C   UNL     1       1.453   9.706  18.510  0.00  0.00    +0.000 C 
ATOM      3  O   UNL     1       1.569   9.898  17.303  0.00  0.00    +0.000 OA
ATOM      4  N   UNL     1       0.750  10.545  19.337  0.00  0.00    +0.000 N 
ATOM      5  C   UNL     1       0.644  10.504  20.779  0.00  0.00    +0.000 C 
ATOM      6  C   UNL     1      -0.760  10.998  21.020  0.00  0.00    +0.000 C 
ATOM      7  C   UNL     1      -0.985  12.092  19.955  0.00  0.00    +0.000 C 
ATOM      8  C   UNL     1      -0.031  11.667  18.810  0.00  0.00    +0.000 C 
ATOM      9  H   UNL     1       1.394   8.234  19.854  0.00  0.00    +0.000 HD
ENDROOT
BRANCH   7  10
ATOM     10  N   UNL     1      -2.401  12.240  19.650  0.00  0.00    +0.000 N 
ATOM     11  C   UNL     1      -3.083  11.509  18.646  0.00  0.00    +0.000 A 
ATOM     12  O   UNL     1      -2.611  10.708  17.855  0.00  0.00    +0.000 OA
ATOM     13  N   UNL     1      -4.435  11.892  18.714  0.00  0.00    +0.000 N 
ATOM     14  C   UNL     1      -5.475  11.428  17.844  0.00  0.00    +0.000 C 
ATOM     15  C   UNL     1      -4.591  12.769  19.782  0.00  0.00    +0.000 A 
ATOM     16  C   UNL     1      -5.724  13.397  20.258  0.00  0.00    +0.000 A 
ATOM     17  C   UNL     1      -5.550  14.215  21.373  0.00  0.00    +0.000 A 
ATOM     18  C   UNL     1      -4.275  14.343  21.936  0.00  0.00    +0.000 A 
ATOM     19  N   UNL     1      -3.156  13.721  21.476  0.00  0.00    +0.000 NA
ATOM     20  C   UNL     1      -3.350  12.962  20.389  0.00  0.00    +0.000 A 
ENDBRANCH   7  10
BRANCH   1  21
ATOM     21  C   UNL     1       2.674   7.602  18.350  0.00  0.00    +0.000 C 
BRANCH  21  25
ATOM     22  C   UNL     1       1.819   3.586  19.765  0.00  0.00    +0.000 A 
ATOM     23  C   UNL     1       1.823   4.669  20.642  0.00  0.00    +0.000 A 
ATOM     24  C   UNL     1       2.096   5.962  20.180  0.00  0.00    +0.000 A 
ATOM     25  C   UNL     1       2.389   6.196  18.829  0.00  0.00    +0.000 A 
ATOM     26  C   UNL     1       2.400   5.100  17.956  0.00  0.00    +0.000 A 
ATOM     27  C   UNL     1       2.117   3.804  18.418  0.00  0.00    +0.000 A 
BRANCH  22  29
ATOM     28  C   UNL     1       1.583   2.326  21.752  0.00  0.00    +0.000 C 
ATOM     29  O   UNL     1       1.545   2.371  20.328  0.00  0.00    +0.000 OA
ENDBRANCH  22  29
ENDBRANCH  21  25
ENDBRANCH   1  21
TORSDOF 4
ENDMDL
MODEL 8
REMARK VINA RESULT:      -7.3      1.932      3.278
REMARK  Name = 
REMARK  6 active torsions:
REMARK  status: ('A' for Active; 'I' for Inactive)
REMARK    1  A    between atoms: C_1  and  O_2
REMARK    2  A    between atoms: O_2  and  C_3
REMARK    3  A    between atoms: C_6  and  C_7
REMARK    4  A    between atoms: C_7  and  N_8
REMARK    5  A    between atoms: C_14  and  N_15
REMARK    6  A    between atoms: N_18  and  C_19
REMARK                            x       y       z     vdW  Elec       q    Type
REMARK                         _______ _______ _______ _____ _____    ______ ____
ROOT
ATOM      1  N   UNL     1       1.683   8.721  19.129  0.00  0.00    +0.000 N 
ATOM      2  C   UNL     1       1.265  10.030  19.028  0.00  0.00    +0.000 C 
ATOM      3  O   UNL     1       1.380  10.680  17.993  0.00  0.00    +0.000 OA
ATOM      4  N   UNL     1       0.685  10.531  20.166  0.00  0.00    +0.000 N 
ATOM      5  C   UNL     1       0.602   9.922  21.475  0.00  0.00    +0.000 C 
ATOM      6  C   UNL     1      -0.726  10.419  21.986  0.00  0.00    +0.000 C 
ATOM      7  C   UNL     1      -0.838  11.867  21.463  0.00  0.00    +0.000 C 
ATOM      8  C   UNL     1       0.036  11.844  20.182  0.00  0.00    +0.000 C 
ATOM      9  H   UNL     1       1.054   8.155  19.674  0.00  0.00    +0.000 HD
ENDROOT
BRANCH   7  10
ATOM     10  N   UNL     1      -2.231  12.270  21.337  0.00  0.00    +0.000 N 
ATOM     11  C   UNL     1      -2.930  12.356  20.108  0.00  0.00    +0.000 A 
ATOM     12  O   UNL     1      -2.490  12.172  18.984  0.00  0.00    +0.000 OA
ATOM     13  N   UNL     1      -4.255  12.712  20.420  0.00  0.00    +0.000 N 
ATOM     14  C   UNL     1      -5.298  12.952  19.467  0.00  0.00    +0.000 C 
ATOM     15  C   UNL     1      -4.382  12.764  21.804  0.00  0.00    +0.000 A 
ATOM     16  C   UNL     1      -5.484  13.049  22.585  0.00  0.00    +0.000 A 
ATOM     17  C   UNL     1      -5.289  13.002  23.963  0.00  0.00    +0.000 A 
ATOM     18  C   UNL     1      -4.025  12.668  24.465  0.00  0.00    +0.000 A 
ATOM     19  N   UNL     1      -2.938  12.379  23.701  0.00  0.00    +0.000 NA
ATOM     20  C   UNL     1      -3.150  12.457  22.380  0.00  0.00    +0.000 A 
ENDBRANCH   7  10
BRANCH   1  21
ATOM     21  C   UNL     1       2.219   8.056  17.961  0.00  0.00    +0.000 C 
BRANCH  21  25
ATOM     22  C   UNL     1       4.448   4.469  18.977  0.00  0.00    +0.000 A 
ATOM     23  C   UNL     1       3.240   4.764  19.606  0.00  0.00    +0.000 A 
ATOM     24  C   UNL     1       2.525   5.920  19.272  0.00  0.00    +0.000 A 
ATOM     25  C   UNL     1       3.013   6.816  18.311  0.00  0.00    +0.000 A 
ATOM     26  C   UNL     1       4.236   6.522  17.695  0.00  0.00    +0.000 A 
ATOM     27  C   UNL     1       4.950   5.358  18.023  0.00  0.00    +0.000 A 
BRANCH  22  29
ATOM     28  C   UNL     1       4.251   2.416  20.133  0.00  0.00    +0.000 C 
ATOM     29  O   UNL     1       5.062   3.318  19.386  0.00  0.00    +0.000 OA
ENDBRANCH  22  29
ENDBRANCH  21  25
ENDBRANCH   1  21
TORSDOF 4
ENDMDL
MODEL 9
REMARK VINA RESULT:      -7.3      1.283      2.624
REMARK  Name = 
REMARK  6 active torsions:
REMARK  status: ('A' for Active; 'I' for Inactive)
REMARK    1  A    between atoms: C_1  and  O_2
REMARK    2  A    between atoms: O_2  and  C_3
REMARK    3  A    between atoms: C_6  and  C_7
REMARK    4  A    between atoms: C_7  and  N_8
REMARK    5  A    between atoms: C_14  and  N_15
REMARK    6  A    between atoms: N_18  and  C_19
REMARK                            x       y       z     vdW  Elec       q    Type
REMARK                         _______ _______ _______ _____ _____    ______ ____
ROOT
ATOM      1  N   UNL     1       2.235   8.301  18.645  0.00  0.00    +0.000 N 
ATOM      2  C   UNL     1       1.809   9.575  18.341  0.00  0.00    +0.000 C 
ATOM      3  O   UNL     1       2.096  10.131  17.285  0.00  0.00    +0.000 OA
ATOM      4  N   UNL     1       1.015  10.153  19.300  0.00  0.00    +0.000 N 
ATOM      5  C   UNL     1       0.707   9.665  20.626  0.00  0.00    +0.000 C 
ATOM      6  C   UNL     1      -0.706  10.147  20.834  0.00  0.00    +0.000 C 
ATOM      7  C   UNL     1      -0.757  11.534  20.160  0.00  0.00    +0.000 C 
ATOM      8  C   UNL     1       0.339  11.432  19.068  0.00  0.00    +0.000 C 
ATOM      9  H   UNL     1       1.531   7.761  19.121  0.00  0.00    +0.000 HD
ENDROOT
BRANCH   7  10
ATOM     10  N   UNL     1      -2.113  11.862  19.743  0.00  0.00    +0.000 N 
ATOM     11  C   UNL     1      -2.738  11.350  18.579  0.00  0.00    +0.000 A 
ATOM     12  O   UNL     1      -2.249  10.623  17.728  0.00  0.00    +0.000 OA
ATOM     13  N   UNL     1      -4.052  11.851  18.571  0.00  0.00    +0.000 N 
ATOM     14  C   UNL     1      -5.024  11.619  17.544  0.00  0.00    +0.000 C 
ATOM     15  C   UNL     1      -4.251  12.582  19.737  0.00  0.00    +0.000 A 
ATOM     16  C   UNL     1      -5.373  13.247  20.188  0.00  0.00    +0.000 A 
ATOM     17  C   UNL     1      -5.257  13.880  21.424  0.00  0.00    +0.000 A 
ATOM     18  C   UNL     1      -4.046  13.802  22.122  0.00  0.00    +0.000 A 
ATOM     19  N   UNL     1      -2.939  13.143  21.686  0.00  0.00    +0.000 NA
ATOM     20  C   UNL     1      -3.074  12.565  20.485  0.00  0.00    +0.000 A 
ENDBRANCH   7  10
BRANCH   1  21
ATOM     21  C   UNL     1       2.996   7.556  17.666  0.00  0.00    +0.000 C 
BRANCH  21  25
ATOM     22  C   UNL     1       3.975   3.534  18.985  0.00  0.00    +0.000 A 
ATOM     23  C   UNL     1       2.748   3.813  18.387  0.00  0.00    +0.000 A 
ATOM     24  C   UNL     1       2.439   5.111  17.961  0.00  0.00    +0.000 A 
ATOM     25  C   UNL     1       3.348   6.163  18.141  0.00  0.00    +0.000 A 
ATOM     26  C   UNL     1       4.573   5.879  18.758  0.00  0.00    +0.000 A 
ATOM     27  C   UNL     1       4.887   4.576  19.178  0.00  0.00    +0.000 A 
BRANCH  22  29
ATOM     28  C   UNL     1       3.570   1.251  18.526  0.00  0.00    +0.000 C 
ATOM     29  O   UNL     1       4.165   2.236  19.366  0.00  0.00    +0.000 OA
ENDBRANCH  22  29
ENDBRANCH  21  25
ENDBRANCH   1  21
TORSDOF 4
ENDMDL
