MODEL 1
REMARK VINA RESULT:      -6.8      0.000      0.000
REMARK  Name = 
REMARK  10 active torsions:
REMARK  status: ('A' for Active; 'I' for Inactive)
REMARK    1  A    between atoms: C_1  and  O_2
REMARK    2  A    between atoms: O_2  and  C_3
REMARK    3  A    between atoms: C_3  and  C_5
REMARK    4  A    between atoms: C_6  and  C_7
REMARK    5  A    between atoms: C_14  and  C_15
REMARK    6  A    between atoms: C_21  and  N_22
REMARK    7  A    between atoms: N_25  and  C_26
REMARK    8  A    between atoms: C_26  and  C_27
REMARK    9  A    between atoms: C_26  and  C_28
REMARK   10  A    between atoms: N_31  and  C_32
REMARK                            x       y       z     vdW  Elec       q    Type
REMARK                         _______ _______ _______ _____ _____    ______ ____
ROOT
ATOM      1  C   UNL     1      -5.300  12.006  19.586  0.00  0.00    +0.000 A 
ATOM      2  C   UNL     1      -3.990  11.931  19.109  0.00  0.00    +0.000 A 
ATOM      3  C   UNL     1      -3.137  12.614  20.070  0.00  0.00    +0.000 A 
ATOM      4  C   UNL     1      -3.960  13.095  21.100  0.00  0.00    +0.000 A 
ATOM      5  N   UNL     1      -5.264  12.743  20.766  0.00  0.00    +0.000 N 
ATOM      6  C   UNL     1      -6.471  13.073  21.504  0.00  0.00    +0.000 C 
ENDROOT
BRANCH   2   7
ATOM      7  C   UNL     1      -3.634  11.264  17.839  0.00  0.00    +0.000 A 
ATOM      8  C   UNL     1      -4.237  11.629  16.622  0.00  0.00    +0.000 A 
ATOM      9  C   UNL     1      -3.889  10.993  15.425  0.00  0.00    +0.000 A 
ATOM     10  C   UNL     1      -2.886  10.038  15.423  0.00  0.00    +0.000 A 
ATOM     11  F   UNL     1      -2.522   9.460  14.270  0.00  0.00    +0.000 F 
ATOM     12  C   UNL     1      -2.247   9.680  16.601  0.00  0.00    +0.000 A 
ATOM     13  C   UNL     1      -2.649  10.262  17.808  0.00  0.00    +0.000 A 
ENDBRANCH   2   7
BRANCH   3  14
ATOM     14  C   UNL     1      -1.672  12.791  20.030  0.00  0.00    +0.000 A 
ATOM     15  C   UNL     1      -0.808  11.848  20.596  0.00  0.00    +0.000 A 
ATOM     16  C   UNL     1       0.560  12.080  20.562  0.00  0.00    +0.000 A 
ATOM     17  N   UNL     1       1.130  13.127  19.935  0.00  0.00    +0.000 NA
ATOM     18  C   UNL     1       0.288  14.016  19.372  0.00  0.00    +0.000 A 
ATOM     19  C   UNL     1      -1.093  13.921  19.445  0.00  0.00    +0.000 A 
ENDBRANCH   3  14
BRANCH   4  20
ATOM     20  N   UNL     1      -3.714  13.868  22.211  0.00  0.00    +0.000 N 
ATOM     21  C   UNL     1      -3.836  15.339  22.190  0.00  0.00    +0.000 C 
ATOM     22  C   UNL     1      -4.390  15.850  23.543  0.00  0.00    +0.000 C 
ATOM     23  N   UNL     1      -3.620  15.407  24.744  0.00  0.00    +0.000 NA
ATOM     24  C   UNL     1      -3.541  13.921  24.664  0.00  0.00    +0.000 C 
ATOM     25  C   UNL     1      -2.911  13.382  23.349  0.00  0.00    +0.000 C 
BRANCH  23  26
ATOM     26  C   UNL     1      -2.284  16.040  24.865  0.00  0.00    +0.000 C 
ATOM     27  C   UNL     1      -2.364  17.566  25.011  0.00  0.00    +0.000 C 
ATOM     28  C   UNL     1      -1.522  15.503  26.093  0.00  0.00    +0.000 C 
ENDBRANCH  23  26
ENDBRANCH   4  20
BRANCH   1  29
ATOM     29  C   UNL     1      -6.509  11.418  19.025  0.00  0.00    +0.000 C 
ATOM     30  O   UNL     1      -7.375  12.021  18.393  0.00  0.00    +0.000 OA
BRANCH  29  32
ATOM     31  C   UNL     1      -7.526   9.781  20.376  0.00  0.00    +0.000 C 
ATOM     32  O   UNL     1      -6.586  10.102  19.351  0.00  0.00    +0.000 OA
ENDBRANCH  29  32
ENDBRANCH   1  29
TORSDOF 6
ENDMDL
MODEL 2
REMARK VINA RESULT:      -6.5      0.351      1.223
REMARK  Name = 
REMARK  10 active torsions:
REMARK  status: ('A' for Active; 'I' for Inactive)
REMARK    1  A    between atoms: C_1  and  O_2
REMARK    2  A    between atoms: O_2  and  C_3
REMARK    3  A    between atoms: C_3  and  C_5
REMARK    4  A    between atoms: C_6  and  C_7
REMARK    5  A    between atoms: C_14  and  C_15
REMARK    6  A    between atoms: C_21  and  N_22
REMARK    7  A    between atoms: N_25  and  C_26
REMARK    8  A    between atoms: C_26  and  C_27
REMARK    9  A    between atoms: C_26  and  C_28
REMARK   10  A    between atoms: N_31  and  C_32
REMARK                            x       y       z     vdW  Elec       q    Type
REMARK                         _______ _______ _______ _____ _____    ______ ____
ROOT
ATOM      1  C   UNL     1      -5.086  12.146  19.482  0.00  0.00    +0.000 A 
ATOM      2  C   UNL     1      -3.777  12.003  19.018  0.00  0.00    +0.000 A 
ATOM      3  C   UNL     1      -2.902  12.659  19.978  0.00  0.00    +0.000 A 
ATOM      4  C   UNL     1      -3.711  13.192  20.993  0.00  0.00    +0.000 A 
ATOM      5  N   UNL     1      -5.027  12.896  20.652  0.00  0.00    +0.000 N 
ATOM      6  C   UNL     1      -6.223  13.293  21.374  0.00  0.00    +0.000 C 
ENDROOT
BRANCH   2   7
ATOM      7  C   UNL     1      -3.442  11.302  17.761  0.00  0.00    +0.000 A 
ATOM      8  C   UNL     1      -2.434  10.321  17.712  0.00  0.00    +0.000 A 
ATOM      9  C   UNL     1      -2.129   9.660  16.517  0.00  0.00    +0.000 A 
ATOM     10  C   UNL     1      -2.875   9.922  15.379  0.00  0.00    +0.000 A 
ATOM     11  F   UNL     1      -2.612   9.257  14.246  0.00  0.00    +0.000 F 
ATOM     12  C   UNL     1      -3.899  10.858  15.404  0.00  0.00    +0.000 A 
ATOM     13  C   UNL     1      -4.152  11.571  16.580  0.00  0.00    +0.000 A 
ENDBRANCH   2   7
BRANCH   3  14
ATOM     14  C   UNL     1      -1.430  12.767  19.949  0.00  0.00    +0.000 A 
ATOM     15  C   UNL     1      -0.779  13.620  19.053  0.00  0.00    +0.000 A 
ATOM     16  C   UNL     1       0.609  13.658  19.043  0.00  0.00    +0.000 A 
ATOM     17  N   UNL     1       1.386  12.981  19.911  0.00  0.00    +0.000 NA
ATOM     18  C   UNL     1       0.745  12.181  20.786  0.00  0.00    +0.000 A 
ATOM     19  C   UNL     1      -0.629  12.001  20.801  0.00  0.00    +0.000 A 
ENDBRANCH   3  14
BRANCH   4  20
ATOM     20  N   UNL     1      -3.439  13.968  22.096  0.00  0.00    +0.000 N 
ATOM     21  C   UNL     1      -3.275  15.433  22.007  0.00  0.00    +0.000 C 
ATOM     22  C   UNL     1      -3.859  16.115  23.270  0.00  0.00    +0.000 C 
ATOM     23  N   UNL     1      -3.316  15.606  24.565  0.00  0.00    +0.000 NA
ATOM     24  C   UNL     1      -3.514  14.129  24.550  0.00  0.00    +0.000 C 
ATOM     25  C   UNL     1      -2.865  13.409  23.335  0.00  0.00    +0.000 C 
BRANCH  23  26
ATOM     26  C   UNL     1      -1.904  15.986  24.813  0.00  0.00    +0.000 C 
ATOM     27  C   UNL     1      -1.675  17.501  24.719  0.00  0.00    +0.000 C 
ATOM     28  C   UNL     1      -1.444  15.541  26.215  0.00  0.00    +0.000 C 
ENDBRANCH  23  26
ENDBRANCH   4  20
BRANCH   1  29
ATOM     29  C   UNL     1      -6.317  11.606  18.918  0.00  0.00    +0.000 C 
ATOM     30  O   UNL     1      -7.162  12.246  18.294  0.00  0.00    +0.000 OA
BRANCH  29  32
ATOM     31  C   UNL     1      -7.370   9.996  20.272  0.00  0.00    +0.000 C 
ATOM     32  O   UNL     1      -6.439  10.291  19.231  0.00  0.00    +0.000 OA
ENDBRANCH  29  32
ENDBRANCH   1  29
TORSDOF 6
ENDMDL
MODEL 3
REMARK VINA RESULT:      -6.3      0.601      1.282
REMARK  Name = 
REMARK  10 active torsions:
REMARK  status: ('A' for Active; 'I' for Inactive)
REMARK    1  A    between atoms: C_1  and  O_2
REMARK    2  A    between atoms: O_2  and  C_3
REMARK    3  A    between atoms: C_3  and  C_5
REMARK    4  A    between atoms: C_6  and  C_7
REMARK    5  A    between atoms: C_14  and  C_15
REMARK    6  A    between atoms: C_21  and  N_22
REMARK    7  A    between atoms: N_25  and  C_26
REMARK    8  A    between atoms: C_26  and  C_27
REMARK    9  A    between atoms: C_26  and  C_28
REMARK   10  A    between atoms: N_31  and  C_32
REMARK                            x       y       z     vdW  Elec       q    Type
REMARK                         _______ _______ _______ _____ _____    ______ ____
ROOT
ATOM      1  C   UNL     1      -5.120  12.109  19.535  0.00  0.00    +0.000 A 
ATOM      2  C   UNL     1      -3.822  11.944  19.048  0.00  0.00    +0.000 A 
ATOM      3  C   UNL     1      -2.919  12.588  19.991  0.00  0.00    +0.000 A 
ATOM      4  C   UNL     1      -3.702  13.137  21.018  0.00  0.00    +0.000 A 
ATOM      5  N   UNL     1      -5.028  12.861  20.702  0.00  0.00    +0.000 N 
ATOM      6  C   UNL     1      -6.205  13.279  21.443  0.00  0.00    +0.000 C 
ENDROOT
BRANCH   2   7
ATOM      7  C   UNL     1      -3.520  11.234  17.788  0.00  0.00    +0.000 A 
ATOM      8  C   UNL     1      -4.056  11.659  16.558  0.00  0.00    +0.000 A 
ATOM      9  C   UNL     1      -3.759  10.982  15.369  0.00  0.00    +0.000 A 
ATOM     10  C   UNL     1      -2.870   9.919  15.390  0.00  0.00    +0.000 A 
ATOM     11  F   UNL     1      -2.552   9.298  14.246  0.00  0.00    +0.000 F 
ATOM     12  C   UNL     1      -2.298   9.498  16.581  0.00  0.00    +0.000 A 
ATOM     13  C   UNL     1      -2.654  10.128  17.778  0.00  0.00    +0.000 A 
ENDBRANCH   2   7
BRANCH   3  14
ATOM     14  C   UNL     1      -1.447  12.673  19.935  0.00  0.00    +0.000 A 
ATOM     15  C   UNL     1      -0.801  13.619  19.134  0.00  0.00    +0.000 A 
ATOM     16  C   UNL     1       0.587  13.634  19.092  0.00  0.00    +0.000 A 
ATOM     17  N   UNL     1       1.371  12.839  19.847  0.00  0.00    +0.000 NA
ATOM     18  C   UNL     1       0.736  11.948  20.633  0.00  0.00    +0.000 A 
ATOM     19  C   UNL     1      -0.641  11.793  20.664  0.00  0.00    +0.000 A 
ENDBRANCH   3  14
BRANCH   4  20
ATOM     20  N   UNL     1      -3.398  13.911  22.113  0.00  0.00    +0.000 N 
ATOM     21  C   UNL     1      -3.218  15.374  22.019  0.00  0.00    +0.000 C 
ATOM     22  C   UNL     1      -3.768  16.065  23.292  0.00  0.00    +0.000 C 
ATOM     23  N   UNL     1      -3.205  15.551  24.577  0.00  0.00    +0.000 NA
ATOM     24  C   UNL     1      -3.421  14.077  24.568  0.00  0.00    +0.000 C 
ATOM     25  C   UNL     1      -2.806  13.347  23.342  0.00  0.00    +0.000 C 
BRANCH  23  26
ATOM     26  C   UNL     1      -1.784  15.915  24.796  0.00  0.00    +0.000 C 
ATOM     27  C   UNL     1      -1.512  17.406  24.557  0.00  0.00    +0.000 C 
ATOM     28  C   UNL     1      -1.341  15.594  26.237  0.00  0.00    +0.000 C 
ENDBRANCH  23  26
ENDBRANCH   4  20
BRANCH   1  29
ATOM     29  C   UNL     1      -6.369  11.587  18.994  0.00  0.00    +0.000 C 
ATOM     30  O   UNL     1      -6.932  10.554  19.353  0.00  0.00    +0.000 OA
BRANCH  29  32
ATOM     31  C   UNL     1      -7.838  13.298  18.321  0.00  0.00    +0.000 C 
ATOM     32  O   UNL     1      -6.805  12.375  17.978  0.00  0.00    +0.000 OA
ENDBRANCH  29  32
ENDBRANCH   1  29
TORSDOF 6
ENDMDL
MODEL 4
REMARK VINA RESULT:      -5.9      1.002      1.505
REMARK  Name = 
REMARK  10 active torsions:
REMARK  status: ('A' for Active; 'I' for Inactive)
REMARK    1  A    between atoms: C_1  and  O_2
REMARK    2  A    between atoms: O_2  and  C_3
REMARK    3  A    between atoms: C_3  and  C_5
REMARK    4  A    between atoms: C_6  and  C_7
REMARK    5  A    between atoms: C_14  and  C_15
REMARK    6  A    between atoms: C_21  and  N_22
REMARK    7  A    between atoms: N_25  and  C_26
REMARK    8  A    between atoms: C_26  and  C_27
REMARK    9  A    between atoms: C_26  and  C_28
REMARK   10  A    between atoms: N_31  and  C_32
REMARK                            x       y       z     vdW  Elec       q    Type
REMARK                         _______ _______ _______ _____ _____    ______ ____
ROOT
ATOM      1  C   UNL     1      -4.843  11.912  19.130  0.00  0.00    +0.000 A 
ATOM      2  C   UNL     1      -3.587  11.749  18.542  0.00  0.00    +0.000 A 
ATOM      3  C   UNL     1      -2.611  12.379  19.419  0.00  0.00    +0.000 A 
ATOM      4  C   UNL     1      -3.309  12.916  20.511  0.00  0.00    +0.000 A 
ATOM      5  N   UNL     1      -4.657  12.649  20.295  0.00  0.00    +0.000 N 
ATOM      6  C   UNL     1      -5.771  13.061  21.131  0.00  0.00    +0.000 C 
ENDROOT
BRANCH   2   7
ATOM      7  C   UNL     1      -3.388  11.055  17.253  0.00  0.00    +0.000 A 
ATOM      8  C   UNL     1      -3.997  11.510  16.069  0.00  0.00    +0.000 A 
ATOM      9  C   UNL     1      -3.796  10.847  14.853  0.00  0.00    +0.000 A 
ATOM     10  C   UNL     1      -2.931   9.767  14.796  0.00  0.00    +0.000 A 
ATOM     11  F   UNL     1      -2.705   9.159  13.624  0.00  0.00    +0.000 F 
ATOM     12  C   UNL     1      -2.287   9.315  15.938  0.00  0.00    +0.000 A 
ATOM     13  C   UNL     1      -2.547   9.932  17.166  0.00  0.00    +0.000 A 
ENDBRANCH   2   7
BRANCH   3  14
ATOM     14  C   UNL     1      -1.147  12.459  19.250  0.00  0.00    +0.000 A 
ATOM     15  C   UNL     1      -0.313  11.396  19.610  0.00  0.00    +0.000 A 
ATOM     16  C   UNL     1       1.061  11.536  19.463  0.00  0.00    +0.000 A 
ATOM     17  N   UNL     1       1.652  12.613  18.909  0.00  0.00    +0.000 NA
ATOM     18  C   UNL     1       0.835  13.620  18.545  0.00  0.00    +0.000 A 
ATOM     19  C   UNL     1      -0.536  13.611  18.747  0.00  0.00    +0.000 A 
ENDBRANCH   3  14
BRANCH   4  20
ATOM     20  N   UNL     1      -2.918  13.676  21.589  0.00  0.00    +0.000 N 
ATOM     21  C   UNL     1      -2.606  13.078  22.903  0.00  0.00    +0.000 C 
ATOM     22  C   UNL     1      -1.439  13.841  23.575  0.00  0.00    +0.000 C 
ATOM     23  N   UNL     1      -1.647  15.315  23.709  0.00  0.00    +0.000 NA
ATOM     24  C   UNL     1      -1.967  15.816  22.343  0.00  0.00    +0.000 C 
ATOM     25  C   UNL     1      -3.189  15.124  21.677  0.00  0.00    +0.000 C 
BRANCH  23  26
ATOM     26  C   UNL     1      -2.679  15.686  24.706  0.00  0.00    +0.000 C 
ATOM     27  C   UNL     1      -2.459  15.007  26.066  0.00  0.00    +0.000 C 
ATOM     28  C   UNL     1      -2.697  17.207  24.952  0.00  0.00    +0.000 C 
ENDBRANCH  23  26
ENDBRANCH   4  20
BRANCH   1  29
ATOM     29  C   UNL     1      -6.132  11.401  18.681  0.00  0.00    +0.000 C 
ATOM     30  O   UNL     1      -6.996  12.050  18.093  0.00  0.00    +0.000 OA
BRANCH  29  32
ATOM     31  C   UNL     1      -7.269   9.876  20.066  0.00  0.00    +0.000 C 
ATOM     32  O   UNL     1      -6.282  10.107  19.061  0.00  0.00    +0.000 OA
ENDBRANCH  29  32
ENDBRANCH   1  29
TORSDOF 6
ENDMDL
MODEL 5
REMARK VINA RESULT:      -5.8      2.656      4.341
REMARK  Name = 
REMARK  10 active torsions:
REMARK  status: ('A' for Active; 'I' for Inactive)
REMARK    1  A    between atoms: C_1  and  O_2
REMARK    2  A    between atoms: O_2  and  C_3
REMARK    3  A    between atoms: C_3  and  C_5
REMARK    4  A    between atoms: C_6  and  C_7
REMARK    5  A    between atoms: C_14  and  C_15
REMARK    6  A    between atoms: C_21  and  N_22
REMARK    7  A    between atoms: N_25  and  C_26
REMARK    8  A    between atoms: C_26  and  C_27
REMARK    9  A    between atoms: C_26  and  C_28
REMARK   10  A    between atoms: N_31  and  C_32
REMARK                            x       y       z     vdW  Elec       q    Type
REMARK                         _______ _______ _______ _____ _____    ______ ____
ROOT
ATOM      1  C   UNL     1      -3.295  11.347  18.251  0.00  0.00    +0.000 A 
ATOM      2  C   UNL     1      -2.244  11.739  19.082  0.00  0.00    +0.000 A 
ATOM      3  C   UNL     1      -2.813  12.540  20.156  0.00  0.00    +0.000 A 
ATOM      4  C   UNL     1      -4.196  12.621  19.935  0.00  0.00    +0.000 A 
ATOM      5  N   UNL     1      -4.456  11.920  18.762  0.00  0.00    +0.000 N 
ATOM      6  C   UNL     1      -5.741  11.772  18.103  0.00  0.00    +0.000 C 
ENDROOT
BRANCH   2   7
ATOM      7  C   UNL     1      -0.837  11.363  18.829  0.00  0.00    +0.000 A 
ATOM      8  C   UNL     1      -0.381  10.045  19.018  0.00  0.00    +0.000 A 
ATOM      9  C   UNL     1       0.952   9.700  18.770  0.00  0.00    +0.000 A 
ATOM     10  C   UNL     1       1.823  10.651  18.264  0.00  0.00    +0.000 A 
ATOM     11  F   UNL     1       3.089  10.310  17.985  0.00  0.00    +0.000 F 
ATOM     12  C   UNL     1       1.396  11.951  18.034  0.00  0.00    +0.000 A 
ATOM     13  C   UNL     1       0.084  12.312  18.354  0.00  0.00    +0.000 A 
ENDBRANCH   2   7
BRANCH   3  14
ATOM     14  C   UNL     1      -2.117  13.167  21.296  0.00  0.00    +0.000 A 
ATOM     15  C   UNL     1      -1.293  14.284  21.122  0.00  0.00    +0.000 A 
ATOM     16  C   UNL     1      -0.634  14.815  22.223  0.00  0.00    +0.000 A 
ATOM     17  N   UNL     1      -0.802  14.374  23.485  0.00  0.00    +0.000 NA
ATOM     18  C   UNL     1      -1.618  13.313  23.643  0.00  0.00    +0.000 A 
ATOM     19  C   UNL     1      -2.236  12.655  22.591  0.00  0.00    +0.000 A 
ENDBRANCH   3  14
BRANCH   4  20
ATOM     20  N   UNL     1      -5.207  13.301  20.574  0.00  0.00    +0.000 N 
ATOM     21  C   UNL     1      -5.363  14.765  20.464  0.00  0.00    +0.000 C 
ATOM     22  C   UNL     1      -6.865  15.143  20.444  0.00  0.00    +0.000 C 
ATOM     23  N   UNL     1      -7.660  14.618  21.595  0.00  0.00    +0.000 NA
ATOM     24  C   UNL     1      -7.425  13.147  21.628  0.00  0.00    +0.000 C 
ATOM     25  C   UNL     1      -5.928  12.740  21.733  0.00  0.00    +0.000 C 
BRANCH  23  26
ATOM     26  C   UNL     1      -7.346  15.272  22.888  0.00  0.00    +0.000 C 
ATOM     27  C   UNL     1      -7.916  16.693  22.985  0.00  0.00    +0.000 C 
ATOM     28  C   UNL     1      -7.916  14.468  24.073  0.00  0.00    +0.000 C 
ENDBRANCH  23  26
ENDBRANCH   4  20
BRANCH   1  29
ATOM     29  C   UNL     1      -3.257  10.479  17.081  0.00  0.00    +0.000 C 
ATOM     30  O   UNL     1      -3.293   9.250  17.098  0.00  0.00    +0.000 OA
BRANCH  29  32
ATOM     31  C   UNL     1      -2.894  10.471  14.756  0.00  0.00    +0.000 C 
ATOM     32  O   UNL     1      -3.111  11.219  15.953  0.00  0.00    +0.000 OA
ENDBRANCH  29  32
ENDBRANCH   1  29
TORSDOF 6
ENDMDL
MODEL 6
REMARK VINA RESULT:      -5.7      1.280      1.549
REMARK  Name = 
REMARK  10 active torsions:
REMARK  status: ('A' for Active; 'I' for Inactive)
REMARK    1  A    between atoms: C_1  and  O_2
REMARK    2  A    between atoms: O_2  and  C_3
REMARK    3  A    between atoms: C_3  and  C_5
REMARK    4  A    between atoms: C_6  and  C_7
REMARK    5  A    between atoms: C_14  and  C_15
REMARK    6  A    between atoms: C_21  and  N_22
REMARK    7  A    between atoms: N_25  and  C_26
REMARK    8  A    between atoms: C_26  and  C_27
REMARK    9  A    between atoms: C_26  and  C_28
REMARK   10  A    between atoms: N_31  and  C_32
REMARK                            x       y       z     vdW  Elec       q    Type
REMARK                         _______ _______ _______ _____ _____    ______ ____
ROOT
ATOM      1  C   UNL     1      -4.583  12.631  20.374  0.00  0.00    +0.000 A 
ATOM      2  C   UNL     1      -3.360  12.395  19.743  0.00  0.00    +0.000 A 
ATOM      3  C   UNL     1      -2.335  13.084  20.512  0.00  0.00    +0.000 A 
ATOM      4  C   UNL     1      -2.971  13.729  21.583  0.00  0.00    +0.000 A 
ATOM      5  N   UNL     1      -4.331  13.466  21.457  0.00  0.00    +0.000 N 
ATOM      6  C   UNL     1      -5.397  13.970  22.305  0.00  0.00    +0.000 C 
ENDROOT
BRANCH   2   7
ATOM      7  C   UNL     1      -3.233  11.584  18.514  0.00  0.00    +0.000 A 
ATOM      8  C   UNL     1      -4.087  11.778  17.413  0.00  0.00    +0.000 A 
ATOM      9  C   UNL     1      -3.954  11.008  16.252  0.00  0.00    +0.000 A 
ATOM     10  C   UNL     1      -2.923  10.087  16.155  0.00  0.00    +0.000 A 
ATOM     11  F   UNL     1      -2.769   9.380  15.028  0.00  0.00    +0.000 F 
ATOM     12  C   UNL     1      -2.043   9.897  17.210  0.00  0.00    +0.000 A 
ATOM     13  C   UNL     1      -2.224  10.614  18.397  0.00  0.00    +0.000 A 
ENDBRANCH   2   7
BRANCH   3  14
ATOM     14  C   UNL     1      -0.880  13.124  20.267  0.00  0.00    +0.000 A 
ATOM     15  C   UNL     1      -0.006  12.251  20.923  0.00  0.00    +0.000 A 
ATOM     16  C   UNL     1       1.358  12.354  20.682  0.00  0.00    +0.000 A 
ATOM     17  N   UNL     1       1.901  13.195  19.780  0.00  0.00    +0.000 NA
ATOM     18  C   UNL     1       1.046  14.014  19.137  0.00  0.00    +0.000 A 
ATOM     19  C   UNL     1      -0.317  14.053  19.387  0.00  0.00    +0.000 A 
ENDBRANCH   3  14
BRANCH   4  20
ATOM     20  N   UNL     1      -2.518  14.576  22.568  0.00  0.00    +0.000 N 
ATOM     21  C   UNL     1      -2.169  15.985  22.297  0.00  0.00    +0.000 C 
ATOM     22  C   UNL     1      -2.562  16.875  23.502  0.00  0.00    +0.000 C 
ATOM     23  N   UNL     1      -1.996  16.440  24.814  0.00  0.00    +0.000 NA
ATOM     24  C   UNL     1      -2.387  15.013  24.986  0.00  0.00    +0.000 C 
ATOM     25  C   UNL     1      -1.932  14.080  23.829  0.00  0.00    +0.000 C 
BRANCH  23  26
ATOM     26  C   UNL     1      -0.532  16.645  24.932  0.00  0.00    +0.000 C 
ATOM     27  C   UNL     1      -0.085  18.022  24.423  0.00  0.00    +0.000 C 
ATOM     28  C   UNL     1      -0.067  16.526  26.397  0.00  0.00    +0.000 C 
ENDBRANCH  23  26
ENDBRANCH   4  20
BRANCH   1  29
ATOM     29  C   UNL     1      -5.900  12.104  20.035  0.00  0.00    +0.000 C 
ATOM     30  O   UNL     1      -6.373  11.043  20.437  0.00  0.00    +0.000 OA
BRANCH  29  32
ATOM     31  C   UNL     1      -7.915  13.125  19.377  0.00  0.00    +0.000 C 
ATOM     32  O   UNL     1      -6.520  12.926  19.150  0.00  0.00    +0.000 OA
ENDBRANCH  29  32
ENDBRANCH   1  29
TORSDOF 6
ENDMDL
MODEL 7
REMARK VINA RESULT:      -5.7      0.955      1.680
REMARK  Name = 
REMARK  10 active torsions:
REMARK  status: ('A' for Active; 'I' for Inactive)
REMARK    1  A    between atoms: C_1  and  O_2
REMARK    2  A    between atoms: O_2  and  C_3
REMARK    3  A    between atoms: C_3  and  C_5
REMARK    4  A    between atoms: C_6  and  C_7
REMARK    5  A    between atoms: C_14  and  C_15
REMARK    6  A    between atoms: C_21  and  N_22
REMARK    7  A    between atoms: N_25  and  C_26
REMARK    8  A    between atoms: C_26  and  C_27
REMARK    9  A    between atoms: C_26  and  C_28
REMARK   10  A    between atoms: N_31  and  C_32
REMARK                            x       y       z     vdW  Elec       q    Type
REMARK                         _______ _______ _______ _____ _____    ______ ____
ROOT
ATOM      1  C   UNL     1      -4.787  12.379  19.654  0.00  0.00    +0.000 A 
ATOM      2  C   UNL     1      -3.549  12.116  19.064  0.00  0.00    +0.000 A 
ATOM      3  C   UNL     1      -2.531  12.751  19.887  0.00  0.00    +0.000 A 
ATOM      4  C   UNL     1      -3.186  13.392  20.950  0.00  0.00    +0.000 A 
ATOM      5  N   UNL     1      -4.548  13.179  20.767  0.00  0.00    +0.000 N 
ATOM      6  C   UNL     1      -5.629  13.699  21.587  0.00  0.00    +0.000 C 
ENDROOT
BRANCH   2   7
ATOM      7  C   UNL     1      -3.403  11.332  17.820  0.00  0.00    +0.000 A 
ATOM      8  C   UNL     1      -4.167  11.619  16.674  0.00  0.00    +0.000 A 
ATOM      9  C   UNL     1      -4.016  10.872  15.500  0.00  0.00    +0.000 A 
ATOM     10  C   UNL     1      -3.052   9.879  15.439  0.00  0.00    +0.000 A 
ATOM     11  F   UNL     1      -2.877   9.193  14.301  0.00  0.00    +0.000 F 
ATOM     12  C   UNL     1      -2.258   9.594  16.541  0.00  0.00    +0.000 A 
ATOM     13  C   UNL     1      -2.462  10.291  17.736  0.00  0.00    +0.000 A 
ENDBRANCH   2   7
BRANCH   3  14
ATOM     14  C   UNL     1      -1.068  12.747  19.697  0.00  0.00    +0.000 A 
ATOM     15  C   UNL     1      -0.455  13.559  18.738  0.00  0.00    +0.000 A 
ATOM     16  C   UNL     1       0.923  13.491  18.576  0.00  0.00    +0.000 A 
ATOM     17  N   UNL     1       1.735  12.746  19.351  0.00  0.00    +0.000 NA
ATOM     18  C   UNL     1       1.134  11.987  20.288  0.00  0.00    +0.000 A 
ATOM     19  C   UNL     1      -0.239  11.912  20.454  0.00  0.00    +0.000 A 
ENDBRANCH   3  14
BRANCH   4  20
ATOM     20  N   UNL     1      -2.742  14.198  21.972  0.00  0.00    +0.000 N 
ATOM     21  C   UNL     1      -2.077  13.654  23.173  0.00  0.00    +0.000 C 
ATOM     22  C   UNL     1      -0.964  14.619  23.653  0.00  0.00    +0.000 C 
ATOM     23  N   UNL     1      -1.413  16.023  23.895  0.00  0.00    +0.000 NA
ATOM     24  C   UNL     1      -2.079  16.472  22.640  0.00  0.00    +0.000 C 
ATOM     25  C   UNL     1      -3.256  15.566  22.181  0.00  0.00    +0.000 C 
BRANCH  23  26
ATOM     26  C   UNL     1      -2.285  16.176  25.086  0.00  0.00    +0.000 C 
ATOM     27  C   UNL     1      -1.574  15.794  26.392  0.00  0.00    +0.000 C 
ATOM     28  C   UNL     1      -2.771  17.630  25.238  0.00  0.00    +0.000 C 
ENDBRANCH  23  26
ENDBRANCH   4  20
BRANCH   1  29
ATOM     29  C   UNL     1      -6.106  11.906  19.253  0.00  0.00    +0.000 C 
ATOM     30  O   UNL     1      -6.923  12.538  18.585  0.00  0.00    +0.000 OA
BRANCH  29  32
ATOM     31  C   UNL     1      -7.518  10.573  20.583  0.00  0.00    +0.000 C 
ATOM     32  O   UNL     1      -6.343  10.677  19.778  0.00  0.00    +0.000 OA
ENDBRANCH  29  32
ENDBRANCH   1  29
TORSDOF 6
ENDMDL
MODEL 8
REMARK VINA RESULT:      -5.6      0.744      1.216
REMARK  Name = 
REMARK  10 active torsions:
REMARK  status: ('A' for Active; 'I' for Inactive)
REMARK    1  A    between atoms: C_1  and  O_2
REMARK    2  A    between atoms: O_2  and  C_3
REMARK    3  A    between atoms: C_3  and  C_5
REMARK    4  A    between atoms: C_6  and  C_7
REMARK    5  A    between atoms: C_14  and  C_15
REMARK    6  A    between atoms: C_21  and  N_22
REMARK    7  A    between atoms: N_25  and  C_26
REMARK    8  A    between atoms: C_26  and  C_27
REMARK    9  A    between atoms: C_26  and  C_28
REMARK   10  A    between atoms: N_31  and  C_32
REMARK                            x       y       z     vdW  Elec       q    Type
REMARK                         _______ _______ _______ _____ _____    ______ ____
ROOT
ATOM      1  C   UNL     1      -5.254  12.062  19.474  0.00  0.00    +0.000 A 
ATOM      2  C   UNL     1      -3.956  11.877  18.995  0.00  0.00    +0.000 A 
ATOM      3  C   UNL     1      -3.044  12.426  19.988  0.00  0.00    +0.000 A 
ATOM      4  C   UNL     1      -3.820  12.940  21.037  0.00  0.00    +0.000 A 
ATOM      5  N   UNL     1      -5.151  12.736  20.687  0.00  0.00    +0.000 N 
ATOM      6  C   UNL     1      -6.322  13.153  21.438  0.00  0.00    +0.000 C 
ENDROOT
BRANCH   2   7
ATOM      7  C   UNL     1      -3.663  11.236  17.697  0.00  0.00    +0.000 A 
ATOM      8  C   UNL     1      -4.179  11.745  16.491  0.00  0.00    +0.000 A 
ATOM      9  C   UNL     1      -3.890  11.132  15.266  0.00  0.00    +0.000 A 
ATOM     10  C   UNL     1      -3.027  10.049  15.229  0.00  0.00    +0.000 A 
ATOM     11  F   UNL     1      -2.716   9.489  14.052  0.00  0.00    +0.000 F 
ATOM     12  C   UNL     1      -2.473   9.544  16.396  0.00  0.00    +0.000 A 
ATOM     13  C   UNL     1      -2.823  10.111  17.626  0.00  0.00    +0.000 A 
ENDBRANCH   2   7
BRANCH   3  14
ATOM     14  C   UNL     1      -1.569  12.455  19.957  0.00  0.00    +0.000 A 
ATOM     15  C   UNL     1      -0.806  11.524  20.669  0.00  0.00    +0.000 A 
ATOM     16  C   UNL     1       0.579  11.618  20.634  0.00  0.00    +0.000 A 
ATOM     17  N   UNL     1       1.254  12.508  19.880  0.00  0.00    +0.000 NA
ATOM     18  C   UNL     1       0.507  13.384  19.179  0.00  0.00    +0.000 A 
ATOM     19  C   UNL     1      -0.877  13.431  19.233  0.00  0.00    +0.000 A 
ENDBRANCH   3  14
BRANCH   4  20
ATOM     20  N   UNL     1      -3.504  13.632  22.183  0.00  0.00    +0.000 N 
ATOM     21  C   UNL     1      -2.982  15.013  22.150  0.00  0.00    +0.000 C 
ATOM     22  C   UNL     1      -3.531  15.822  23.351  0.00  0.00    +0.000 C 
ATOM     23  N   UNL     1      -3.287  15.203  24.689  0.00  0.00    +0.000 NA
ATOM     24  C   UNL     1      -3.833  13.819  24.614  0.00  0.00    +0.000 C 
ATOM     25  C   UNL     1      -3.235  12.956  23.467  0.00  0.00    +0.000 C 
BRANCH  23  26
ATOM     26  C   UNL     1      -1.866  15.231  25.111  0.00  0.00    +0.000 C 
ATOM     27  C   UNL     1      -0.898  15.320  23.923  0.00  0.00    +0.000 C 
ATOM     28  C   UNL     1      -1.579  16.439  26.025  0.00  0.00    +0.000 C 
ENDBRANCH  23  26
ENDBRANCH   4  20
BRANCH   1  29
ATOM     29  C   UNL     1      -6.514  11.625  18.885  0.00  0.00    +0.000 C 
ATOM     30  O   UNL     1      -6.818  10.463  18.621  0.00  0.00    +0.000 OA
BRANCH  29  32
ATOM     31  C   UNL     1      -7.044  13.324  17.346  0.00  0.00    +0.000 C 
ATOM     32  O   UNL     1      -7.297  12.697  18.604  0.00  0.00    +0.000 OA
ENDBRANCH  29  32
ENDBRANCH   1  29
TORSDOF 6
ENDMDL
MODEL 9
REMARK VINA RESULT:      -5.5      1.145      2.123
REMARK  Name = 
REMARK  10 active torsions:
REMARK  status: ('A' for Active; 'I' for Inactive)
REMARK    1  A    between atoms: C_1  and  O_2
REMARK    2  A    between atoms: O_2  and  C_3
REMARK    3  A    between atoms: C_3  and  C_5
REMARK    4  A    between atoms: C_6  and  C_7
REMARK    5  A    between atoms: C_14  and  C_15
REMARK    6  A    between atoms: C_21  and  N_22
REMARK    7  A    between atoms: N_25  and  C_26
REMARK    8  A    between atoms: C_26  and  C_27
REMARK    9  A    between atoms: C_26  and  C_28
REMARK   10  A    between atoms: N_31  and  C_32
REMARK                            x       y       z     vdW  Elec       q    Type
REMARK                         _______ _______ _______ _____ _____    ______ ____
ROOT
ATOM      1  C   UNL     1      -4.687  11.970  19.133  0.00  0.00    +0.000 A 
ATOM      2  C   UNL     1      -3.422  11.822  18.562  0.00  0.00    +0.000 A 
ATOM      3  C   UNL     1      -2.466  12.468  19.450  0.00  0.00    +0.000 A 
ATOM      4  C   UNL     1      -3.185  12.999  20.531  0.00  0.00    +0.000 A 
ATOM      5  N   UNL     1      -4.527  12.713  20.298  0.00  0.00    +0.000 N 
ATOM      6  C   UNL     1      -5.657  13.112  21.118  0.00  0.00    +0.000 C 
ENDROOT
BRANCH   2   7
ATOM      7  C   UNL     1      -3.196  11.126  17.278  0.00  0.00    +0.000 A 
ATOM      8  C   UNL     1      -2.361   9.998  17.189  0.00  0.00    +0.000 A 
ATOM      9  C   UNL     1      -2.159   9.344  15.969  0.00  0.00    +0.000 A 
ATOM     10  C   UNL     1      -2.844   9.768  14.842  0.00  0.00    +0.000 A 
ATOM     11  F   UNL     1      -2.684   9.116  13.683  0.00  0.00    +0.000 F 
ATOM     12  C   UNL     1      -3.702  10.857  14.904  0.00  0.00    +0.000 A 
ATOM     13  C   UNL     1      -3.845  11.555  16.107  0.00  0.00    +0.000 A 
ENDBRANCH   2   7
BRANCH   3  14
ATOM     14  C   UNL     1      -1.001  12.567  19.300  0.00  0.00    +0.000 A 
ATOM     15  C   UNL     1      -0.412  13.601  18.566  0.00  0.00    +0.000 A 
ATOM     16  C   UNL     1       0.969  13.629  18.427  0.00  0.00    +0.000 A 
ATOM     17  N   UNL     1       1.803  12.761  19.031  0.00  0.00    +0.000 NA
ATOM     18  C   UNL     1       1.224  11.783  19.756  0.00  0.00    +0.000 A 
ATOM     19  C   UNL     1      -0.147  11.617  19.866  0.00  0.00    +0.000 A 
ENDBRANCH   3  14
BRANCH   4  20
ATOM     20  N   UNL     1      -2.818  13.767  21.611  0.00  0.00    +0.000 N 
ATOM     21  C   UNL     1      -2.511  13.177  22.930  0.00  0.00    +0.000 C 
ATOM     22  C   UNL     1      -1.363  13.962  23.613  0.00  0.00    +0.000 C 
ATOM     23  N   UNL     1      -1.598  15.432  23.741  0.00  0.00    +0.000 NA
ATOM     24  C   UNL     1      -1.912  15.925  22.370  0.00  0.00    +0.000 C 
ATOM     25  C   UNL     1      -3.115  15.211  21.693  0.00  0.00    +0.000 C 
BRANCH  23  26
ATOM     26  C   UNL     1      -2.647  15.787  24.726  0.00  0.00    +0.000 C 
ATOM     27  C   UNL     1      -2.467  15.065  26.068  0.00  0.00    +0.000 C 
ATOM     28  C   UNL     1      -2.648  17.301  25.019  0.00  0.00    +0.000 C 
ENDBRANCH  23  26
ENDBRANCH   4  20
BRANCH   1  29
ATOM     29  C   UNL     1      -5.964  11.441  18.669  0.00  0.00    +0.000 C 
ATOM     30  O   UNL     1      -6.453  10.359  18.992  0.00  0.00    +0.000 OA
BRANCH  29  32
ATOM     31  C   UNL     1      -7.661  13.012  18.234  0.00  0.00    +0.000 C 
ATOM     32  O   UNL     1      -6.522  12.287  17.767  0.00  0.00    +0.000 OA
ENDBRANCH  29  32
ENDBRANCH   1  29
TORSDOF 6
ENDMDL
