MODEL 1
REMARK VINA RESULT:      -5.7      0.000      0.000
REMARK  Name = 
REMARK  7 active torsions:
REMARK  status: ('A' for Active; 'I' for Inactive)
REMARK    1  A    between atoms: C_1  and  O_2
REMARK    2  A    between atoms: O_2  and  C_3
REMARK    3  A    between atoms: C_8  and  C_9
REMARK    4  A    between atoms: C_9  and  S_10
REMARK    5  A    between atoms: C_9  and  P_11
REMARK    6  A    between atoms: P_11  and  O_13
REMARK    7  A    between atoms: P_11  and  O_14
REMARK                            x       y       z     vdW  Elec       q    Type
REMARK                         _______ _______ _______ _____ _____    ______ ____
ROOT
ATOM      1  C   UNL     1       5.585   5.909  17.637  0.00  0.00    +0.000 C 
ENDROOT
BRANCH   1   7
ATOM      2  C   UNL     1       3.033   5.837  18.037  0.00  0.00    +0.000 A 
ATOM      3  C   UNL     1       1.819   5.141  18.000  0.00  0.00    +0.000 A 
ATOM      4  C   UNL     1       1.787   3.791  17.665  0.00  0.00    +0.000 A 
ATOM      5  C   UNL     1       2.968   3.131  17.329  0.00  0.00    +0.000 A 
ATOM      6  C   UNL     1       4.170   3.841  17.275  0.00  0.00    +0.000 A 
ATOM      7  C   UNL     1       4.222   5.210  17.609  0.00  0.00    +0.000 A 
BRANCH   2   9
ATOM      8  C   UNL     1       2.246   8.077  17.951  0.00  0.00    +0.000 C 
ATOM      9  O   UNL     1       3.150   7.122  18.510  0.00  0.00    +0.000 OA
ENDBRANCH   2   9
ENDBRANCH   1   7
BRANCH   1  10
ATOM     10  S   UNL     1       6.565   5.421  19.101  0.00  0.00    +0.000 S 
ATOM     11  H   UNL     1       5.668   5.823  20.014  0.00  0.00    +0.000 HD
ENDBRANCH   1  10
BRANCH   1  12
ATOM     12  P   UNL     1       6.556   5.569  16.124  0.00  0.00    +0.000 P 
ATOM     13  O   UNL     1       5.571   6.342  15.233  0.00  0.00    +0.000 OA
BRANCH  12  14
ATOM     14  O   UNL     1       7.669   6.723  16.495  0.00  0.00    +0.000 OA
ATOM     15  H   UNL     1       7.922   7.217  15.693  0.00  0.00    +0.000 HD
ENDBRANCH  12  14
BRANCH  12  16
ATOM     16  O   UNL     1       7.475   5.249  14.693  0.00  0.00    +0.000 OA
ATOM     17  H   UNL     1       6.802   5.091  14.001  0.00  0.00    +0.000 HD
ENDBRANCH  12  16
ENDBRANCH   1  12
TORSDOF 6
ENDMDL
MODEL 2
REMARK VINA RESULT:      -5.7      1.333      1.527
REMARK  Name = 
REMARK  7 active torsions:
REMARK  status: ('A' for Active; 'I' for Inactive)
REMARK    1  A    between atoms: C_1  and  O_2
REMARK    2  A    between atoms: O_2  and  C_3
REMARK    3  A    between atoms: C_8  and  C_9
REMARK    4  A    between atoms: C_9  and  S_10
REMARK    5  A    between atoms: C_9  and  P_11
REMARK    6  A    between atoms: P_11  and  O_13
REMARK    7  A    between atoms: P_11  and  O_14
REMARK                            x       y       z     vdW  Elec       q    Type
REMARK                         _______ _______ _______ _____ _____    ______ ____
ROOT
ATOM      1  C   UNL     1       4.795   5.086  17.036  0.00  0.00    +0.000 C 
ENDROOT
BRANCH   1   7
ATOM      2  C   UNL     1       2.420   4.821  18.020  0.00  0.00    +0.000 A 
ATOM      3  C   UNL     1       1.365   4.001  18.436  0.00  0.00    +0.000 A 
ATOM      4  C   UNL     1       1.510   2.618  18.459  0.00  0.00    +0.000 A 
ATOM      5  C   UNL     1       2.704   2.038  18.031  0.00  0.00    +0.000 A 
ATOM      6  C   UNL     1       3.727   2.844  17.529  0.00  0.00    +0.000 A 
ATOM      7  C   UNL     1       3.598   4.248  17.496  0.00  0.00    +0.000 A 
BRANCH   2   9
ATOM      8  C   UNL     1       2.469   6.719  19.448  0.00  0.00    +0.000 C 
ATOM      9  O   UNL     1       2.394   6.191  18.122  0.00  0.00    +0.000 OA
ENDBRANCH   2   9
ENDBRANCH   1   7
BRANCH   1  10
ATOM     10  S   UNL     1       5.998   5.347  18.388  0.00  0.00    +0.000 S 
ATOM     11  H   UNL     1       5.457   4.457  19.234  0.00  0.00    +0.000 HD
ENDBRANCH   1  10
BRANCH   1  12
ATOM     12  P   UNL     1       5.651   4.327  15.608  0.00  0.00    +0.000 P 
ATOM     13  O   UNL     1       5.971   5.693  14.983  0.00  0.00    +0.000 OA
BRANCH  12  14
ATOM     14  O   UNL     1       7.005   4.022  16.493  0.00  0.00    +0.000 OA
ATOM     15  H   UNL     1       7.120   4.708  17.178  0.00  0.00    +0.000 HD
ENDBRANCH  12  14
BRANCH  12  16
ATOM     16  O   UNL     1       6.461   3.609  14.258  0.00  0.00    +0.000 OA
ATOM     17  H   UNL     1       7.410   3.761  14.434  0.00  0.00    +0.000 HD
ENDBRANCH  12  16
ENDBRANCH   1  12
TORSDOF 6
ENDMDL
MODEL 3
REMARK VINA RESULT:      -5.7      2.459      3.426
REMARK  Name = 
REMARK  7 active torsions:
REMARK  status: ('A' for Active; 'I' for Inactive)
REMARK    1  A    between atoms: C_1  and  O_2
REMARK    2  A    between atoms: O_2  and  C_3
REMARK    3  A    between atoms: C_8  and  C_9
REMARK    4  A    between atoms: C_9  and  S_10
REMARK    5  A    between atoms: C_9  and  P_11
REMARK    6  A    between atoms: P_11  and  O_13
REMARK    7  A    between atoms: P_11  and  O_14
REMARK                            x       y       z     vdW  Elec       q    Type
REMARK                         _______ _______ _______ _____ _____    ______ ____
ROOT
ATOM      1  C   UNL     1       5.882   4.570  17.077  0.00  0.00    +0.000 C 
ENDROOT
BRANCH   1   7
ATOM      2  C   UNL     1       3.408   4.067  17.632  0.00  0.00    +0.000 A 
ATOM      3  C   UNL     1       2.137   4.512  18.012  0.00  0.00    +0.000 A 
ATOM      4  C   UNL     1       1.873   5.871  18.144  0.00  0.00    +0.000 A 
ATOM      5  C   UNL     1       2.890   6.800  17.930  0.00  0.00    +0.000 A 
ATOM      6  C   UNL     1       4.183   6.360  17.640  0.00  0.00    +0.000 A 
ATOM      7  C   UNL     1       4.471   4.987  17.504  0.00  0.00    +0.000 A 
BRANCH   2   9
ATOM      8  C   UNL     1       3.436   1.810  18.375  0.00  0.00    +0.000 C 
ATOM      9  O   UNL     1       3.690   2.756  17.334  0.00  0.00    +0.000 OA
ENDBRANCH   2   9
ENDBRANCH   1   7
BRANCH   1  10
ATOM     10  S   UNL     1       6.257   5.100  15.368  0.00  0.00    +0.000 S 
ATOM     11  H   UNL     1       7.590   5.114  15.512  0.00  0.00    +0.000 HD
ENDBRANCH   1  10
BRANCH   1  12
ATOM     12  P   UNL     1       7.160   5.234  18.206  0.00  0.00    +0.000 P 
ATOM     13  O   UNL     1       6.510   4.583  19.438  0.00  0.00    +0.000 OA
BRANCH  12  14
ATOM     14  O   UNL     1       8.256   4.095  17.748  0.00  0.00    +0.000 OA
ATOM     15  H   UNL     1       9.084   4.203  18.253  0.00  0.00    +0.000 HD
ENDBRANCH  12  14
BRANCH  12  16
ATOM     16  O   UNL     1       8.368   5.861  19.274  0.00  0.00    +0.000 OA
ATOM     17  H   UNL     1       9.216   5.637  18.843  0.00  0.00    +0.000 HD
ENDBRANCH  12  16
ENDBRANCH   1  12
TORSDOF 6
ENDMDL
MODEL 4
REMARK VINA RESULT:      -5.5      3.433      4.974
REMARK  Name = 
REMARK  7 active torsions:
REMARK  status: ('A' for Active; 'I' for Inactive)
REMARK    1  A    between atoms: C_1  and  O_2
REMARK    2  A    between atoms: O_2  and  C_3
REMARK    3  A    between atoms: C_8  and  C_9
REMARK    4  A    between atoms: C_9  and  S_10
REMARK    5  A    between atoms: C_9  and  P_11
REMARK    6  A    between atoms: P_11  and  O_13
REMARK    7  A    between atoms: P_11  and  O_14
REMARK                            x       y       z     vdW  Elec       q    Type
REMARK                         _______ _______ _______ _____ _____    ______ ____
ROOT
ATOM      1  C   UNL     1       4.167   3.971  18.811  0.00  0.00    +0.000 C 
ENDROOT
BRANCH   1   7
ATOM      2  C   UNL     1       6.487   4.490  17.797  0.00  0.00    +0.000 A 
ATOM      3  C   UNL     1       7.309   4.662  16.678  0.00  0.00    +0.000 A 
ATOM      4  C   UNL     1       6.774   4.634  15.394  0.00  0.00    +0.000 A 
ATOM      5  C   UNL     1       5.411   4.399  15.216  0.00  0.00    +0.000 A 
ATOM      6  C   UNL     1       4.600   4.137  16.322  0.00  0.00    +0.000 A 
ATOM      7  C   UNL     1       5.125   4.159  17.630  0.00  0.00    +0.000 A 
BRANCH   2   9
ATOM      8  C   UNL     1       7.761   5.799  19.317  0.00  0.00    +0.000 C 
ATOM      9  O   UNL     1       6.925   4.662  19.088  0.00  0.00    +0.000 OA
ENDBRANCH   2   9
ENDBRANCH   1   7
BRANCH   1  10
ATOM     10  S   UNL     1       3.476   5.565  19.381  0.00  0.00    +0.000 S 
ATOM     11  H   UNL     1       2.461   5.039  20.082  0.00  0.00    +0.000 HD
ENDBRANCH   1  10
BRANCH   1  12
ATOM     12  P   UNL     1       2.793   2.834  18.400  0.00  0.00    +0.000 P 
ATOM     13  O   UNL     1       3.663   1.588  18.627  0.00  0.00    +0.000 OA
BRANCH  12  14
ATOM     14  O   UNL     1       2.089   3.041  19.873  0.00  0.00    +0.000 OA
ATOM     15  H   UNL     1       1.582   2.244  20.118  0.00  0.00    +0.000 HD
ENDBRANCH  12  14
BRANCH  12  16
ATOM     16  O   UNL     1       1.495   1.759  18.011  0.00  0.00    +0.000 OA
ATOM     17  H   UNL     1       0.765   2.034  18.601  0.00  0.00    +0.000 HD
ENDBRANCH  12  16
ENDBRANCH   1  12
TORSDOF 6
ENDMDL
MODEL 5
REMARK VINA RESULT:      -5.5      2.209      3.253
REMARK  Name = 
REMARK  7 active torsions:
REMARK  status: ('A' for Active; 'I' for Inactive)
REMARK    1  A    between atoms: C_1  and  O_2
REMARK    2  A    between atoms: O_2  and  C_3
REMARK    3  A    between atoms: C_8  and  C_9
REMARK    4  A    between atoms: C_9  and  S_10
REMARK    5  A    between atoms: C_9  and  P_11
REMARK    6  A    between atoms: P_11  and  O_13
REMARK    7  A    between atoms: P_11  and  O_14
REMARK                            x       y       z     vdW  Elec       q    Type
REMARK                         _______ _______ _______ _____ _____    ______ ____
ROOT
ATOM      1  C   UNL     1       5.847   4.975  17.413  0.00  0.00    +0.000 C 
ENDROOT
BRANCH   1   7
ATOM      2  C   UNL     1       4.223   4.368  19.329  0.00  0.00    +0.000 A 
ATOM      3  C   UNL     1       3.057   4.630  20.059  0.00  0.00    +0.000 A 
ATOM      4  C   UNL     1       2.187   5.641  19.665  0.00  0.00    +0.000 A 
ATOM      5  C   UNL     1       2.493   6.426  18.554  0.00  0.00    +0.000 A 
ATOM      6  C   UNL     1       3.698   6.231  17.875  0.00  0.00    +0.000 A 
ATOM      7  C   UNL     1       4.593   5.212  18.261  0.00  0.00    +0.000 A 
BRANCH   2   9
ATOM      8  C   UNL     1       4.392   2.125  20.093  0.00  0.00    +0.000 C 
ATOM      9  O   UNL     1       5.037   3.289  19.573  0.00  0.00    +0.000 OA
ENDBRANCH   2   9
ENDBRANCH   1   7
BRANCH   1  10
ATOM     10  S   UNL     1       5.428   4.347  15.748  0.00  0.00    +0.000 S 
ATOM     11  H   UNL     1       5.270   5.550  15.177  0.00  0.00    +0.000 HD
ENDBRANCH   1  10
BRANCH   1  12
ATOM     12  P   UNL     1       6.856   6.492  17.247  0.00  0.00    +0.000 P 
ATOM     13  O   UNL     1       7.831   6.049  18.348  0.00  0.00    +0.000 OA
BRANCH  12  14
ATOM     14  O   UNL     1       7.592   5.938  15.884  0.00  0.00    +0.000 OA
ATOM     15  H   UNL     1       7.344   5.008  15.722  0.00  0.00    +0.000 HD
ENDBRANCH  12  14
BRANCH  12  16
ATOM     16  O   UNL     1       7.809   7.927  17.090  0.00  0.00    +0.000 OA
ATOM     17  H   UNL     1       8.668   7.613  16.743  0.00  0.00    +0.000 HD
ENDBRANCH  12  16
ENDBRANCH   1  12
TORSDOF 6
ENDMDL
MODEL 6
REMARK VINA RESULT:      -5.4      3.484      4.346
REMARK  Name = 
REMARK  7 active torsions:
REMARK  status: ('A' for Active; 'I' for Inactive)
REMARK    1  A    between atoms: C_1  and  O_2
REMARK    2  A    between atoms: O_2  and  C_3
REMARK    3  A    between atoms: C_8  and  C_9
REMARK    4  A    between atoms: C_9  and  S_10
REMARK    5  A    between atoms: C_9  and  P_11
REMARK    6  A    between atoms: P_11  and  O_13
REMARK    7  A    between atoms: P_11  and  O_14
REMARK                            x       y       z     vdW  Elec       q    Type
REMARK                         _______ _______ _______ _____ _____    ______ ____
ROOT
ATOM      1  C   UNL     1       3.234   3.963  18.826  0.00  0.00    +0.000 C 
ENDROOT
BRANCH   1   7
ATOM      2  C   UNL     1       3.984   6.117  17.610  0.00  0.00    +0.000 A 
ATOM      3  C   UNL     1       4.700   6.742  16.582  0.00  0.00    +0.000 A 
ATOM      4  C   UNL     1       5.333   5.988  15.600  0.00  0.00    +0.000 A 
ATOM      5  C   UNL     1       5.286   4.595  15.656  0.00  0.00    +0.000 A 
ATOM      6  C   UNL     1       4.652   3.964  16.728  0.00  0.00    +0.000 A 
ATOM      7  C   UNL     1       4.006   4.712  17.734  0.00  0.00    +0.000 A 
BRANCH   2   9
ATOM      8  C   UNL     1       2.564   7.977  18.018  0.00  0.00    +0.000 C 
ATOM      9  O   UNL     1       3.210   6.803  18.514  0.00  0.00    +0.000 OA
ENDBRANCH   2   9
ENDBRANCH   1   7
BRANCH   1  10
ATOM     10  S   UNL     1       1.680   3.245  18.184  0.00  0.00    +0.000 S 
ATOM     11  H   UNL     1       2.119   1.979  18.131  0.00  0.00    +0.000 HD
ENDBRANCH   1  10
BRANCH   1  12
ATOM     12  P   UNL     1       4.240   2.637  19.585  0.00  0.00    +0.000 P 
ATOM     13  O   UNL     1       3.371   2.605  20.851  0.00  0.00    +0.000 OA
BRANCH  12  14
ATOM     14  O   UNL     1       3.540   1.476  18.652  0.00  0.00    +0.000 OA
ATOM     15  H   UNL     1       3.345   1.831  17.764  0.00  0.00    +0.000 HD
ENDBRANCH  12  14
BRANCH  12  16
ATOM     16  O   UNL     1       5.192   1.383  20.303  0.00  0.00    +0.000 OA
ATOM     17  H   UNL     1       4.815   0.555  19.945  0.00  0.00    +0.000 HD
ENDBRANCH  12  16
ENDBRANCH   1  12
TORSDOF 6
ENDMDL
MODEL 7
REMARK VINA RESULT:      -5.4      2.721      3.687
REMARK  Name = 
REMARK  7 active torsions:
REMARK  status: ('A' for Active; 'I' for Inactive)
REMARK    1  A    between atoms: C_1  and  O_2
REMARK    2  A    between atoms: O_2  and  C_3
REMARK    3  A    between atoms: C_8  and  C_9
REMARK    4  A    between atoms: C_9  and  S_10
REMARK    5  A    between atoms: C_9  and  P_11
REMARK    6  A    between atoms: P_11  and  O_13
REMARK    7  A    between atoms: P_11  and  O_14
REMARK                            x       y       z     vdW  Elec       q    Type
REMARK                         _______ _______ _______ _____ _____    ______ ____
ROOT
ATOM      1  C   UNL     1       4.143   5.231  17.620  0.00  0.00    +0.000 C 
ENDROOT
BRANCH   1   7
ATOM      2  C   UNL     1       2.608   3.503  18.776  0.00  0.00    +0.000 A 
ATOM      3  C   UNL     1       1.729   3.164  19.811  0.00  0.00    +0.000 A 
ATOM      4  C   UNL     1       1.315   4.122  20.732  0.00  0.00    +0.000 A 
ATOM      5  C   UNL     1       1.807   5.424  20.647  0.00  0.00    +0.000 A 
ATOM      6  C   UNL     1       2.753   5.747  19.673  0.00  0.00    +0.000 A 
ATOM      7  C   UNL     1       3.186   4.790  18.732  0.00  0.00    +0.000 A 
BRANCH   2   9
ATOM      8  C   UNL     1       3.493   1.394  18.136  0.00  0.00    +0.000 C 
ATOM      9  O   UNL     1       2.928   2.648  17.750  0.00  0.00    +0.000 OA
ENDBRANCH   2   9
ENDBRANCH   1   7
BRANCH   1  10
ATOM     10  S   UNL     1       4.072   7.037  17.343  0.00  0.00    +0.000 S 
ATOM     11  H   UNL     1       5.281   7.142  16.773  0.00  0.00    +0.000 HD
ENDBRANCH   1  10
BRANCH   1  12
ATOM     12  P   UNL     1       5.871   4.746  17.976  0.00  0.00    +0.000 P 
ATOM     13  O   UNL     1       5.481   4.060  19.295  0.00  0.00    +0.000 OA
BRANCH  12  14
ATOM     14  O   UNL     1       5.815   3.499  16.904  0.00  0.00    +0.000 OA
ATOM     15  H   UNL     1       6.617   2.949  16.985  0.00  0.00    +0.000 HD
ENDBRANCH  12  14
BRANCH  12  16
ATOM     16  O   UNL     1       7.505   4.287  18.313  0.00  0.00    +0.000 OA
ATOM     17  H   UNL     1       7.907   5.085  18.709  0.00  0.00    +0.000 HD
ENDBRANCH  12  16
ENDBRANCH   1  12
TORSDOF 6
ENDMDL
MODEL 8
REMARK VINA RESULT:      -5.4      2.210      3.261
REMARK  Name = 
REMARK  7 active torsions:
REMARK  status: ('A' for Active; 'I' for Inactive)
REMARK    1  A    between atoms: C_1  and  O_2
REMARK    2  A    between atoms: O_2  and  C_3
REMARK    3  A    between atoms: C_8  and  C_9
REMARK    4  A    between atoms: C_9  and  S_10
REMARK    5  A    between atoms: C_9  and  P_11
REMARK    6  A    between atoms: P_11  and  O_13
REMARK    7  A    between atoms: P_11  and  O_14
REMARK                            x       y       z     vdW  Elec       q    Type
REMARK                         _______ _______ _______ _____ _____    ______ ____
ROOT
ATOM      1  C   UNL     1       4.653   4.517  18.372  0.00  0.00    +0.000 C 
ENDROOT
BRANCH   1   7
ATOM      2  C   UNL     1       2.914   5.920  19.670  0.00  0.00    +0.000 A 
ATOM      3  C   UNL     1       2.161   7.092  19.807  0.00  0.00    +0.000 A 
ATOM      4  C   UNL     1       2.189   8.072  18.820  0.00  0.00    +0.000 A 
ATOM      5  C   UNL     1       3.001   7.904  17.699  0.00  0.00    +0.000 A 
ATOM      6  C   UNL     1       3.824   6.781  17.599  0.00  0.00    +0.000 A 
ATOM      7  C   UNL     1       3.811   5.778  18.590  0.00  0.00    +0.000 A 
BRANCH   2   9
ATOM      8  C   UNL     1       1.497   4.310  20.692  0.00  0.00    +0.000 C 
ATOM      9  O   UNL     1       2.809   4.853  20.528  0.00  0.00    +0.000 OA
ENDBRANCH   2   9
ENDBRANCH   1   7
BRANCH   1  10
ATOM     10  S   UNL     1       3.687   3.187  17.571  0.00  0.00    +0.000 S 
ATOM     11  H   UNL     1       4.510   3.023  16.525  0.00  0.00    +0.000 HD
ENDBRANCH   1  10
BRANCH   1  12
ATOM     12  P   UNL     1       6.147   4.860  17.373  0.00  0.00    +0.000 P 
ATOM     13  O   UNL     1       7.090   4.389  18.492  0.00  0.00    +0.000 OA
BRANCH  12  14
ATOM     14  O   UNL     1       5.951   3.490  16.483  0.00  0.00    +0.000 OA
ATOM     15  H   UNL     1       6.805   3.026  16.386  0.00  0.00    +0.000 HD
ENDBRANCH  12  14
BRANCH  12  16
ATOM     16  O   UNL     1       7.560   5.184  16.428  0.00  0.00    +0.000 OA
ATOM     17  H   UNL     1       8.296   5.157  17.072  0.00  0.00    +0.000 HD
ENDBRANCH  12  16
ENDBRANCH   1  12
TORSDOF 6
ENDMDL
MODEL 9
REMARK VINA RESULT:      -5.4      2.609      3.607
REMARK  Name = 
REMARK  7 active torsions:
REMARK  status: ('A' for Active; 'I' for Inactive)
REMARK    1  A    between atoms: C_1  and  O_2
REMARK    2  A    between atoms: O_2  and  C_3
REMARK    3  A    between atoms: C_8  and  C_9
REMARK    4  A    between atoms: C_9  and  S_10
REMARK    5  A    between atoms: C_9  and  P_11
REMARK    6  A    between atoms: P_11  and  O_13
REMARK    7  A    between atoms: P_11  and  O_14
REMARK                            x       y       z     vdW  Elec       q    Type
REMARK                         _______ _______ _______ _____ _____    ______ ____
ROOT
ATOM      1  C   UNL     1       5.218   5.196  18.050  0.00  0.00    +0.000 C 
ENDROOT
BRANCH   1   7
ATOM      2  C   UNL     1       3.587   3.773  19.463  0.00  0.00    +0.000 A 
ATOM      3  C   UNL     1       2.483   3.687  20.318  0.00  0.00    +0.000 A 
ATOM      4  C   UNL     1       1.729   4.817  20.618  0.00  0.00    +0.000 A 
ATOM      5  C   UNL     1       2.096   6.055  20.092  0.00  0.00    +0.000 A 
ATOM      6  C   UNL     1       3.249   6.165  19.312  0.00  0.00    +0.000 A 
ATOM      7  C   UNL     1       4.026   5.031  18.999  0.00  0.00    +0.000 A 
BRANCH   2   9
ATOM      8  C   UNL     1       3.479   1.643  18.415  0.00  0.00    +0.000 C 
ATOM      9  O   UNL     1       4.274   2.674  19.005  0.00  0.00    +0.000 OA
ENDBRANCH   2   9
ENDBRANCH   1   7
BRANCH   1  10
ATOM     10  S   UNL     1       4.983   6.602  16.906  0.00  0.00    +0.000 S 
ATOM     11  H   UNL     1       5.718   7.480  17.606  0.00  0.00    +0.000 HD
ENDBRANCH   1  10
BRANCH   1  12
ATOM     12  P   UNL     1       6.789   5.418  18.962  0.00  0.00    +0.000 P 
ATOM     13  O   UNL     1       7.486   4.297  18.175  0.00  0.00    +0.000 OA
BRANCH  12  14
ATOM     14  O   UNL     1       7.187   6.755  18.089  0.00  0.00    +0.000 OA
ATOM     15  H   UNL     1       8.137   6.742  17.868  0.00  0.00    +0.000 HD
ENDBRANCH  12  14
BRANCH  12  16
ATOM     16  O   UNL     1       8.274   5.628  19.823  0.00  0.00    +0.000 OA
ATOM     17  H   UNL     1       8.514   6.564  19.673  0.00  0.00    +0.000 HD
ENDBRANCH  12  16
ENDBRANCH   1  12
TORSDOF 6
ENDMDL
