MODEL 1
REMARK VINA RESULT:      -9.3      0.000      0.000
REMARK  Name = 
REMARK  8 active torsions:
REMARK  status: ('A' for Active; 'I' for Inactive)
REMARK    1  A    between atoms: C_1  and  C_2
REMARK    2  A    between atoms: C_2  and  C_3
REMARK    3  A    between atoms: C_3  and  C_4
REMARK    4  A    between atoms: C_9  and  C_10
REMARK    5  A    between atoms: N_15  and  C_16
REMARK    6  A    between atoms: C_16  and  C_17
REMARK    7  A    between atoms: C_20  and  C_21
REMARK    8  A    between atoms: C_26  and  C_27
REMARK                            x       y       z     vdW  Elec       q    Type
REMARK                         _______ _______ _______ _____ _____    ______ ____
ROOT
ATOM      1  C   UNL     1       0.947   8.918  19.872  0.00  0.00    +0.000 A 
ATOM      2  C   UNL     1       1.422   9.134  18.578  0.00  0.00    +0.000 A 
ATOM      3  C   UNL     1       2.281   8.215  17.970  0.00  0.00    +0.000 A 
ATOM      4  C   UNL     1       2.767   7.091  18.659  0.00  0.00    +0.000 A 
ATOM      5  C   UNL     1       2.482   7.041  20.034  0.00  0.00    +0.000 A 
ATOM      6  C   UNL     1       1.548   7.903  20.621  0.00  0.00    +0.000 A 
ENDROOT
BRANCH   4   7
ATOM      7  C   UNL     1       3.492   5.997  17.941  0.00  0.00    +0.000 A 
ATOM      8  C   UNL     1       4.386   6.331  16.894  0.00  0.00    +0.000 A 
ATOM      9  C   UNL     1       5.081   5.363  16.161  0.00  0.00    +0.000 A 
ATOM     10  C   UNL     1       4.937   4.022  16.474  0.00  0.00    +0.000 A 
ATOM     11  C   UNL     1       4.068   3.648  17.494  0.00  0.00    +0.000 A 
ATOM     12  C   UNL     1       3.316   4.609  18.206  0.00  0.00    +0.000 A 
BRANCH  12  13
ATOM     13  C   UNL     1       2.353   4.074  19.163  0.00  0.00    +0.000 A 
ATOM     14  N   UNL     1       2.717   3.690  20.435  0.00  0.00    +0.000 NA
ATOM     15  N   UNL     1       1.609   3.296  21.048  0.00  0.00    +0.000 NA
ATOM     16  N   UNL     1       0.646   3.450  20.131  0.00  0.00    +0.000 N 
ATOM     17  N   UNL     1       1.047   3.868  18.923  0.00  0.00    +0.000 NA
ATOM     18  H   UNL     1      -0.331   3.271  20.345  0.00  0.00    +0.000 HD
ENDBRANCH  12  13
ENDBRANCH   4   7
BRANCH   1  19
ATOM     19  C   UNL     1      -0.243   9.682  20.415  0.00  0.00    +0.000 C 
BRANCH  19  31
ATOM     20  C   UNL     1      -1.119  11.561  18.969  0.00  0.00    +0.000 A 
ATOM     21  N   UNL     1      -1.103  12.784  18.529  0.00  0.00    +0.000 NA
ATOM     22  C   UNL     1      -0.214  13.696  19.087  0.00  0.00    +0.000 A 
ATOM     23  C   UNL     1      -0.225  15.007  18.610  0.00  0.00    +0.000 A 
ATOM     24  C   UNL     1       0.578  15.984  19.199  0.00  0.00    +0.000 A 
ATOM     25  C   UNL     1       1.407  15.659  20.278  0.00  0.00    +0.000 A 
ATOM     26  C   UNL     1       2.235  16.715  20.948  0.00  0.00    +0.000 C 
ATOM     27  C   UNL     1       1.455  14.329  20.724  0.00  0.00    +0.000 A 
ATOM     28  C   UNL     1       0.640  13.358  20.124  0.00  0.00    +0.000 A 
ATOM     29  C   UNL     1       0.643  11.950  20.566  0.00  0.00    +0.000 A 
ATOM     30  O   UNL     1       1.444  11.614  21.441  0.00  0.00    +0.000 OA
ATOM     31  N   UNL     1      -0.267  11.085  19.950  0.00  0.00    +0.000 N 
BRANCH  20  32
ATOM     32  C   UNL     1      -2.178  10.672  18.331  0.00  0.00    +0.000 C 
BRANCH  32  34
ATOM     33  C   UNL     1      -2.747   9.950  15.983  0.00  0.00    +0.000 C 
ATOM     34  C   UNL     1      -1.680   9.985  17.064  0.00  0.00    +0.000 C 
ENDBRANCH  32  34
ENDBRANCH  20  32
ENDBRANCH  19  31
ENDBRANCH   1  19
TORSDOF 6
ENDMDL
MODEL 2
REMARK VINA RESULT:      -9.3      2.408      3.261
REMARK  Name = 
REMARK  8 active torsions:
REMARK  status: ('A' for Active; 'I' for Inactive)
REMARK    1  A    between atoms: C_1  and  C_2
REMARK    2  A    between atoms: C_2  and  C_3
REMARK    3  A    between atoms: C_3  and  C_4
REMARK    4  A    between atoms: C_9  and  C_10
REMARK    5  A    between atoms: N_15  and  C_16
REMARK    6  A    between atoms: C_16  and  C_17
REMARK    7  A    between atoms: C_20  and  C_21
REMARK    8  A    between atoms: C_26  and  C_27
REMARK                            x       y       z     vdW  Elec       q    Type
REMARK                         _______ _______ _______ _____ _____    ______ ____
ROOT
ATOM      1  C   UNL     1       1.947   9.175  18.622  0.00  0.00    +0.000 A 
ATOM      2  C   UNL     1       2.618   8.270  17.798  0.00  0.00    +0.000 A 
ATOM      3  C   UNL     1       2.751   6.929  18.170  0.00  0.00    +0.000 A 
ATOM      4  C   UNL     1       2.296   6.460  19.414  0.00  0.00    +0.000 A 
ATOM      5  C   UNL     1       1.865   7.441  20.322  0.00  0.00    +0.000 A 
ATOM      6  C   UNL     1       1.641   8.764  19.921  0.00  0.00    +0.000 A 
ENDROOT
BRANCH   4   7
ATOM      7  C   UNL     1       2.231   4.995  19.711  0.00  0.00    +0.000 A 
ATOM      8  C   UNL     1       1.066   4.464  20.318  0.00  0.00    +0.000 A 
ATOM      9  C   UNL     1       0.941   3.111  20.648  0.00  0.00    +0.000 A 
ATOM     10  C   UNL     1       1.965   2.227  20.348  0.00  0.00    +0.000 A 
ATOM     11  C   UNL     1       3.127   2.705  19.753  0.00  0.00    +0.000 A 
ATOM     12  C   UNL     1       3.292   4.078  19.465  0.00  0.00    +0.000 A 
BRANCH  12  13
ATOM     13  C   UNL     1       4.605   4.463  18.958  0.00  0.00    +0.000 A 
ATOM     14  N   UNL     1       5.540   5.098  19.745  0.00  0.00    +0.000 NA
ATOM     15  N   UNL     1       6.622   5.265  18.997  0.00  0.00    +0.000 NA
ATOM     16  N   UNL     1       6.293   4.740  17.811  0.00  0.00    +0.000 N 
ATOM     17  N   UNL     1       5.039   4.283  17.699  0.00  0.00    +0.000 NA
ATOM     18  H   UNL     1       6.960   4.681  17.047  0.00  0.00    +0.000 HD
ENDBRANCH  12  13
ENDBRANCH   4   7
BRANCH   1  19
ATOM     19  C   UNL     1       1.475  10.517  18.101  0.00  0.00    +0.000 C 
BRANCH  19  31
ATOM     20  C   UNL     1      -1.003  10.749  18.542  0.00  0.00    +0.000 A 
ATOM     21  N   UNL     1      -2.022  11.245  19.180  0.00  0.00    +0.000 NA
ATOM     22  C   UNL     1      -1.801  12.082  20.267  0.00  0.00    +0.000 A 
ATOM     23  C   UNL     1      -2.909  12.592  20.945  0.00  0.00    +0.000 A 
ATOM     24  C   UNL     1      -2.745  13.358  22.100  0.00  0.00    +0.000 A 
ATOM     25  C   UNL     1      -1.463  13.627  22.591  0.00  0.00    +0.000 A 
ATOM     26  C   UNL     1      -1.281  14.408  23.858  0.00  0.00    +0.000 C 
ATOM     27  C   UNL     1      -0.348  13.158  21.880  0.00  0.00    +0.000 A 
ATOM     28  C   UNL     1      -0.528  12.386  20.722  0.00  0.00    +0.000 A 
ATOM     29  C   UNL     1       0.611  11.857  19.947  0.00  0.00    +0.000 A 
ATOM     30  O   UNL     1       1.751  12.171  20.296  0.00  0.00    +0.000 OA
ATOM     31  N   UNL     1       0.315  11.033  18.856  0.00  0.00    +0.000 N 
BRANCH  20  32
ATOM     32  C   UNL     1      -1.367   9.795  17.413  0.00  0.00    +0.000 C 
BRANCH  32  34
ATOM     33  C   UNL     1      -2.807  10.519  15.474  0.00  0.00    +0.000 C 
ATOM     34  C   UNL     1      -2.788  10.004  16.904  0.00  0.00    +0.000 C 
ENDBRANCH  32  34
ENDBRANCH  20  32
ENDBRANCH  19  31
ENDBRANCH   1  19
TORSDOF 6
ENDMDL
MODEL 3
REMARK VINA RESULT:      -8.9      2.638      3.493
REMARK  Name = 
REMARK  8 active torsions:
REMARK  status: ('A' for Active; 'I' for Inactive)
REMARK    1  A    between atoms: C_1  and  C_2
REMARK    2  A    between atoms: C_2  and  C_3
REMARK    3  A    between atoms: C_3  and  C_4
REMARK    4  A    between atoms: C_9  and  C_10
REMARK    5  A    between atoms: N_15  and  C_16
REMARK    6  A    between atoms: C_16  and  C_17
REMARK    7  A    between atoms: C_20  and  C_21
REMARK    8  A    between atoms: C_26  and  C_27
REMARK                            x       y       z     vdW  Elec       q    Type
REMARK                         _______ _______ _______ _____ _____    ______ ____
ROOT
ATOM      1  C   UNL     1       1.639   9.208  18.875  0.00  0.00    +0.000 A 
ATOM      2  C   UNL     1       1.549   8.569  20.112  0.00  0.00    +0.000 A 
ATOM      3  C   UNL     1       1.970   7.244  20.263  0.00  0.00    +0.000 A 
ATOM      4  C   UNL     1       2.416   6.483  19.170  0.00  0.00    +0.000 A 
ATOM      5  C   UNL     1       2.248   7.066  17.903  0.00  0.00    +0.000 A 
ATOM      6  C   UNL     1       1.919   8.419  17.757  0.00  0.00    +0.000 A 
ENDROOT
BRANCH   4   7
ATOM      7  C   UNL     1       3.078   5.155  19.370  0.00  0.00    +0.000 A 
ATOM      8  C   UNL     1       2.574   4.274  20.357  0.00  0.00    +0.000 A 
ATOM      9  C   UNL     1       3.154   3.028  20.619  0.00  0.00    +0.000 A 
ATOM     10  C   UNL     1       4.241   2.600  19.874  0.00  0.00    +0.000 A 
ATOM     11  C   UNL     1       4.770   3.434  18.896  0.00  0.00    +0.000 A 
ATOM     12  C   UNL     1       4.231   4.718  18.657  0.00  0.00    +0.000 A 
BRANCH  12  13
ATOM     13  C   UNL     1       4.955   5.538  17.692  0.00  0.00    +0.000 A 
ATOM     14  N   UNL     1       4.789   5.391  16.332  0.00  0.00    +0.000 NA
ATOM     15  N   UNL     1       5.552   6.305  15.751  0.00  0.00    +0.000 NA
ATOM     16  N   UNL     1       6.140   6.946  16.769  0.00  0.00    +0.000 N 
ATOM     17  N   UNL     1       5.863   6.481  17.994  0.00  0.00    +0.000 NA
ATOM     18  H   UNL     1       6.749   7.746  16.619  0.00  0.00    +0.000 HD
ENDBRANCH  12  13
ENDBRANCH   4   7
BRANCH   1  19
ATOM     19  C   UNL     1       1.539  10.715  18.756  0.00  0.00    +0.000 C 
BRANCH  19  31
ATOM     20  C   UNL     1      -0.966  11.033  18.864  0.00  0.00    +0.000 A 
ATOM     21  N   UNL     1      -2.045  11.541  19.382  0.00  0.00    +0.000 NA
ATOM     22  C   UNL     1      -1.948  12.316  20.532  0.00  0.00    +0.000 A 
ATOM     23  C   UNL     1      -3.120  12.839  21.077  0.00  0.00    +0.000 A 
ATOM     24  C   UNL     1      -3.091  13.542  22.283  0.00  0.00    +0.000 A 
ATOM     25  C   UNL     1      -1.881  13.733  22.958  0.00  0.00    +0.000 A 
ATOM     26  C   UNL     1      -1.850  14.444  24.278  0.00  0.00    +0.000 C 
ATOM     27  C   UNL     1      -0.695  13.250  22.383  0.00  0.00    +0.000 A 
ATOM     28  C   UNL     1      -0.740  12.542  21.173  0.00  0.00    +0.000 A 
ATOM     29  C   UNL     1       0.475  12.002  20.535  0.00  0.00    +0.000 A 
ATOM     30  O   UNL     1       1.566  12.250  21.053  0.00  0.00    +0.000 OA
ATOM     31  N   UNL     1       0.305  11.245  19.371  0.00  0.00    +0.000 N 
BRANCH  20  32
ATOM     32  C   UNL     1      -1.203  10.149  17.647  0.00  0.00    +0.000 C 
BRANCH  32  34
ATOM     33  C   UNL     1      -3.003  10.070  15.884  0.00  0.00    +0.000 C 
ATOM     34  C   UNL     1      -2.684   9.929  17.363  0.00  0.00    +0.000 C 
ENDBRANCH  32  34
ENDBRANCH  20  32
ENDBRANCH  19  31
ENDBRANCH   1  19
TORSDOF 6
ENDMDL
MODEL 4
REMARK VINA RESULT:      -8.9      2.666      3.698
REMARK  Name = 
REMARK  8 active torsions:
REMARK  status: ('A' for Active; 'I' for Inactive)
REMARK    1  A    between atoms: C_1  and  C_2
REMARK    2  A    between atoms: C_2  and  C_3
REMARK    3  A    between atoms: C_3  and  C_4
REMARK    4  A    between atoms: C_9  and  C_10
REMARK    5  A    between atoms: N_15  and  C_16
REMARK    6  A    between atoms: C_16  and  C_17
REMARK    7  A    between atoms: C_20  and  C_21
REMARK    8  A    between atoms: C_26  and  C_27
REMARK                            x       y       z     vdW  Elec       q    Type
REMARK                         _______ _______ _______ _____ _____    ______ ____
ROOT
ATOM      1  C   UNL     1       1.346   9.372  18.800  0.00  0.00    +0.000 A 
ATOM      2  C   UNL     1       2.066   8.860  17.719  0.00  0.00    +0.000 A 
ATOM      3  C   UNL     1       2.605   7.572  17.768  0.00  0.00    +0.000 A 
ATOM      4  C   UNL     1       2.522   6.780  18.924  0.00  0.00    +0.000 A 
ATOM      5  C   UNL     1       2.026   7.417  20.073  0.00  0.00    +0.000 A 
ATOM      6  C   UNL     1       1.399   8.667  20.005  0.00  0.00    +0.000 A 
ENDROOT
BRANCH   4   7
ATOM      7  C   UNL     1       2.892   5.329  18.898  0.00  0.00    +0.000 A 
ATOM      8  C   UNL     1       2.136   4.409  19.663  0.00  0.00    +0.000 A 
ATOM      9  C   UNL     1       2.436   3.043  19.708  0.00  0.00    +0.000 A 
ATOM     10  C   UNL     1       3.484   2.539  18.956  0.00  0.00    +0.000 A 
ATOM     11  C   UNL     1       4.255   3.408  18.191  0.00  0.00    +0.000 A 
ATOM     12  C   UNL     1       4.001   4.797  18.179  0.00  0.00    +0.000 A 
BRANCH  12  13
ATOM     13  C   UNL     1       4.959   5.608  17.435  0.00  0.00    +0.000 A 
ATOM     14  N   UNL     1       4.940   5.691  16.060  0.00  0.00    +0.000 NA
ATOM     15  N   UNL     1       5.904   6.532  15.713  0.00  0.00    +0.000 NA
ATOM     16  N   UNL     1       6.456   6.906  16.875  0.00  0.00    +0.000 N 
ATOM     17  N   UNL     1       5.960   6.324  17.974  0.00  0.00    +0.000 NA
ATOM     18  H   UNL     1       7.197   7.600  16.917  0.00  0.00    +0.000 HD
ENDBRANCH  12  13
ENDBRANCH   4   7
BRANCH   1  19
ATOM     19  C   UNL     1       0.457  10.589  18.652  0.00  0.00    +0.000 C 
BRANCH  19  31
ATOM     20  C   UNL     1       0.290  12.011  20.734  0.00  0.00    +0.000 A 
ATOM     21  N   UNL     1       0.637  13.023  21.473  0.00  0.00    +0.000 NA
ATOM     22  C   UNL     1       1.687  13.836  21.063  0.00  0.00    +0.000 A 
ATOM     23  C   UNL     1       2.052  14.908  21.879  0.00  0.00    +0.000 A 
ATOM     24  C   UNL     1       3.159  15.697  21.563  0.00  0.00    +0.000 A 
ATOM     25  C   UNL     1       3.916  15.423  20.420  0.00  0.00    +0.000 A 
ATOM     26  C   UNL     1       5.136  16.235  20.101  0.00  0.00    +0.000 C 
ATOM     27  C   UNL     1       3.519  14.377  19.572  0.00  0.00    +0.000 A 
ATOM     28  C   UNL     1       2.406  13.590  19.904  0.00  0.00    +0.000 A 
ATOM     29  C   UNL     1       1.956  12.471  19.055  0.00  0.00    +0.000 A 
ATOM     30  O   UNL     1       2.539  12.277  17.986  0.00  0.00    +0.000 OA
ATOM     31  N   UNL     1       0.883  11.704  19.522  0.00  0.00    +0.000 N 
BRANCH  20  32
ATOM     32  C   UNL     1      -0.826  11.156  21.317  0.00  0.00    +0.000 C 
BRANCH  32  34
ATOM     33  C   UNL     1      -0.268   9.637  23.251  0.00  0.00    +0.000 C 
ATOM     34  C   UNL     1      -0.732  11.022  22.833  0.00  0.00    +0.000 C 
ENDBRANCH  32  34
ENDBRANCH  20  32
ENDBRANCH  19  31
ENDBRANCH   1  19
TORSDOF 6
ENDMDL
MODEL 5
REMARK VINA RESULT:      -8.6      0.892      1.282
REMARK  Name = 
REMARK  8 active torsions:
REMARK  status: ('A' for Active; 'I' for Inactive)
REMARK    1  A    between atoms: C_1  and  C_2
REMARK    2  A    between atoms: C_2  and  C_3
REMARK    3  A    between atoms: C_3  and  C_4
REMARK    4  A    between atoms: C_9  and  C_10
REMARK    5  A    between atoms: N_15  and  C_16
REMARK    6  A    between atoms: C_16  and  C_17
REMARK    7  A    between atoms: C_20  and  C_21
REMARK    8  A    between atoms: C_26  and  C_27
REMARK                            x       y       z     vdW  Elec       q    Type
REMARK                         _______ _______ _______ _____ _____    ______ ____
ROOT
ATOM      1  C   UNL     1       1.210   9.112  20.037  0.00  0.00    +0.000 A 
ATOM      2  C   UNL     1       1.530   7.832  20.489  0.00  0.00    +0.000 A 
ATOM      3  C   UNL     1       2.284   6.962  19.696  0.00  0.00    +0.000 A 
ATOM      4  C   UNL     1       2.672   7.305  18.390  0.00  0.00    +0.000 A 
ATOM      5  C   UNL     1       2.116   8.485  17.871  0.00  0.00    +0.000 A 
ATOM      6  C   UNL     1       1.444   9.401  18.690  0.00  0.00    +0.000 A 
ENDROOT
BRANCH   4   7
ATOM      7  C   UNL     1       3.666   6.477  17.636  0.00  0.00    +0.000 A 
ATOM      8  C   UNL     1       4.708   7.122  16.928  0.00  0.00    +0.000 A 
ATOM      9  C   UNL     1       5.658   6.418  16.181  0.00  0.00    +0.000 A 
ATOM     10  C   UNL     1       5.623   5.034  16.145  0.00  0.00    +0.000 A 
ATOM     11  C   UNL     1       4.615   4.358  16.824  0.00  0.00    +0.000 A 
ATOM     12  C   UNL     1       3.616   5.057  17.537  0.00  0.00    +0.000 A 
BRANCH  12  13
ATOM     13  C   UNL     1       2.549   4.235  18.099  0.00  0.00    +0.000 A 
ATOM     14  N   UNL     1       2.710   3.519  19.265  0.00  0.00    +0.000 NA
ATOM     15  N   UNL     1       1.552   2.923  19.513  0.00  0.00    +0.000 NA
ATOM     16  N   UNL     1       0.762   3.293  18.497  0.00  0.00    +0.000 N 
ATOM     17  N   UNL     1       1.334   4.053  17.555  0.00  0.00    +0.000 NA
ATOM     18  H   UNL     1      -0.217   3.023  18.454  0.00  0.00    +0.000 HD
ENDBRANCH  12  13
ENDBRANCH   4   7
BRANCH   1  19
ATOM     19  C   UNL     1       0.723  10.187  20.987  0.00  0.00    +0.000 C 
BRANCH  19  31
ATOM     20  C   UNL     1      -0.603  11.707  19.464  0.00  0.00    +0.000 A 
ATOM     21  N   UNL     1      -0.792  12.822  18.824  0.00  0.00    +0.000 NA
ATOM     22  C   UNL     1       0.107  13.868  19.001  0.00  0.00    +0.000 A 
ATOM     23  C   UNL     1      -0.122  15.061  18.315  0.00  0.00    +0.000 A 
ATOM     24  C   UNL     1       0.693  16.173  18.530  0.00  0.00    +0.000 A 
ATOM     25  C   UNL     1       1.754  16.103  19.438  0.00  0.00    +0.000 A 
ATOM     26  C   UNL     1       2.604  17.308  19.712  0.00  0.00    +0.000 C 
ATOM     27  C   UNL     1       2.016  14.888  20.090  0.00  0.00    +0.000 A 
ATOM     28  C   UNL     1       1.186  13.779  19.866  0.00  0.00    +0.000 A 
ATOM     29  C   UNL     1       1.410  12.484  20.536  0.00  0.00    +0.000 A 
ATOM     30  O   UNL     1       2.402  12.363  21.257  0.00  0.00    +0.000 OA
ATOM     31  N   UNL     1       0.474  11.471  20.300  0.00  0.00    +0.000 N 
BRANCH  20  32
ATOM     32  C   UNL     1      -1.686  10.660  19.243  0.00  0.00    +0.000 C 
BRANCH  32  34
ATOM     33  C   UNL     1      -3.257   9.690  17.525  0.00  0.00    +0.000 C 
ATOM     34  C   UNL     1      -1.910  10.351  17.766  0.00  0.00    +0.000 C 
ENDBRANCH  32  34
ENDBRANCH  20  32
ENDBRANCH  19  31
ENDBRANCH   1  19
TORSDOF 6
ENDMDL
MODEL 6
REMARK VINA RESULT:      -8.6      2.716      3.672
REMARK  Name = 
REMARK  8 active torsions:
REMARK  status: ('A' for Active; 'I' for Inactive)
REMARK    1  A    between atoms: C_1  and  C_2
REMARK    2  A    between atoms: C_2  and  C_3
REMARK    3  A    between atoms: C_3  and  C_4
REMARK    4  A    between atoms: C_9  and  C_10
REMARK    5  A    between atoms: N_15  and  C_16
REMARK    6  A    between atoms: C_16  and  C_17
REMARK    7  A    between atoms: C_20  and  C_21
REMARK    8  A    between atoms: C_26  and  C_27
REMARK                            x       y       z     vdW  Elec       q    Type
REMARK                         _______ _______ _______ _____ _____    ______ ____
ROOT
ATOM      1  C   UNL     1       1.294   9.370  18.822  0.00  0.00    +0.000 A 
ATOM      2  C   UNL     1       1.870   8.993  17.609  0.00  0.00    +0.000 A 
ATOM      3  C   UNL     1       2.409   7.714  17.443  0.00  0.00    +0.000 A 
ATOM      4  C   UNL     1       2.470   6.796  18.504  0.00  0.00    +0.000 A 
ATOM      5  C   UNL     1       2.125   7.294  19.771  0.00  0.00    +0.000 A 
ATOM      6  C   UNL     1       1.497   8.536  19.924  0.00  0.00    +0.000 A 
ENDROOT
BRANCH   4   7
ATOM      7  C   UNL     1       2.831   5.362  18.268  0.00  0.00    +0.000 A 
ATOM      8  C   UNL     1       1.889   4.352  18.578  0.00  0.00    +0.000 A 
ATOM      9  C   UNL     1       2.162   2.991  18.407  0.00  0.00    +0.000 A 
ATOM     10  C   UNL     1       3.380   2.589  17.883  0.00  0.00    +0.000 A 
ATOM     11  C   UNL     1       4.336   3.548  17.565  0.00  0.00    +0.000 A 
ATOM     12  C   UNL     1       4.097   4.923  17.784  0.00  0.00    +0.000 A 
BRANCH  12  13
ATOM     13  C   UNL     1       5.226   5.809  17.526  0.00  0.00    +0.000 A 
ATOM     14  N   UNL     1       6.235   6.002  18.445  0.00  0.00    +0.000 NA
ATOM     15  N   UNL     1       7.112   6.823  17.885  0.00  0.00    +0.000 NA
ATOM     16  N   UNL     1       6.598   7.090  16.678  0.00  0.00    +0.000 N 
ATOM     17  N   UNL     1       5.403   6.545  16.416  0.00  0.00    +0.000 NA
ATOM     18  H   UNL     1       7.093   7.661  15.999  0.00  0.00    +0.000 HD
ENDBRANCH  12  13
ENDBRANCH   4   7
BRANCH   1  19
ATOM     19  C   UNL     1       0.394  10.586  18.925  0.00  0.00    +0.000 C 
BRANCH  19  31
ATOM     20  C   UNL     1       0.785  12.017  20.971  0.00  0.00    +0.000 A 
ATOM     21  N   UNL     1       1.319  13.028  21.589  0.00  0.00    +0.000 NA
ATOM     22  C   UNL     1       2.231  13.832  20.915  0.00  0.00    +0.000 A 
ATOM     23  C   UNL     1       2.803  14.903  21.602  0.00  0.00    +0.000 A 
ATOM     24  C   UNL     1       3.795  15.683  21.005  0.00  0.00    +0.000 A 
ATOM     25  C   UNL     1       4.227  15.399  19.706  0.00  0.00    +0.000 A 
ATOM     26  C   UNL     1       5.327  16.201  19.077  0.00  0.00    +0.000 C 
ATOM     27  C   UNL     1       3.616  14.353  18.997  0.00  0.00    +0.000 A 
ATOM     28  C   UNL     1       2.622  13.576  19.611  0.00  0.00    +0.000 A 
ATOM     29  C   UNL     1       1.959  12.458  18.914  0.00  0.00    +0.000 A 
ATOM     30  O   UNL     1       2.243  12.256  17.731  0.00  0.00    +0.000 OA
ATOM     31  N   UNL     1       1.040  11.701  19.648  0.00  0.00    +0.000 N 
BRANCH  20  32
ATOM     32  C   UNL     1      -0.147  11.172  21.829  0.00  0.00    +0.000 C 
BRANCH  32  34
ATOM     33  C   UNL     1      -2.286  12.499  21.966  0.00  0.00    +0.000 C 
ATOM     34  C   UNL     1      -1.055  12.017  22.715  0.00  0.00    +0.000 C 
ENDBRANCH  32  34
ENDBRANCH  20  32
ENDBRANCH  19  31
ENDBRANCH   1  19
TORSDOF 6
ENDMDL
MODEL 7
REMARK VINA RESULT:      -8.6      2.555      3.622
REMARK  Name = 
REMARK  8 active torsions:
REMARK  status: ('A' for Active; 'I' for Inactive)
REMARK    1  A    between atoms: C_1  and  C_2
REMARK    2  A    between atoms: C_2  and  C_3
REMARK    3  A    between atoms: C_3  and  C_4
REMARK    4  A    between atoms: C_9  and  C_10
REMARK    5  A    between atoms: N_15  and  C_16
REMARK    6  A    between atoms: C_16  and  C_17
REMARK    7  A    between atoms: C_20  and  C_21
REMARK    8  A    between atoms: C_26  and  C_27
REMARK                            x       y       z     vdW  Elec       q    Type
REMARK                         _______ _______ _______ _____ _____    ______ ____
ROOT
ATOM      1  C   UNL     1       1.320   9.309  18.948  0.00  0.00    +0.000 A 
ATOM      2  C   UNL     1       1.896   8.529  17.944  0.00  0.00    +0.000 A 
ATOM      3  C   UNL     1       2.280   7.210  18.198  0.00  0.00    +0.000 A 
ATOM      4  C   UNL     1       2.183   6.647  19.481  0.00  0.00    +0.000 A 
ATOM      5  C   UNL     1       1.848   7.532  20.519  0.00  0.00    +0.000 A 
ATOM      6  C   UNL     1       1.372   8.823  20.257  0.00  0.00    +0.000 A 
ENDROOT
BRANCH   4   7
ATOM      7  C   UNL     1       2.374   5.178  19.699  0.00  0.00    +0.000 A 
ATOM      8  C   UNL     1       1.352   4.436  20.340  0.00  0.00    +0.000 A 
ATOM      9  C   UNL     1       1.468   3.066  20.599  0.00  0.00    +0.000 A 
ATOM     10  C   UNL     1       2.600   2.377  20.193  0.00  0.00    +0.000 A 
ATOM     11  C   UNL     1       3.629   3.067  19.562  0.00  0.00    +0.000 A 
ATOM     12  C   UNL     1       3.551   4.461  19.342  0.00  0.00    +0.000 A 
BRANCH  12  13
ATOM     13  C   UNL     1       4.749   5.080  18.784  0.00  0.00    +0.000 A 
ATOM     14  N   UNL     1       5.827   5.433  19.567  0.00  0.00    +0.000 NA
ATOM     15  N   UNL     1       6.749   5.924  18.751  0.00  0.00    +0.000 NA
ATOM     16  N   UNL     1       6.191   5.854  17.536  0.00  0.00    +0.000 N 
ATOM     17  N   UNL     1       4.932   5.400  17.493  0.00  0.00    +0.000 NA
ATOM     18  H   UNL     1       6.700   6.119  16.697  0.00  0.00    +0.000 HD
ENDBRANCH  12  13
ENDBRANCH   4   7
BRANCH   1  19
ATOM     19  C   UNL     1       0.574  10.588  18.625  0.00  0.00    +0.000 C 
BRANCH  19  31
ATOM     20  C   UNL     1       0.395  12.080  20.657  0.00  0.00    +0.000 A 
ATOM     21  N   UNL     1       0.751  13.105  21.373  0.00  0.00    +0.000 NA
ATOM     22  C   UNL     1       1.832  13.878  20.964  0.00  0.00    +0.000 A 
ATOM     23  C   UNL     1       2.205  14.965  21.754  0.00  0.00    +0.000 A 
ATOM     24  C   UNL     1       3.340  15.714  21.442  0.00  0.00    +0.000 A 
ATOM     25  C   UNL     1       4.117  15.385  20.327  0.00  0.00    +0.000 A 
ATOM     26  C   UNL     1       5.366  16.155  20.014  0.00  0.00    +0.000 C 
ATOM     27  C   UNL     1       3.713  14.323  19.503  0.00  0.00    +0.000 A 
ATOM     28  C   UNL     1       2.572  13.576  19.831  0.00  0.00    +0.000 A 
ATOM     29  C   UNL     1       2.113  12.443  19.006  0.00  0.00    +0.000 A 
ATOM     30  O   UNL     1       2.716  12.200  17.959  0.00  0.00    +0.000 OA
ATOM     31  N   UNL     1       1.009  11.719  19.470  0.00  0.00    +0.000 N 
BRANCH  20  32
ATOM     32  C   UNL     1      -0.757  11.272  21.238  0.00  0.00    +0.000 C 
BRANCH  32  34
ATOM     33  C   UNL     1      -2.300  11.833  23.151  0.00  0.00    +0.000 C 
ATOM     34  C   UNL     1      -0.889  11.441  22.747  0.00  0.00    +0.000 C 
ENDBRANCH  32  34
ENDBRANCH  20  32
ENDBRANCH  19  31
ENDBRANCH   1  19
TORSDOF 6
ENDMDL
MODEL 8
REMARK VINA RESULT:      -8.6      2.561      8.982
REMARK  Name = 
REMARK  8 active torsions:
REMARK  status: ('A' for Active; 'I' for Inactive)
REMARK    1  A    between atoms: C_1  and  C_2
REMARK    2  A    between atoms: C_2  and  C_3
REMARK    3  A    between atoms: C_3  and  C_4
REMARK    4  A    between atoms: C_9  and  C_10
REMARK    5  A    between atoms: N_15  and  C_16
REMARK    6  A    between atoms: C_16  and  C_17
REMARK    7  A    between atoms: C_20  and  C_21
REMARK    8  A    between atoms: C_26  and  C_27
REMARK                            x       y       z     vdW  Elec       q    Type
REMARK                         _______ _______ _______ _____ _____    ______ ____
ROOT
ATOM      1  C   UNL     1       2.850   7.150  19.242  0.00  0.00    +0.000 A 
ATOM      2  C   UNL     1       2.076   7.674  20.278  0.00  0.00    +0.000 A 
ATOM      3  C   UNL     1       1.144   8.686  20.031  0.00  0.00    +0.000 A 
ATOM      4  C   UNL     1       1.010   9.271  18.761  0.00  0.00    +0.000 A 
ATOM      5  C   UNL     1       1.977   8.908  17.809  0.00  0.00    +0.000 A 
ATOM      6  C   UNL     1       2.846   7.830  18.022  0.00  0.00    +0.000 A 
ENDROOT
BRANCH   4   7
ATOM      7  C   UNL     1      -0.136  10.181  18.445  0.00  0.00    +0.000 A 
ATOM      8  C   UNL     1      -1.198   9.702  17.641  0.00  0.00    +0.000 A 
ATOM      9  C   UNL     1      -2.290  10.500  17.283  0.00  0.00    +0.000 A 
ATOM     10  C   UNL     1      -2.379  11.802  17.750  0.00  0.00    +0.000 A 
ATOM     11  C   UNL     1      -1.357  12.314  18.542  0.00  0.00    +0.000 A 
ATOM     12  C   UNL     1      -0.221  11.540  18.865  0.00  0.00    +0.000 A 
BRANCH  12  13
ATOM     13  C   UNL     1       0.832  12.237  19.596  0.00  0.00    +0.000 A 
ATOM     14  N   UNL     1       0.901  12.228  20.972  0.00  0.00    +0.000 NA
ATOM     15  N   UNL     1       1.986  12.913  21.306  0.00  0.00    +0.000 NA
ATOM     16  N   UNL     1       2.508  13.304  20.137  0.00  0.00    +0.000 N 
ATOM     17  N   UNL     1       1.810  12.973  19.043  0.00  0.00    +0.000 NA
ATOM     18  H   UNL     1       3.387  13.810  20.086  0.00  0.00    +0.000 HD
ENDBRANCH  12  13
ENDBRANCH   4   7
BRANCH   1  19
ATOM     19  C   UNL     1       3.588   5.836  19.395  0.00  0.00    +0.000 C 
BRANCH  19  31
ATOM     20  C   UNL     1       3.164   4.306  17.429  0.00  0.00    +0.000 A 
ATOM     21  N   UNL     1       3.505   3.747  16.305  0.00  0.00    +0.000 NA
ATOM     22  C   UNL     1       4.698   4.117  15.695  0.00  0.00    +0.000 A 
ATOM     23  C   UNL     1       5.036   3.514  14.483  0.00  0.00    +0.000 A 
ATOM     24  C   UNL     1       6.172   3.918  13.781  0.00  0.00    +0.000 A 
ATOM     25  C   UNL     1       6.989   4.934  14.288  0.00  0.00    +0.000 A 
ATOM     26  C   UNL     1       8.184   5.407  13.515  0.00  0.00    +0.000 C 
ATOM     27  C   UNL     1       6.677   5.504  15.532  0.00  0.00    +0.000 A 
ATOM     28  C   UNL     1       5.530   5.090  16.225  0.00  0.00    +0.000 A 
ATOM     29  C   UNL     1       5.150   5.668  17.528  0.00  0.00    +0.000 A 
ATOM     30  O   UNL     1       5.911   6.486  18.049  0.00  0.00    +0.000 OA
ATOM     31  N   UNL     1       3.944   5.238  18.091  0.00  0.00    +0.000 N 
BRANCH  20  32
ATOM     32  C   UNL     1       1.809   3.871  17.967  0.00  0.00    +0.000 C 
BRANCH  32  34
ATOM     33  C   UNL     1       1.110   2.899  20.186  0.00  0.00    +0.000 C 
ATOM     34  C   UNL     1       1.909   2.679  18.913  0.00  0.00    +0.000 C 
ENDBRANCH  32  34
ENDBRANCH  20  32
ENDBRANCH  19  31
ENDBRANCH   1  19
TORSDOF 6
ENDMDL
MODEL 9
REMARK VINA RESULT:      -8.5      2.423      4.512
REMARK  Name = 
REMARK  8 active torsions:
REMARK  status: ('A' for Active; 'I' for Inactive)
REMARK    1  A    between atoms: C_1  and  C_2
REMARK    2  A    between atoms: C_2  and  C_3
REMARK    3  A    between atoms: C_3  and  C_4
REMARK    4  A    between atoms: C_9  and  C_10
REMARK    5  A    between atoms: N_15  and  C_16
REMARK    6  A    between atoms: C_16  and  C_17
REMARK    7  A    between atoms: C_20  and  C_21
REMARK    8  A    between atoms: C_26  and  C_27
REMARK                            x       y       z     vdW  Elec       q    Type
REMARK                         _______ _______ _______ _____ _____    ______ ____
ROOT
ATOM      1  C   UNL     1       1.880   9.223  18.456  0.00  0.00    +0.000 A 
ATOM      2  C   UNL     1       2.699   8.319  17.779  0.00  0.00    +0.000 A 
ATOM      3  C   UNL     1       2.870   7.017  18.255  0.00  0.00    +0.000 A 
ATOM      4  C   UNL     1       2.301   6.593  19.468  0.00  0.00    +0.000 A 
ATOM      5  C   UNL     1       1.704   7.595  20.251  0.00  0.00    +0.000 A 
ATOM      6  C   UNL     1       1.447   8.872  19.737  0.00  0.00    +0.000 A 
ENDROOT
BRANCH   4   7
ATOM      7  C   UNL     1       2.292   5.148  19.856  0.00  0.00    +0.000 A 
ATOM      8  C   UNL     1       1.178   4.628  20.559  0.00  0.00    +0.000 A 
ATOM      9  C   UNL     1       1.108   3.294  20.976  0.00  0.00    +0.000 A 
ATOM     10  C   UNL     1       2.138   2.418  20.672  0.00  0.00    +0.000 A 
ATOM     11  C   UNL     1       3.252   2.887  19.984  0.00  0.00    +0.000 A 
ATOM     12  C   UNL     1       3.363   4.243  19.605  0.00  0.00    +0.000 A 
BRANCH  12  13
ATOM     13  C   UNL     1       4.634   4.628  19.002  0.00  0.00    +0.000 A 
ATOM     14  N   UNL     1       5.602   5.316  19.701  0.00  0.00    +0.000 NA
ATOM     15  N   UNL     1       6.633   5.467  18.882  0.00  0.00    +0.000 NA
ATOM     16  N   UNL     1       6.244   4.881  17.743  0.00  0.00    +0.000 N 
ATOM     17  N   UNL     1       4.996   4.397  17.728  0.00  0.00    +0.000 NA
ATOM     18  H   UNL     1       6.866   4.799  16.943  0.00  0.00    +0.000 HD
ENDBRANCH  12  13
ENDBRANCH   4   7
BRANCH   1  19
ATOM     19  C   UNL     1       1.390  10.494  17.793  0.00  0.00    +0.000 C 
BRANCH  19  31
ATOM     20  C   UNL     1       0.362  11.957  19.580  0.00  0.00    +0.000 A 
ATOM     21  N   UNL     1      -0.651  12.442  20.235  0.00  0.00    +0.000 NA
ATOM     22  C   UNL     1      -1.941  12.116  19.831  0.00  0.00    +0.000 A 
ATOM     23  C   UNL     1      -3.013  12.659  20.540  0.00  0.00    +0.000 A 
ATOM     24  C   UNL     1      -4.326  12.443  20.119  0.00  0.00    +0.000 A 
ATOM     25  C   UNL     1      -4.582  11.675  18.978  0.00  0.00    +0.000 A 
ATOM     26  C   UNL     1      -5.987  11.480  18.491  0.00  0.00    +0.000 C 
ATOM     27  C   UNL     1      -3.506  11.087  18.295  0.00  0.00    +0.000 A 
ATOM     28  C   UNL     1      -2.192  11.316  18.728  0.00  0.00    +0.000 A 
ATOM     29  C   UNL     1      -1.026  10.733  18.037  0.00  0.00    +0.000 A 
ATOM     30  O   UNL     1      -1.230   9.964  17.095  0.00  0.00    +0.000 OA
ATOM     31  N   UNL     1       0.242  11.091  18.507  0.00  0.00    +0.000 N 
BRANCH  20  32
ATOM     32  C   UNL     1       1.721  12.435  20.072  0.00  0.00    +0.000 C 
BRANCH  32  34
ATOM     33  C   UNL     1       3.097  13.751  18.419  0.00  0.00    +0.000 C 
ATOM     34  C   UNL     1       2.080  13.820  19.546  0.00  0.00    +0.000 C 
ENDBRANCH  32  34
ENDBRANCH  20  32
ENDBRANCH  19  31
ENDBRANCH   1  19
TORSDOF 6
ENDMDL
