MODEL 1
REMARK VINA RESULT:      -7.8      0.000      0.000
REMARK  Name = 
REMARK  4 active torsions:
REMARK  status: ('A' for Active; 'I' for Inactive)
REMARK    1  A    between atoms: C_2  and  C_20
REMARK    2  A    between atoms: N_3  and  C_4
REMARK    3  A    between atoms: C_9  and  C_10
REMARK    4  A    between atoms: C_24  and  O_25
REMARK                            x       y       z     vdW  Elec       q    Type
REMARK                         _______ _______ _______ _____ _____    ______ ____
ROOT
ATOM      1  C   UNL     1       2.350   6.998  19.801  0.00  0.00    +0.000 A 
ATOM      2  C   UNL     1       2.543   7.559  18.539  0.00  0.00    +0.000 A 
ATOM      3  F   UNL     1       3.237   6.899  17.600  0.00  0.00    +0.000 F 
ATOM      4  C   UNL     1       1.958   8.781  18.204  0.00  0.00    +0.000 A 
ATOM      5  F   UNL     1       2.204   9.267  16.976  0.00  0.00    +0.000 F 
ATOM      6  C   UNL     1       1.152   9.499  19.107  0.00  0.00    +0.000 A 
ATOM      7  C   UNL     1       0.929   8.886  20.354  0.00  0.00    +0.000 A 
ATOM      8  F   UNL     1       0.163   9.487  21.279  0.00  0.00    +0.000 F 
ATOM      9  C   UNL     1       1.499   7.653  20.685  0.00  0.00    +0.000 A 
ATOM     10  F   UNL     1       1.285   7.126  21.902  0.00  0.00    +0.000 F 
ENDROOT
BRANCH   6  11
ATOM     11  C   UNL     1       0.605  10.834  18.761  0.00  0.00    +0.000 A 
ATOM     12  C   UNL     1       1.412  11.988  18.784  0.00  0.00    +0.000 A 
ATOM     13  C   UNL     1       0.883  13.261  18.551  0.00  0.00    +0.000 A 
ATOM     14  C   UNL     1      -0.468  13.411  18.263  0.00  0.00    +0.000 A 
ATOM     15  C   UNL     1      -1.285  12.288  18.198  0.00  0.00    +0.000 A 
ATOM     16  C   UNL     1      -0.755  11.017  18.449  0.00  0.00    +0.000 A 
ENDBRANCH   6  11
BRANCH   1  19
ATOM     17  O   UNL     1       1.516   4.389  19.142  0.00  0.00    +0.000 OA
ATOM     18  C   UNL     1       2.502   4.553  19.857  0.00  0.00    +0.000 C 
ATOM     19  N   UNL     1       2.994   5.809  20.208  0.00  0.00    +0.000 N 
ATOM     20  H   UNL     1       3.988   5.846  20.419  0.00  0.00    +0.000 HD
BRANCH  18  21
ATOM     21  C   UNL     1       3.319   3.447  20.318  0.00  0.00    +0.000 A 
ATOM     22  N   UNL     1       3.030   2.723  21.414  0.00  0.00    +0.000 NA
ATOM     23  O   UNL     1       4.036   1.758  21.489  0.00  0.00    +0.000 OA
ATOM     24  N   UNL     1       4.971   1.914  20.459  0.00  0.00    +0.000 NA
ATOM     25  C   UNL     1       4.502   2.945  19.772  0.00  0.00    +0.000 A 
BRANCH  25  26
ATOM     26  O   UNL     1       5.227   3.342  18.723  0.00  0.00    +0.000 OA
ATOM     27  H   UNL     1       5.936   3.910  19.067  0.00  0.00    +0.000 HD
ENDBRANCH  25  26
ENDBRANCH  18  21
ENDBRANCH   1  19
TORSDOF 4
ENDMDL
MODEL 2
REMARK VINA RESULT:      -7.8      3.944      7.832
REMARK  Name = 
REMARK  4 active torsions:
REMARK  status: ('A' for Active; 'I' for Inactive)
REMARK    1  A    between atoms: C_2  and  C_20
REMARK    2  A    between atoms: N_3  and  C_4
REMARK    3  A    between atoms: C_9  and  C_10
REMARK    4  A    between atoms: C_24  and  O_25
REMARK                            x       y       z     vdW  Elec       q    Type
REMARK                         _______ _______ _______ _____ _____    ______ ____
ROOT
ATOM      1  C   UNL     1       1.767   8.545  19.518  0.00  0.00    +0.000 A 
ATOM      2  C   UNL     1       2.461   8.170  18.368  0.00  0.00    +0.000 A 
ATOM      3  F   UNL     1       2.842   9.094  17.473  0.00  0.00    +0.000 F 
ATOM      4  C   UNL     1       2.838   6.843  18.162  0.00  0.00    +0.000 A 
ATOM      5  F   UNL     1       3.489   6.555  17.023  0.00  0.00    +0.000 F 
ATOM      6  C   UNL     1       2.544   5.827  19.092  0.00  0.00    +0.000 A 
ATOM      7  C   UNL     1       1.891   6.240  20.268  0.00  0.00    +0.000 A 
ATOM      8  F   UNL     1       1.579   5.347  21.221  0.00  0.00    +0.000 F 
ATOM      9  C   UNL     1       1.529   7.573  20.485  0.00  0.00    +0.000 A 
ATOM     10  F   UNL     1       0.874   7.911  21.608  0.00  0.00    +0.000 F 
ENDROOT
BRANCH   6  11
ATOM     11  C   UNL     1       2.882   4.409  18.819  0.00  0.00    +0.000 A 
ATOM     12  C   UNL     1       2.145   3.642  17.895  0.00  0.00    +0.000 A 
ATOM     13  C   UNL     1       2.398   2.280  17.702  0.00  0.00    +0.000 A 
ATOM     14  C   UNL     1       3.415   1.653  18.411  0.00  0.00    +0.000 A 
ATOM     15  C   UNL     1       4.184   2.391  19.305  0.00  0.00    +0.000 A 
ATOM     16  C   UNL     1       3.917   3.749  19.508  0.00  0.00    +0.000 A 
ENDBRANCH   6  11
BRANCH   1  19
ATOM     17  O   UNL     1      -0.294   9.775  18.044  0.00  0.00    +0.000 OA
ATOM     18  C   UNL     1       0.281  10.403  18.930  0.00  0.00    +0.000 C 
ATOM     19  N   UNL     1       1.292   9.859  19.721  0.00  0.00    +0.000 N 
ATOM     20  H   UNL     1       1.397  10.273  20.644  0.00  0.00    +0.000 HD
BRANCH  18  21
ATOM     21  C   UNL     1      -0.114  11.745  19.315  0.00  0.00    +0.000 A 
ATOM     22  N   UNL     1       0.081  12.247  20.546  0.00  0.00    +0.000 NA
ATOM     23  O   UNL     1      -0.411  13.552  20.490  0.00  0.00    +0.000 OA
ATOM     24  N   UNL     1      -0.949  13.840  19.230  0.00  0.00    +0.000 NA
ATOM     25  C   UNL     1      -0.750  12.723  18.548  0.00  0.00    +0.000 A 
BRANCH  25  26
ATOM     26  O   UNL     1      -1.202  12.703  17.291  0.00  0.00    +0.000 OA
ATOM     27  H   UNL     1      -0.888  11.876  16.890  0.00  0.00    +0.000 HD
ENDBRANCH  25  26
ENDBRANCH  18  21
ENDBRANCH   1  19
TORSDOF 4
ENDMDL
MODEL 3
REMARK VINA RESULT:      -7.7      4.424      7.740
REMARK  Name = 
REMARK  4 active torsions:
REMARK  status: ('A' for Active; 'I' for Inactive)
REMARK    1  A    between atoms: C_2  and  C_20
REMARK    2  A    between atoms: N_3  and  C_4
REMARK    3  A    between atoms: C_9  and  C_10
REMARK    4  A    between atoms: C_24  and  O_25
REMARK                            x       y       z     vdW  Elec       q    Type
REMARK                         _______ _______ _______ _____ _____    ______ ____
ROOT
ATOM      1  C   UNL     1       1.245   9.343  19.883  0.00  0.00    +0.000 A 
ATOM      2  C   UNL     1       1.811   9.291  18.610  0.00  0.00    +0.000 A 
ATOM      3  F   UNL     1       1.889  10.398  17.856  0.00  0.00    +0.000 F 
ATOM      4  C   UNL     1       2.372   8.110  18.125  0.00  0.00    +0.000 A 
ATOM      5  F   UNL     1       2.882   8.133  16.883  0.00  0.00    +0.000 F 
ATOM      6  C   UNL     1       2.399   6.925  18.885  0.00  0.00    +0.000 A 
ATOM      7  C   UNL     1       1.871   7.017  20.186  0.00  0.00    +0.000 A 
ATOM      8  F   UNL     1       1.863   5.944  20.993  0.00  0.00    +0.000 F 
ATOM      9  C   UNL     1       1.325   8.206  20.681  0.00  0.00    +0.000 A 
ATOM     10  F   UNL     1       0.799   8.232  21.917  0.00  0.00    +0.000 F 
ENDROOT
BRANCH   6  11
ATOM     11  C   UNL     1       2.928   5.659  18.322  0.00  0.00    +0.000 A 
ATOM     12  C   UNL     1       2.068   4.657  17.832  0.00  0.00    +0.000 A 
ATOM     13  C   UNL     1       2.554   3.423  17.388  0.00  0.00    +0.000 A 
ATOM     14  C   UNL     1       3.920   3.168  17.398  0.00  0.00    +0.000 A 
ATOM     15  C   UNL     1       4.798   4.150  17.842  0.00  0.00    +0.000 A 
ATOM     16  C   UNL     1       4.307   5.377  18.303  0.00  0.00    +0.000 A 
ENDBRANCH   6  11
BRANCH   1  19
ATOM     17  O   UNL     1      -1.325  10.204  19.116  0.00  0.00    +0.000 OA
ATOM     18  C   UNL     1      -0.676  10.863  19.925  0.00  0.00    +0.000 C 
ATOM     19  N   UNL     1       0.590  10.493  20.376  0.00  0.00    +0.000 N 
ATOM     20  H   UNL     1       0.845  10.836  21.298  0.00  0.00    +0.000 HD
BRANCH  18  21
ATOM     21  C   UNL     1      -1.215  12.042  20.577  0.00  0.00    +0.000 A 
ATOM     22  N   UNL     1      -1.908  12.992  19.927  0.00  0.00    +0.000 NA
ATOM     23  O   UNL     1      -2.260  13.922  20.906  0.00  0.00    +0.000 OA
ATOM     24  N   UNL     1      -1.746  13.563  22.158  0.00  0.00    +0.000 NA
ATOM     25  C   UNL     1      -1.122  12.420  21.918  0.00  0.00    +0.000 A 
BRANCH  25  26
ATOM     26  O   UNL     1      -0.500  11.851  22.954  0.00  0.00    +0.000 OA
ATOM     27  H   UNL     1       0.231  11.323  22.591  0.00  0.00    +0.000 HD
ENDBRANCH  25  26
ENDBRANCH  18  21
ENDBRANCH   1  19
TORSDOF 4
ENDMDL
MODEL 4
REMARK VINA RESULT:      -7.6      4.387      7.845
REMARK  Name = 
REMARK  4 active torsions:
REMARK  status: ('A' for Active; 'I' for Inactive)
REMARK    1  A    between atoms: C_2  and  C_20
REMARK    2  A    between atoms: N_3  and  C_4
REMARK    3  A    between atoms: C_9  and  C_10
REMARK    4  A    between atoms: C_24  and  O_25
REMARK                            x       y       z     vdW  Elec       q    Type
REMARK                         _______ _______ _______ _____ _____    ______ ____
ROOT
ATOM      1  C   UNL     1       1.236   9.324  19.825  0.00  0.00    +0.000 A 
ATOM      2  C   UNL     1       1.816   9.225  18.562  0.00  0.00    +0.000 A 
ATOM      3  F   UNL     1       1.911  10.305  17.771  0.00  0.00    +0.000 F 
ATOM      4  C   UNL     1       2.375   8.024  18.125  0.00  0.00    +0.000 A 
ATOM      5  F   UNL     1       2.900   8.000  16.889  0.00  0.00    +0.000 F 
ATOM      6  C   UNL     1       2.385   6.866  18.926  0.00  0.00    +0.000 A 
ATOM      7  C   UNL     1       1.842   7.007  20.216  0.00  0.00    +0.000 A 
ATOM      8  F   UNL     1       1.817   5.962  21.060  0.00  0.00    +0.000 F 
ATOM      9  C   UNL     1       1.298   8.215  20.663  0.00  0.00    +0.000 A 
ATOM     10  F   UNL     1       0.758   8.288  21.891  0.00  0.00    +0.000 F 
ENDROOT
BRANCH   6  11
ATOM     11  C   UNL     1       2.911   5.577  18.414  0.00  0.00    +0.000 A 
ATOM     12  C   UNL     1       2.075   4.644  17.772  0.00  0.00    +0.000 A 
ATOM     13  C   UNL     1       2.543   3.389  17.371  0.00  0.00    +0.000 A 
ATOM     14  C   UNL     1       3.872   3.043  17.580  0.00  0.00    +0.000 A 
ATOM     15  C   UNL     1       4.733   3.956  18.179  0.00  0.00    +0.000 A 
ATOM     16  C   UNL     1       4.257   5.205  18.594  0.00  0.00    +0.000 A 
ENDBRANCH   6  11
BRANCH   1  19
ATOM     17  O   UNL     1      -1.334  10.156  19.026  0.00  0.00    +0.000 OA
ATOM     18  C   UNL     1      -0.684  10.848  19.806  0.00  0.00    +0.000 C 
ATOM     19  N   UNL     1       0.583  10.495  20.269  0.00  0.00    +0.000 N 
ATOM     20  H   UNL     1       0.839  10.877  21.176  0.00  0.00    +0.000 HD
BRANCH  18  21
ATOM     21  C   UNL     1      -1.220  12.054  20.408  0.00  0.00    +0.000 A 
ATOM     22  N   UNL     1      -0.644  12.676  21.450  0.00  0.00    +0.000 NA
ATOM     23  O   UNL     1      -1.448  13.789  21.700  0.00  0.00    +0.000 OA
ATOM     24  N   UNL     1      -2.547  13.829  20.834  0.00  0.00    +0.000 NA
ATOM     25  C   UNL     1      -2.373  12.764  20.067  0.00  0.00    +0.000 A 
BRANCH  25  26
ATOM     26  O   UNL     1      -3.311  12.532  19.145  0.00  0.00    +0.000 OA
ATOM     27  H   UNL     1      -4.146  12.387  19.621  0.00  0.00    +0.000 HD
ENDBRANCH  25  26
ENDBRANCH  18  21
ENDBRANCH   1  19
TORSDOF 4
ENDMDL
MODEL 5
REMARK VINA RESULT:      -7.6      0.745      1.204
REMARK  Name = 
REMARK  4 active torsions:
REMARK  status: ('A' for Active; 'I' for Inactive)
REMARK    1  A    between atoms: C_2  and  C_20
REMARK    2  A    between atoms: N_3  and  C_4
REMARK    3  A    between atoms: C_9  and  C_10
REMARK    4  A    between atoms: C_24  and  O_25
REMARK                            x       y       z     vdW  Elec       q    Type
REMARK                         _______ _______ _______ _____ _____    ______ ____
ROOT
ATOM      1  C   UNL     1       2.332   7.144  19.730  0.00  0.00    +0.000 A 
ATOM      2  C   UNL     1       2.526   7.742  18.486  0.00  0.00    +0.000 A 
ATOM      3  F   UNL     1       3.215   7.106  17.527  0.00  0.00    +0.000 F 
ATOM      4  C   UNL     1       1.946   8.975  18.188  0.00  0.00    +0.000 A 
ATOM      5  F   UNL     1       2.193   9.497  16.975  0.00  0.00    +0.000 F 
ATOM      6  C   UNL     1       1.145   9.671  19.114  0.00  0.00    +0.000 A 
ATOM      7  C   UNL     1       0.921   9.022  20.342  0.00  0.00    +0.000 A 
ATOM      8  F   UNL     1       0.159   9.598  21.286  0.00  0.00    +0.000 F 
ATOM      9  C   UNL     1       1.485   7.776  20.635  0.00  0.00    +0.000 A 
ATOM     10  F   UNL     1       1.270   7.215  21.837  0.00  0.00    +0.000 F 
ENDROOT
BRANCH   6  11
ATOM     11  C   UNL     1       0.604  11.018  18.809  0.00  0.00    +0.000 A 
ATOM     12  C   UNL     1       1.417  12.166  18.864  0.00  0.00    +0.000 A 
ATOM     13  C   UNL     1       0.893  13.449  18.671  0.00  0.00    +0.000 A 
ATOM     14  C   UNL     1      -0.457  13.613  18.389  0.00  0.00    +0.000 A 
ATOM     15  C   UNL     1      -1.280  12.497  18.292  0.00  0.00    +0.000 A 
ATOM     16  C   UNL     1      -0.756  11.216  18.504  0.00  0.00    +0.000 A 
ENDBRANCH   6  11
BRANCH   1  19
ATOM     17  O   UNL     1       1.531   4.565  18.929  0.00  0.00    +0.000 OA
ATOM     18  C   UNL     1       2.496   4.699  19.678  0.00  0.00    +0.000 C 
ATOM     19  N   UNL     1       2.971   5.940  20.100  0.00  0.00    +0.000 N 
ATOM     20  H   UNL     1       3.958   5.972  20.342  0.00  0.00    +0.000 HD
BRANCH  18  21
ATOM     21  C   UNL     1       3.306   3.577  20.112  0.00  0.00    +0.000 A 
ATOM     22  N   UNL     1       4.425   3.188  19.478  0.00  0.00    +0.000 NA
ATOM     23  O   UNL     1       4.906   2.106  20.219  0.00  0.00    +0.000 OA
ATOM     24  N   UNL     1       4.056   1.803  21.289  0.00  0.00    +0.000 NA
ATOM     25  C   UNL     1       3.101   2.715  21.191  0.00  0.00    +0.000 A 
BRANCH  25  26
ATOM     26  O   UNL     1       2.115   2.645  22.089  0.00  0.00    +0.000 OA
ATOM     27  H   UNL     1       1.574   3.444  21.979  0.00  0.00    +0.000 HD
ENDBRANCH  25  26
ENDBRANCH  18  21
ENDBRANCH   1  19
TORSDOF 4
ENDMDL
MODEL 6
REMARK VINA RESULT:      -7.5      4.351      7.749
REMARK  Name = 
REMARK  4 active torsions:
REMARK  status: ('A' for Active; 'I' for Inactive)
REMARK    1  A    between atoms: C_2  and  C_20
REMARK    2  A    between atoms: N_3  and  C_4
REMARK    3  A    between atoms: C_9  and  C_10
REMARK    4  A    between atoms: C_24  and  O_25
REMARK                            x       y       z     vdW  Elec       q    Type
REMARK                         _______ _______ _______ _____ _____    ______ ____
ROOT
ATOM      1  C   UNL     1       1.270   9.341  19.768  0.00  0.00    +0.000 A 
ATOM      2  C   UNL     1       1.888   9.218  18.524  0.00  0.00    +0.000 A 
ATOM      3  F   UNL     1       2.009  10.284  17.718  0.00  0.00    +0.000 F 
ATOM      4  C   UNL     1       2.456   8.009  18.125  0.00  0.00    +0.000 A 
ATOM      5  F   UNL     1       3.017   7.962  16.905  0.00  0.00    +0.000 F 
ATOM      6  C   UNL     1       2.438   6.865  18.946  0.00  0.00    +0.000 A 
ATOM      7  C   UNL     1       1.857   7.029  20.217  0.00  0.00    +0.000 A 
ATOM      8  F   UNL     1       1.805   6.000  21.077  0.00  0.00    +0.000 F 
ATOM      9  C   UNL     1       1.304   8.247  20.626  0.00  0.00    +0.000 A 
ATOM     10  F   UNL     1       0.729   8.342  21.836  0.00  0.00    +0.000 F 
ENDROOT
BRANCH   6  11
ATOM     11  C   UNL     1       2.975   5.566  18.472  0.00  0.00    +0.000 A 
ATOM     12  C   UNL     1       4.340   5.242  18.605  0.00  0.00    +0.000 A 
ATOM     13  C   UNL     1       4.871   4.061  18.077  0.00  0.00    +0.000 A 
ATOM     14  C   UNL     1       4.043   3.157  17.423  0.00  0.00    +0.000 A 
ATOM     15  C   UNL     1       2.685   3.431  17.306  0.00  0.00    +0.000 A 
ATOM     16  C   UNL     1       2.160   4.622  17.820  0.00  0.00    +0.000 A 
ENDBRANCH   6  11
BRANCH   1  19
ATOM     17  O   UNL     1      -1.306  10.124  18.942  0.00  0.00    +0.000 OA
ATOM     18  C   UNL     1      -0.661  10.848  19.697  0.00  0.00    +0.000 C 
ATOM     19  N   UNL     1       0.608  10.521  20.172  0.00  0.00    +0.000 N 
ATOM     20  H   UNL     1       0.861  10.935  21.066  0.00  0.00    +0.000 HD
BRANCH  18  21
ATOM     21  C   UNL     1      -1.207  12.069  20.258  0.00  0.00    +0.000 A 
ATOM     22  N   UNL     1      -1.798  12.127  21.464  0.00  0.00    +0.000 NA
ATOM     23  O   UNL     1      -2.154  13.466  21.632  0.00  0.00    +0.000 OA
ATOM     24  N   UNL     1      -1.817  14.228  20.507  0.00  0.00    +0.000 NA
ATOM     25  C   UNL     1      -1.246  13.348  19.699  0.00  0.00    +0.000 A 
BRANCH  25  26
ATOM     26  O   UNL     1      -0.841  13.804  18.511  0.00  0.00    +0.000 OA
ATOM     27  H   UNL     1      -0.380  14.644  18.671  0.00  0.00    +0.000 HD
ENDBRANCH  25  26
ENDBRANCH  18  21
ENDBRANCH   1  19
TORSDOF 4
ENDMDL
MODEL 7
REMARK VINA RESULT:      -7.5      1.158      2.634
REMARK  Name = 
REMARK  4 active torsions:
REMARK  status: ('A' for Active; 'I' for Inactive)
REMARK    1  A    between atoms: C_2  and  C_20
REMARK    2  A    between atoms: N_3  and  C_4
REMARK    3  A    between atoms: C_9  and  C_10
REMARK    4  A    between atoms: C_24  and  O_25
REMARK                            x       y       z     vdW  Elec       q    Type
REMARK                         _______ _______ _______ _____ _____    ______ ____
ROOT
ATOM      1  C   UNL     1       2.440   6.958  19.423  0.00  0.00    +0.000 A 
ATOM      2  C   UNL     1       1.630   7.483  20.429  0.00  0.00    +0.000 A 
ATOM      3  F   UNL     1       1.467   6.822  21.585  0.00  0.00    +0.000 F 
ATOM      4  C   UNL     1       1.034   8.737  20.285  0.00  0.00    +0.000 A 
ATOM      5  F   UNL     1       0.253   9.168  21.288  0.00  0.00    +0.000 F 
ATOM      6  C   UNL     1       1.219   9.526  19.134  0.00  0.00    +0.000 A 
ATOM      7  C   UNL     1       2.083   8.998  18.158  0.00  0.00    +0.000 A 
ATOM      8  F   UNL     1       2.333   9.683  17.030  0.00  0.00    +0.000 F 
ATOM      9  C   UNL     1       2.696   7.751  18.309  0.00  0.00    +0.000 A 
ATOM     10  F   UNL     1       3.484   7.274  17.331  0.00  0.00    +0.000 F 
ENDROOT
BRANCH   6  11
ATOM     11  C   UNL     1       0.513  10.820  18.964  0.00  0.00    +0.000 A 
ATOM     12  C   UNL     1      -0.828  10.876  18.540  0.00  0.00    +0.000 A 
ATOM     13  C   UNL     1      -1.470  12.093  18.287  0.00  0.00    +0.000 A 
ATOM     14  C   UNL     1      -0.793  13.290  18.478  0.00  0.00    +0.000 A 
ATOM     15  C   UNL     1       0.521  13.270  18.931  0.00  0.00    +0.000 A 
ATOM     16  C   UNL     1       1.167  12.051  19.167  0.00  0.00    +0.000 A 
ENDBRANCH   6  11
BRANCH   1  19
ATOM     17  O   UNL     1       1.406   4.684  18.123  0.00  0.00    +0.000 OA
ATOM     18  C   UNL     1       2.401   4.579  18.837  0.00  0.00    +0.000 C 
ATOM     19  N   UNL     1       2.989   5.659  19.494  0.00  0.00    +0.000 N 
ATOM     20  H   UNL     1       3.982   5.564  19.689  0.00  0.00    +0.000 HD
BRANCH  18  21
ATOM     21  C   UNL     1       3.128   3.332  18.978  0.00  0.00    +0.000 A 
ATOM     22  N   UNL     1       4.173   3.179  19.809  0.00  0.00    +0.000 NA
ATOM     23  O   UNL     1       4.562   1.846  19.664  0.00  0.00    +0.000 OA
ATOM     24  N   UNL     1       3.779   1.187  18.708  0.00  0.00    +0.000 NA
ATOM     25  C   UNL     1       2.923   2.119  18.318  0.00  0.00    +0.000 A 
BRANCH  25  26
ATOM     26  O   UNL     1       2.053   1.769  17.367  0.00  0.00    +0.000 OA
ATOM     27  H   UNL     1       1.509   2.552  17.178  0.00  0.00    +0.000 HD
ENDBRANCH  25  26
ENDBRANCH  18  21
ENDBRANCH   1  19
TORSDOF 4
ENDMDL
MODEL 8
REMARK VINA RESULT:      -7.4      1.117      1.555
REMARK  Name = 
REMARK  4 active torsions:
REMARK  status: ('A' for Active; 'I' for Inactive)
REMARK    1  A    between atoms: C_2  and  C_20
REMARK    2  A    between atoms: N_3  and  C_4
REMARK    3  A    between atoms: C_9  and  C_10
REMARK    4  A    between atoms: C_24  and  O_25
REMARK                            x       y       z     vdW  Elec       q    Type
REMARK                         _______ _______ _______ _____ _____    ______ ____
ROOT
ATOM      1  C   UNL     1       2.378   7.115  19.378  0.00  0.00    +0.000 A 
ATOM      2  C   UNL     1       2.563   7.929  18.261  0.00  0.00    +0.000 A 
ATOM      3  F   UNL     1       3.241   7.476  17.196  0.00  0.00    +0.000 F 
ATOM      4  C   UNL     1       1.986   9.197  18.198  0.00  0.00    +0.000 A 
ATOM      5  F   UNL     1       2.223   9.930  17.098  0.00  0.00    +0.000 F 
ATOM      6  C   UNL     1       1.196   9.714  19.242  0.00  0.00    +0.000 A 
ATOM      7  C   UNL     1       0.980   8.853  20.334  0.00  0.00    +0.000 A 
ATOM      8  F   UNL     1       0.228   9.251  21.374  0.00  0.00    +0.000 F 
ATOM      9  C   UNL     1       1.541   7.574  20.391  0.00  0.00    +0.000 A 
ATOM     10  F   UNL     1       1.335   6.804  21.472  0.00  0.00    +0.000 F 
ENDROOT
BRANCH   6  11
ATOM     11  C   UNL     1       0.657  11.096  19.192  0.00  0.00    +0.000 A 
ATOM     12  C   UNL     1      -0.608  11.372  18.640  0.00  0.00    +0.000 A 
ATOM     13  C   UNL     1      -1.082  12.680  18.503  0.00  0.00    +0.000 A 
ATOM     14  C   UNL     1      -0.311  13.749  18.942  0.00  0.00    +0.000 A 
ATOM     15  C   UNL     1       0.928  13.508  19.524  0.00  0.00    +0.000 A 
ATOM     16  C   UNL     1       1.407  12.198  19.643  0.00  0.00    +0.000 A 
ENDBRANCH   6  11
BRANCH   1  19
ATOM     17  O   UNL     1       1.587   4.736  18.094  0.00  0.00    +0.000 OA
ATOM     18  C   UNL     1       2.545   4.725  18.863  0.00  0.00    +0.000 C 
ATOM     19  N   UNL     1       3.016   5.863  19.517  0.00  0.00    +0.000 N 
ATOM     20  H   UNL     1       4.000   5.847  19.769  0.00  0.00    +0.000 HD
BRANCH  18  21
ATOM     21  C   UNL     1       3.353   3.540  19.081  0.00  0.00    +0.000 A 
ATOM     22  N   UNL     1       4.501   3.549  19.780  0.00  0.00    +0.000 NA
ATOM     23  O   UNL     1       4.942   2.225  19.773  0.00  0.00    +0.000 OA
ATOM     24  N   UNL     1       4.084   1.405  19.032  0.00  0.00    +0.000 NA
ATOM     25  C   UNL     1       3.135   2.237  18.631  0.00  0.00    +0.000 A 
BRANCH  25  26
ATOM     26  O   UNL     1       2.173   1.719  17.862  0.00  0.00    +0.000 OA
ATOM     27  H   UNL     1       1.690   1.075  18.407  0.00  0.00    +0.000 HD
ENDBRANCH  25  26
ENDBRANCH  18  21
ENDBRANCH   1  19
TORSDOF 4
ENDMDL
MODEL 9
REMARK VINA RESULT:      -7.4      3.955      8.134
REMARK  Name = 
REMARK  4 active torsions:
REMARK  status: ('A' for Active; 'I' for Inactive)
REMARK    1  A    between atoms: C_2  and  C_20
REMARK    2  A    between atoms: N_3  and  C_4
REMARK    3  A    between atoms: C_9  and  C_10
REMARK    4  A    between atoms: C_24  and  O_25
REMARK                            x       y       z     vdW  Elec       q    Type
REMARK                         _______ _______ _______ _____ _____    ______ ____
ROOT
ATOM      1  C   UNL     1       1.718   8.506  19.452  0.00  0.00    +0.000 A 
ATOM      2  C   UNL     1       1.353   7.515  20.363  0.00  0.00    +0.000 A 
ATOM      3  F   UNL     1       0.577   7.814  21.416  0.00  0.00    +0.000 F 
ATOM      4  C   UNL     1       1.721   6.186  20.159  0.00  0.00    +0.000 A 
ATOM      5  F   UNL     1       1.348   5.291  21.088  0.00  0.00    +0.000 F 
ATOM      6  C   UNL     1       2.470   5.779  19.038  0.00  0.00    +0.000 A 
ATOM      7  C   UNL     1       2.780   6.787  18.107  0.00  0.00    +0.000 A 
ATOM      8  F   UNL     1       3.479   6.496  16.998  0.00  0.00    +0.000 F 
ATOM      9  C   UNL     1       2.394   8.117  18.300  0.00  0.00    +0.000 A 
ATOM     10  F   UNL     1       2.747   9.050  17.399  0.00  0.00    +0.000 F 
ENDROOT
BRANCH   6  11
ATOM     11  C   UNL     1       2.922   4.375  18.879  0.00  0.00    +0.000 A 
ATOM     12  C   UNL     1       2.309   3.505  17.956  0.00  0.00    +0.000 A 
ATOM     13  C   UNL     1       2.666   2.156  17.867  0.00  0.00    +0.000 A 
ATOM     14  C   UNL     1       3.667   1.646  18.684  0.00  0.00    +0.000 A 
ATOM     15  C   UNL     1       4.317   2.487  19.581  0.00  0.00    +0.000 A 
ATOM     16  C   UNL     1       3.945   3.832  19.679  0.00  0.00    +0.000 A 
ENDBRANCH   6  11
BRANCH   1  19
ATOM     17  O   UNL     1      -0.363   9.953  18.224  0.00  0.00    +0.000 OA
ATOM     18  C   UNL     1       0.402  10.522  19.000  0.00  0.00    +0.000 C 
ATOM     19  N   UNL     1       1.439   9.873  19.667  0.00  0.00    +0.000 N 
ATOM     20  H   UNL     1       1.720  10.290  20.551  0.00  0.00    +0.000 HD
BRANCH  18  21
ATOM     21  C   UNL     1       0.230  11.911  19.382  0.00  0.00    +0.000 A 
ATOM     22  N   UNL     1       0.670  12.415  20.548  0.00  0.00    +0.000 NA
ATOM     23  O   UNL     1       0.331  13.768  20.512  0.00  0.00    +0.000 OA
ATOM     24  N   UNL     1      -0.358  14.090  19.336  0.00  0.00    +0.000 NA
ATOM     25  C   UNL     1      -0.398  12.941  18.679  0.00  0.00    +0.000 A 
BRANCH  25  26
ATOM     26  O   UNL     1      -1.037  12.946  17.506  0.00  0.00    +0.000 OA
ATOM     27  H   UNL     1      -1.429  12.065  17.392  0.00  0.00    +0.000 HD
ENDBRANCH  25  26
ENDBRANCH  18  21
ENDBRANCH   1  19
TORSDOF 4
ENDMDL
