MODEL 1
REMARK VINA RESULT:      -8.8      0.000      0.000
REMARK  Name = 
REMARK  5 active torsions:
REMARK  status: ('A' for Active; 'I' for Inactive)
REMARK    1  A    between atoms: S_2  and  N_4
REMARK    2  A    between atoms: S_2  and  C_28
REMARK    3  A    between atoms: N_4  and  C_5
REMARK    4  A    between atoms: C_7  and  C_8
REMARK    5  A    between atoms: C_15  and  C_16
REMARK                            x       y       z     vdW  Elec       q    Type
REMARK                         _______ _______ _______ _____ _____    ______ ____
ROOT
ATOM      1  C   UNL     1       1.084  10.620  19.475  0.00  0.00    +0.000 A 
ATOM      2  C   UNL     1       1.195   9.278  19.854  0.00  0.00    +0.000 A 
ATOM      3  C   UNL     1       1.966   8.380  19.098  0.00  0.00    +0.000 A 
ATOM      4  C   UNL     1       2.604   8.921  17.974  0.00  0.00    +0.000 A 
ATOM      5  N   UNL     1       2.542  10.216  17.582  0.00  0.00    +0.000 NA
ATOM      6  C   UNL     1       1.799  11.035  18.356  0.00  0.00    +0.000 A 
ATOM      7 CL   UNL     1       1.771  12.659  17.794  0.00  0.00    +0.000 Cl
ENDROOT
BRANCH   3   8
ATOM      8  C   UNL     1       2.109   6.956  19.466  0.00  0.00    +0.000 A 
ATOM      9  C   UNL     1       1.458   6.405  20.570  0.00  0.00    +0.000 A 
ATOM     10  C   UNL     1       1.625   5.055  20.897  0.00  0.00    +0.000 A 
ATOM     11  C   UNL     1       2.477   4.222  20.183  0.00  0.00    +0.000 A 
ATOM     12  N   UNL     1       2.584   2.942  20.563  0.00  0.00    +0.000 NA
ATOM     13  N   UNL     1       3.420   2.095  19.918  0.00  0.00    +0.000 NA
ATOM     14  C   UNL     1       4.180   2.567  18.911  0.00  0.00    +0.000 A 
ATOM     15  C   UNL     1       4.143   3.882  18.446  0.00  0.00    +0.000 A 
ATOM     16  C   UNL     1       3.204   4.742  19.094  0.00  0.00    +0.000 A 
ATOM     17  C   UNL     1       2.937   6.091  18.726  0.00  0.00    +0.000 A 
BRANCH  15  18
ATOM     18  C   UNL     1       5.090   4.302  17.371  0.00  0.00    +0.000 A 
ATOM     19  C   UNL     1       6.272   5.011  17.667  0.00  0.00    +0.000 A 
ATOM     20  C   UNL     1       7.154   5.425  16.662  0.00  0.00    +0.000 A 
ATOM     21  C   UNL     1       6.899   5.108  15.332  0.00  0.00    +0.000 A 
ATOM     22  C   UNL     1       5.739   4.419  15.005  0.00  0.00    +0.000 A 
ATOM     23  C   UNL     1       4.831   4.063  16.007  0.00  0.00    +0.000 A 
ENDBRANCH  15  18
ENDBRANCH   3   8
BRANCH   1  24
ATOM     24  N   UNL     1       0.299  11.506  20.315  0.00  0.00    +0.000 N 
ATOM     25  H   UNL     1       0.057  11.023  21.190  0.00  0.00    +0.000 HD
BRANCH  24  27
ATOM     26  O   UNL     1      -1.073  13.179  18.903  0.00  0.00    +0.000 OA
ATOM     27  S   UNL     1      -1.209  11.937  19.631  0.00  0.00    +0.000 S 
ATOM     28  O   UNL     1      -1.729  10.735  19.014  0.00  0.00    +0.000 OA
BRANCH  27  29
ATOM     29  C   UNL     1      -2.182  12.263  21.085  0.00  0.00    +0.000 A 
ATOM     30  C   UNL     1      -3.470  12.795  20.941  0.00  0.00    +0.000 A 
ATOM     31  C   UNL     1      -4.272  12.968  22.070  0.00  0.00    +0.000 A 
ATOM     32  C   UNL     1      -3.793  12.608  23.331  0.00  0.00    +0.000 A 
ATOM     33  C   UNL     1      -2.510  12.075  23.469  0.00  0.00    +0.000 A 
ATOM     34  C   UNL     1      -1.701  11.898  22.345  0.00  0.00    +0.000 A 
ENDBRANCH  27  29
ENDBRANCH  24  27
ENDBRANCH   1  24
TORSDOF 5
ENDMDL
MODEL 2
REMARK VINA RESULT:      -8.7      0.124      1.185
REMARK  Name = 
REMARK  5 active torsions:
REMARK  status: ('A' for Active; 'I' for Inactive)
REMARK    1  A    between atoms: S_2  and  N_4
REMARK    2  A    between atoms: S_2  and  C_28
REMARK    3  A    between atoms: N_4  and  C_5
REMARK    4  A    between atoms: C_7  and  C_8
REMARK    5  A    between atoms: C_15  and  C_16
REMARK                            x       y       z     vdW  Elec       q    Type
REMARK                         _______ _______ _______ _____ _____    ______ ____
ROOT
ATOM      1  C   UNL     1       1.072  10.621  19.532  0.00  0.00    +0.000 A 
ATOM      2  C   UNL     1       1.185   9.278  19.907  0.00  0.00    +0.000 A 
ATOM      3  C   UNL     1       1.946   8.381  19.141  0.00  0.00    +0.000 A 
ATOM      4  C   UNL     1       2.573   8.923  18.012  0.00  0.00    +0.000 A 
ATOM      5  N   UNL     1       2.509  10.219  17.623  0.00  0.00    +0.000 NA
ATOM      6  C   UNL     1       1.776  11.038  18.407  0.00  0.00    +0.000 A 
ATOM      7 CL   UNL     1       1.746  12.662  17.848  0.00  0.00    +0.000 Cl
ENDROOT
BRANCH   3   8
ATOM      8  C   UNL     1       2.090   6.955  19.505  0.00  0.00    +0.000 A 
ATOM      9  C   UNL     1       1.441   6.401  20.607  0.00  0.00    +0.000 A 
ATOM     10  C   UNL     1       1.609   5.050  20.930  0.00  0.00    +0.000 A 
ATOM     11  C   UNL     1       2.461   4.220  20.213  0.00  0.00    +0.000 A 
ATOM     12  N   UNL     1       2.569   2.939  20.590  0.00  0.00    +0.000 NA
ATOM     13  N   UNL     1       3.405   2.095  19.942  0.00  0.00    +0.000 NA
ATOM     14  C   UNL     1       4.165   2.571  18.935  0.00  0.00    +0.000 A 
ATOM     15  C   UNL     1       4.127   3.886  18.475  0.00  0.00    +0.000 A 
ATOM     16  C   UNL     1       3.187   4.744  19.125  0.00  0.00    +0.000 A 
ATOM     17  C   UNL     1       2.919   6.094  18.762  0.00  0.00    +0.000 A 
BRANCH  15  18
ATOM     18  C   UNL     1       5.073   4.311  17.401  0.00  0.00    +0.000 A 
ATOM     19  C   UNL     1       4.706   4.276  16.040  0.00  0.00    +0.000 A 
ATOM     20  C   UNL     1       5.595   4.655  15.027  0.00  0.00    +0.000 A 
ATOM     21  C   UNL     1       6.866   5.118  15.348  0.00  0.00    +0.000 A 
ATOM     22  C   UNL     1       7.263   5.156  16.678  0.00  0.00    +0.000 A 
ATOM     23  C   UNL     1       6.393   4.718  17.680  0.00  0.00    +0.000 A 
ENDBRANCH  15  18
ENDBRANCH   3   8
BRANCH   1  24
ATOM     24  N   UNL     1       0.298  11.508  20.382  0.00  0.00    +0.000 N 
ATOM     25  H   UNL     1       0.016  11.005  21.234  0.00  0.00    +0.000 HD
BRANCH  24  27
ATOM     26  O   UNL     1      -1.006  13.329  19.095  0.00  0.00    +0.000 OA
ATOM     27  S   UNL     1      -1.175  12.016  19.676  0.00  0.00    +0.000 S 
ATOM     28  O   UNL     1      -1.663  10.890  18.908  0.00  0.00    +0.000 OA
BRANCH  27  29
ATOM     29  C   UNL     1      -2.219  12.187  21.107  0.00  0.00    +0.000 A 
ATOM     30  C   UNL     1      -1.721  11.823  22.365  0.00  0.00    +0.000 A 
ATOM     31  C   UNL     1      -2.502  12.039  23.501  0.00  0.00    +0.000 A 
ATOM     32  C   UNL     1      -3.766  12.617  23.382  0.00  0.00    +0.000 A 
ATOM     33  C   UNL     1      -4.258  12.980  22.127  0.00  0.00    +0.000 A 
ATOM     34  C   UNL     1      -3.483  12.769  20.985  0.00  0.00    +0.000 A 
ENDBRANCH  27  29
ENDBRANCH  24  27
ENDBRANCH   1  24
TORSDOF 5
ENDMDL
MODEL 3
REMARK VINA RESULT:      -8.7      2.441      3.326
REMARK  Name = 
REMARK  5 active torsions:
REMARK  status: ('A' for Active; 'I' for Inactive)
REMARK    1  A    between atoms: S_2  and  N_4
REMARK    2  A    between atoms: S_2  and  C_28
REMARK    3  A    between atoms: N_4  and  C_5
REMARK    4  A    between atoms: C_7  and  C_8
REMARK    5  A    between atoms: C_15  and  C_16
REMARK                            x       y       z     vdW  Elec       q    Type
REMARK                         _______ _______ _______ _____ _____    ______ ____
ROOT
ATOM      1  C   UNL     1       0.673  10.424  19.777  0.00  0.00    +0.000 A 
ATOM      2  C   UNL     1       0.943   9.074  19.529  0.00  0.00    +0.000 A 
ATOM      3  C   UNL     1       1.445   8.244  20.544  0.00  0.00    +0.000 A 
ATOM      4  C   UNL     1       1.637   8.854  21.790  0.00  0.00    +0.000 A 
ATOM      5  N   UNL     1       1.371  10.150  22.082  0.00  0.00    +0.000 NA
ATOM      6  C   UNL     1       0.875  10.895  21.071  0.00  0.00    +0.000 A 
ATOM      7 CL   UNL     1       0.562  12.524  21.519  0.00  0.00    +0.000 Cl
ENDROOT
BRANCH   3   8
ATOM      8  C   UNL     1       1.741   6.813  20.322  0.00  0.00    +0.000 A 
ATOM      9  C   UNL     1       0.905   5.800  20.791  0.00  0.00    +0.000 A 
ATOM     10  C   UNL     1       1.222   4.455  20.574  0.00  0.00    +0.000 A 
ATOM     11  C   UNL     1       2.395   4.066  19.940  0.00  0.00    +0.000 A 
ATOM     12  N   UNL     1       2.626   2.756  19.774  0.00  0.00    +0.000 NA
ATOM     13  N   UNL     1       3.765   2.323  19.185  0.00  0.00    +0.000 NA
ATOM     14  C   UNL     1       4.689   3.227  18.805  0.00  0.00    +0.000 A 
ATOM     15  C   UNL     1       4.543   4.607  18.939  0.00  0.00    +0.000 A 
ATOM     16  C   UNL     1       3.303   5.047  19.498  0.00  0.00    +0.000 A 
ATOM     17  C   UNL     1       2.906   6.407  19.645  0.00  0.00    +0.000 A 
BRANCH  15  18
ATOM     18  C   UNL     1       5.672   5.502  18.548  0.00  0.00    +0.000 A 
ATOM     19  C   UNL     1       6.893   5.497  19.251  0.00  0.00    +0.000 A 
ATOM     20  C   UNL     1       7.948   6.348  18.901  0.00  0.00    +0.000 A 
ATOM     21  C   UNL     1       7.827   7.202  17.811  0.00  0.00    +0.000 A 
ATOM     22  C   UNL     1       6.634   7.239  17.101  0.00  0.00    +0.000 A 
ATOM     23  C   UNL     1       5.562   6.432  17.494  0.00  0.00    +0.000 A 
ENDBRANCH  15  18
ENDBRANCH   3   8
BRANCH   1  24
ATOM     24  N   UNL     1       0.124  11.223  18.696  0.00  0.00    +0.000 N 
ATOM     25  H   UNL     1       0.691  12.072  18.577  0.00  0.00    +0.000 HD
BRANCH  24  27
ATOM     26  O   UNL     1      -1.959  11.200  20.225  0.00  0.00    +0.000 OA
ATOM     27  S   UNL     1      -1.455  11.801  19.010  0.00  0.00    +0.000 S 
ATOM     28  O   UNL     1      -1.404  13.236  18.823  0.00  0.00    +0.000 OA
BRANCH  27  29
ATOM     29  C   UNL     1      -2.367  11.112  17.646  0.00  0.00    +0.000 A 
ATOM     30  C   UNL     1      -3.628  11.634  17.332  0.00  0.00    +0.000 A 
ATOM     31  C   UNL     1      -4.308  11.159  16.209  0.00  0.00    +0.000 A 
ATOM     32  C   UNL     1      -3.731  10.175  15.405  0.00  0.00    +0.000 A 
ATOM     33  C   UNL     1      -2.472   9.660  15.720  0.00  0.00    +0.000 A 
ATOM     34  C   UNL     1      -1.784  10.130  16.840  0.00  0.00    +0.000 A 
ENDBRANCH  27  29
ENDBRANCH  24  27
ENDBRANCH   1  24
TORSDOF 5
ENDMDL
MODEL 4
REMARK VINA RESULT:      -8.7      1.302      1.774
REMARK  Name = 
REMARK  5 active torsions:
REMARK  status: ('A' for Active; 'I' for Inactive)
REMARK    1  A    between atoms: S_2  and  N_4
REMARK    2  A    between atoms: S_2  and  C_28
REMARK    3  A    between atoms: N_4  and  C_5
REMARK    4  A    between atoms: C_7  and  C_8
REMARK    5  A    between atoms: C_15  and  C_16
REMARK                            x       y       z     vdW  Elec       q    Type
REMARK                         _______ _______ _______ _____ _____    ______ ____
ROOT
ATOM      1  C   UNL     1       0.446  10.216  19.661  0.00  0.00    +0.000 A 
ATOM      2  C   UNL     1       0.730   8.892  20.012  0.00  0.00    +0.000 A 
ATOM      3  C   UNL     1       1.724   8.167  19.336  0.00  0.00    +0.000 A 
ATOM      4  C   UNL     1       2.396   8.859  18.319  0.00  0.00    +0.000 A 
ATOM      5  N   UNL     1       2.169  10.144  17.959  0.00  0.00    +0.000 NA
ATOM      6  C   UNL     1       1.213  10.795  18.655  0.00  0.00    +0.000 A 
ATOM      7 CL   UNL     1       0.986  12.419  18.141  0.00  0.00    +0.000 Cl
ENDROOT
BRANCH   3   8
ATOM      8  C   UNL     1       2.055   6.768  19.678  0.00  0.00    +0.000 A 
ATOM      9  C   UNL     1       1.533   6.137  20.807  0.00  0.00    +0.000 A 
ATOM     10  C   UNL     1       1.877   4.815  21.109  0.00  0.00    +0.000 A 
ATOM     11  C   UNL     1       2.783   4.094  20.342  0.00  0.00    +0.000 A 
ATOM     12  N   UNL     1       3.061   2.833  20.700  0.00  0.00    +0.000 NA
ATOM     13  N   UNL     1       3.956   2.096  20.002  0.00  0.00    +0.000 NA
ATOM     14  C   UNL     1       4.601   2.662  18.963  0.00  0.00    +0.000 A 
ATOM     15  C   UNL     1       4.384   3.965  18.517  0.00  0.00    +0.000 A 
ATOM     16  C   UNL     1       3.384   4.703  19.223  0.00  0.00    +0.000 A 
ATOM     17  C   UNL     1       2.940   6.013  18.886  0.00  0.00    +0.000 A 
BRANCH  15  18
ATOM     18  C   UNL     1       5.217   4.503  17.401  0.00  0.00    +0.000 A 
ATOM     19  C   UNL     1       4.948   4.172  16.057  0.00  0.00    +0.000 A 
ATOM     20  C   UNL     1       5.736   4.657  15.007  0.00  0.00    +0.000 A 
ATOM     21  C   UNL     1       6.794   5.521  15.267  0.00  0.00    +0.000 A 
ATOM     22  C   UNL     1       7.093   5.860  16.580  0.00  0.00    +0.000 A 
ATOM     23  C   UNL     1       6.340   5.322  17.629  0.00  0.00    +0.000 A 
ENDBRANCH  15  18
ENDBRANCH   3   8
BRANCH   1  24
ATOM     24  N   UNL     1      -0.571  10.923  20.419  0.00  0.00    +0.000 N 
ATOM     25  H   UNL     1      -0.879  11.749  19.891  0.00  0.00    +0.000 HD
BRANCH  24  27
ATOM     26  O   UNL     1       0.215  10.466  22.838  0.00  0.00    +0.000 OA
ATOM     27  S   UNL     1       0.000  11.550  21.905  0.00  0.00    +0.000 S 
ATOM     28  O   UNL     1       1.044  12.495  21.568  0.00  0.00    +0.000 OA
BRANCH  27  29
ATOM     29  C   UNL     1      -1.409  12.480  22.467  0.00  0.00    +0.000 A 
ATOM     30  C   UNL     1      -2.384  11.842  23.245  0.00  0.00    +0.000 A 
ATOM     31  C   UNL     1      -3.444  12.586  23.764  0.00  0.00    +0.000 A 
ATOM     32  C   UNL     1      -3.527  13.956  23.512  0.00  0.00    +0.000 A 
ATOM     33  C   UNL     1      -2.552  14.589  22.739  0.00  0.00    +0.000 A 
ATOM     34  C   UNL     1      -1.487  13.852  22.216  0.00  0.00    +0.000 A 
ENDBRANCH  27  29
ENDBRANCH  24  27
ENDBRANCH   1  24
TORSDOF 5
ENDMDL
MODEL 5
REMARK VINA RESULT:      -8.7      2.422      3.444
REMARK  Name = 
REMARK  5 active torsions:
REMARK  status: ('A' for Active; 'I' for Inactive)
REMARK    1  A    between atoms: S_2  and  N_4
REMARK    2  A    between atoms: S_2  and  C_28
REMARK    3  A    between atoms: N_4  and  C_5
REMARK    4  A    between atoms: C_7  and  C_8
REMARK    5  A    between atoms: C_15  and  C_16
REMARK                            x       y       z     vdW  Elec       q    Type
REMARK                         _______ _______ _______ _____ _____    ______ ____
ROOT
ATOM      1  C   UNL     1       0.651  10.401  19.871  0.00  0.00    +0.000 A 
ATOM      2  C   UNL     1       0.927   9.057  19.598  0.00  0.00    +0.000 A 
ATOM      3  C   UNL     1       1.419   8.207  20.601  0.00  0.00    +0.000 A 
ATOM      4  C   UNL     1       1.595   8.792  21.862  0.00  0.00    +0.000 A 
ATOM      5  N   UNL     1       1.321  10.080  22.177  0.00  0.00    +0.000 NA
ATOM      6  C   UNL     1       0.836  10.845  21.176  0.00  0.00    +0.000 A 
ATOM      7 CL   UNL     1       0.512  12.463  21.655  0.00  0.00    +0.000 Cl
ENDROOT
BRANCH   3   8
ATOM      8  C   UNL     1       1.723   6.782  20.353  0.00  0.00    +0.000 A 
ATOM      9  C   UNL     1       0.891   5.757  20.804  0.00  0.00    +0.000 A 
ATOM     10  C   UNL     1       1.214   4.417  20.561  0.00  0.00    +0.000 A 
ATOM     11  C   UNL     1       2.389   4.045  19.920  0.00  0.00    +0.000 A 
ATOM     12  N   UNL     1       2.626   2.740  19.731  0.00  0.00    +0.000 NA
ATOM     13  N   UNL     1       3.767   2.324  19.134  0.00  0.00    +0.000 NA
ATOM     14  C   UNL     1       4.687   3.238  18.771  0.00  0.00    +0.000 A 
ATOM     15  C   UNL     1       4.534   4.615  18.930  0.00  0.00    +0.000 A 
ATOM     16  C   UNL     1       3.293   5.039  19.496  0.00  0.00    +0.000 A 
ATOM     17  C   UNL     1       2.889   6.394  19.668  0.00  0.00    +0.000 A 
BRANCH  15  18
ATOM     18  C   UNL     1       5.659   5.523  18.555  0.00  0.00    +0.000 A 
ATOM     19  C   UNL     1       5.558   6.408  17.463  0.00  0.00    +0.000 A 
ATOM     20  C   UNL     1       6.616   7.247  17.094  0.00  0.00    +0.000 A 
ATOM     21  C   UNL     1       7.794   7.255  17.834  0.00  0.00    +0.000 A 
ATOM     22  C   UNL     1       7.930   6.389  18.910  0.00  0.00    +0.000 A 
ATOM     23  C   UNL     1       6.894   5.508  19.235  0.00  0.00    +0.000 A 
ENDBRANCH  15  18
ENDBRANCH   3   8
BRANCH   1  24
ATOM     24  N   UNL     1       0.113  11.221  18.800  0.00  0.00    +0.000 N 
ATOM     25  H   UNL     1       0.692  12.064  18.691  0.00  0.00    +0.000 HD
BRANCH  24  27
ATOM     26  O   UNL     1      -2.000  11.152  20.286  0.00  0.00    +0.000 OA
ATOM     27  S   UNL     1      -1.458  11.817  19.121  0.00  0.00    +0.000 S 
ATOM     28  O   UNL     1      -1.368  13.259  19.030  0.00  0.00    +0.000 OA
BRANCH  27  29
ATOM     29  C   UNL     1      -2.359  11.241  17.699  0.00  0.00    +0.000 A 
ATOM     30  C   UNL     1      -1.787  10.260  16.878  0.00  0.00    +0.000 A 
ATOM     31  C   UNL     1      -2.524   9.740  15.814  0.00  0.00    +0.000 A 
ATOM     32  C   UNL     1      -3.823  10.191  15.575  0.00  0.00    +0.000 A 
ATOM     33  C   UNL     1      -4.390  11.166  16.398  0.00  0.00    +0.000 A 
ATOM     34  C   UNL     1      -3.660  11.692  17.465  0.00  0.00    +0.000 A 
ENDBRANCH  27  29
ENDBRANCH  24  27
ENDBRANCH   1  24
TORSDOF 5
ENDMDL
MODEL 6
REMARK VINA RESULT:      -8.7      1.294      1.488
REMARK  Name = 
REMARK  5 active torsions:
REMARK  status: ('A' for Active; 'I' for Inactive)
REMARK    1  A    between atoms: S_2  and  N_4
REMARK    2  A    between atoms: S_2  and  C_28
REMARK    3  A    between atoms: N_4  and  C_5
REMARK    4  A    between atoms: C_7  and  C_8
REMARK    5  A    between atoms: C_15  and  C_16
REMARK                            x       y       z     vdW  Elec       q    Type
REMARK                         _______ _______ _______ _____ _____    ______ ____
ROOT
ATOM      1  C   UNL     1       0.459  10.153  19.699  0.00  0.00    +0.000 A 
ATOM      2  C   UNL     1       0.747   8.828  20.045  0.00  0.00    +0.000 A 
ATOM      3  C   UNL     1       1.743   8.109  19.365  0.00  0.00    +0.000 A 
ATOM      4  C   UNL     1       2.412   8.806  18.351  0.00  0.00    +0.000 A 
ATOM      5  N   UNL     1       2.182  10.092  17.996  0.00  0.00    +0.000 NA
ATOM      6  C   UNL     1       1.224  10.738  18.695  0.00  0.00    +0.000 A 
ATOM      7 CL   UNL     1       0.992  12.363  18.187  0.00  0.00    +0.000 Cl
ENDROOT
BRANCH   3   8
ATOM      8  C   UNL     1       2.077   6.709  19.701  0.00  0.00    +0.000 A 
ATOM      9  C   UNL     1       1.560   6.073  20.830  0.00  0.00    +0.000 A 
ATOM     10  C   UNL     1       1.907   4.750  21.125  0.00  0.00    +0.000 A 
ATOM     11  C   UNL     1       2.813   4.034  20.353  0.00  0.00    +0.000 A 
ATOM     12  N   UNL     1       3.095   2.773  20.707  0.00  0.00    +0.000 NA
ATOM     13  N   UNL     1       3.990   2.041  20.004  0.00  0.00    +0.000 NA
ATOM     14  C   UNL     1       4.631   2.611  18.965  0.00  0.00    +0.000 A 
ATOM     15  C   UNL     1       4.410   3.916  18.524  0.00  0.00    +0.000 A 
ATOM     16  C   UNL     1       3.410   4.649  19.235  0.00  0.00    +0.000 A 
ATOM     17  C   UNL     1       2.962   5.959  18.904  0.00  0.00    +0.000 A 
BRANCH  15  18
ATOM     18  C   UNL     1       5.238   4.459  17.407  0.00  0.00    +0.000 A 
ATOM     19  C   UNL     1       6.370   5.263  17.653  0.00  0.00    +0.000 A 
ATOM     20  C   UNL     1       7.139   5.791  16.609  0.00  0.00    +0.000 A 
ATOM     21  C   UNL     1       6.821   5.498  15.288  0.00  0.00    +0.000 A 
ATOM     22  C   UNL     1       5.708   4.717  15.010  0.00  0.00    +0.000 A 
ATOM     23  C   UNL     1       4.907   4.244  16.054  0.00  0.00    +0.000 A 
ENDBRANCH  15  18
ENDBRANCH   3   8
BRANCH   1  24
ATOM     24  N   UNL     1      -0.559  10.854  20.461  0.00  0.00    +0.000 N 
ATOM     25  H   UNL     1      -0.891  11.665  19.923  0.00  0.00    +0.000 HD
BRANCH  24  27
ATOM     26  O   UNL     1       0.258  10.457  22.879  0.00  0.00    +0.000 OA
ATOM     27  S   UNL     1       0.023  11.518  21.926  0.00  0.00    +0.000 S 
ATOM     28  O   UNL     1       1.054  12.466  21.557  0.00  0.00    +0.000 OA
BRANCH  27  29
ATOM     29  C   UNL     1      -1.389  12.447  22.485  0.00  0.00    +0.000 A 
ATOM     30  C   UNL     1      -1.567  13.760  22.031  0.00  0.00    +0.000 A 
ATOM     31  C   UNL     1      -2.718  14.461  22.393  0.00  0.00    +0.000 A 
ATOM     32  C   UNL     1      -3.684  13.854  23.197  0.00  0.00    +0.000 A 
ATOM     33  C   UNL     1      -3.503  12.544  23.644  0.00  0.00    +0.000 A 
ATOM     34  C   UNL     1      -2.356  11.835  23.286  0.00  0.00    +0.000 A 
ENDBRANCH  27  29
ENDBRANCH  24  27
ENDBRANCH   1  24
TORSDOF 5
ENDMDL
MODEL 7
REMARK VINA RESULT:      -8.5      1.341      1.595
REMARK  Name = 
REMARK  5 active torsions:
REMARK  status: ('A' for Active; 'I' for Inactive)
REMARK    1  A    between atoms: S_2  and  N_4
REMARK    2  A    between atoms: S_2  and  C_28
REMARK    3  A    between atoms: N_4  and  C_5
REMARK    4  A    between atoms: C_7  and  C_8
REMARK    5  A    between atoms: C_15  and  C_16
REMARK                            x       y       z     vdW  Elec       q    Type
REMARK                         _______ _______ _______ _____ _____    ______ ____
ROOT
ATOM      1  C   UNL     1       1.411  10.391  19.931  0.00  0.00    +0.000 A 
ATOM      2  C   UNL     1       1.562   9.032  20.228  0.00  0.00    +0.000 A 
ATOM      3  C   UNL     1       1.954   8.119  19.236  0.00  0.00    +0.000 A 
ATOM      4  C   UNL     1       2.185   8.663  17.965  0.00  0.00    +0.000 A 
ATOM      5  N   UNL     1       2.071   9.972  17.637  0.00  0.00    +0.000 NA
ATOM      6  C   UNL     1       1.707  10.804  18.636  0.00  0.00    +0.000 A 
ATOM      7 CL   UNL     1       1.587  12.445  18.141  0.00  0.00    +0.000 Cl
ENDROOT
BRANCH   3   8
ATOM      8  C   UNL     1       2.126   6.677  19.510  0.00  0.00    +0.000 A 
ATOM      9  C   UNL     1       1.504   6.048  20.588  0.00  0.00    +0.000 A 
ATOM     10  C   UNL     1       1.698   4.683  20.826  0.00  0.00    +0.000 A 
ATOM     11  C   UNL     1       2.550   3.911  20.047  0.00  0.00    +0.000 A 
ATOM     12  N   UNL     1       2.683   2.611  20.344  0.00  0.00    +0.000 NA
ATOM     13  N   UNL     1       3.521   1.821  19.632  0.00  0.00    +0.000 NA
ATOM     14  C   UNL     1       4.256   2.368  18.644  0.00  0.00    +0.000 A 
ATOM     15  C   UNL     1       4.190   3.708  18.265  0.00  0.00    +0.000 A 
ATOM     16  C   UNL     1       3.249   4.510  18.981  0.00  0.00    +0.000 A 
ATOM     17  C   UNL     1       2.954   5.875  18.703  0.00  0.00    +0.000 A 
BRANCH  15  18
ATOM     18  C   UNL     1       5.111   4.212  17.203  0.00  0.00    +0.000 A 
ATOM     19  C   UNL     1       6.305   4.889  17.524  0.00  0.00    +0.000 A 
ATOM     20  C   UNL     1       7.163   5.381  16.533  0.00  0.00    +0.000 A 
ATOM     21  C   UNL     1       6.871   5.174  15.189  0.00  0.00    +0.000 A 
ATOM     22  C   UNL     1       5.699   4.518  14.837  0.00  0.00    +0.000 A 
ATOM     23  C   UNL     1       4.816   4.085  15.831  0.00  0.00    +0.000 A 
ENDBRANCH  15  18
ENDBRANCH   3   8
BRANCH   1  24
ATOM     24  N   UNL     1       1.035  11.290  21.007  0.00  0.00    +0.000 N 
ATOM     25  H   UNL     1       1.520  11.011  21.870  0.00  0.00    +0.000 HD
BRANCH  24  27
ATOM     26  O   UNL     1      -1.418  11.301  20.198  0.00  0.00    +0.000 OA
ATOM     27  S   UNL     1      -0.627  11.220  21.405  0.00  0.00    +0.000 S 
ATOM     28  O   UNL     1      -0.770  10.130  22.348  0.00  0.00    +0.000 OA
BRANCH  27  29
ATOM     29  C   UNL     1      -0.846  12.742  22.301  0.00  0.00    +0.000 A 
ATOM     30  C   UNL     1       0.013  13.818  22.043  0.00  0.00    +0.000 A 
ATOM     31  C   UNL     1      -0.209  15.041  22.675  0.00  0.00    +0.000 A 
ATOM     32  C   UNL     1      -1.283  15.190  23.555  0.00  0.00    +0.000 A 
ATOM     33  C   UNL     1      -2.138  14.116  23.807  0.00  0.00    +0.000 A 
ATOM     34  C   UNL     1      -1.924  12.889  23.178  0.00  0.00    +0.000 A 
ENDBRANCH  27  29
ENDBRANCH  24  27
ENDBRANCH   1  24
TORSDOF 5
ENDMDL
MODEL 8
REMARK VINA RESULT:      -8.4      3.653      9.426
REMARK  Name = 
REMARK  5 active torsions:
REMARK  status: ('A' for Active; 'I' for Inactive)
REMARK    1  A    between atoms: S_2  and  N_4
REMARK    2  A    between atoms: S_2  and  C_28
REMARK    3  A    between atoms: N_4  and  C_5
REMARK    4  A    between atoms: C_7  and  C_8
REMARK    5  A    between atoms: C_15  and  C_16
REMARK                            x       y       z     vdW  Elec       q    Type
REMARK                         _______ _______ _______ _____ _____    ______ ____
ROOT
ATOM      1  C   UNL     1       2.507   6.581  20.060  0.00  0.00    +0.000 A 
ATOM      2  C   UNL     1       1.706   7.546  20.681  0.00  0.00    +0.000 A 
ATOM      3  C   UNL     1       1.234   8.657  19.963  0.00  0.00    +0.000 A 
ATOM      4  C   UNL     1       1.607   8.714  18.614  0.00  0.00    +0.000 A 
ATOM      5  N   UNL     1       2.361   7.794  17.967  0.00  0.00    +0.000 NA
ATOM      6  C   UNL     1       2.773   6.741  18.704  0.00  0.00    +0.000 A 
ATOM      7 CL   UNL     1       3.722   5.619  17.812  0.00  0.00    +0.000 Cl
ENDROOT
BRANCH   3   8
ATOM      8  C   UNL     1       0.385   9.696  20.583  0.00  0.00    +0.000 A 
ATOM      9  C   UNL     1       0.483  10.025  21.935  0.00  0.00    +0.000 A 
ATOM     10  C   UNL     1      -0.344  11.007  22.492  0.00  0.00    +0.000 A 
ATOM     11  C   UNL     1      -1.326  11.652  21.752  0.00  0.00    +0.000 A 
ATOM     12  N   UNL     1      -2.079  12.578  22.361  0.00  0.00    +0.000 NA
ATOM     13  N   UNL     1      -3.067  13.217  21.692  0.00  0.00    +0.000 NA
ATOM     14  C   UNL     1      -3.314  12.880  20.411  0.00  0.00    +0.000 A 
ATOM     15  C   UNL     1      -2.590  11.929  19.694  0.00  0.00    +0.000 A 
ATOM     16  C   UNL     1      -1.506  11.316  20.396  0.00  0.00    +0.000 A 
ATOM     17  C   UNL     1      -0.585  10.387  19.834  0.00  0.00    +0.000 A 
BRANCH  15  18
ATOM     18  C   UNL     1      -3.010  11.590  18.302  0.00  0.00    +0.000 A 
ATOM     19  C   UNL     1      -4.359  11.666  17.900  0.00  0.00    +0.000 A 
ATOM     20  C   UNL     1      -4.761  11.330  16.602  0.00  0.00    +0.000 A 
ATOM     21  C   UNL     1      -3.819  10.947  15.654  0.00  0.00    +0.000 A 
ATOM     22  C   UNL     1      -2.483  10.852  16.019  0.00  0.00    +0.000 A 
ATOM     23  C   UNL     1      -2.095  11.128  17.333  0.00  0.00    +0.000 A 
ENDBRANCH  15  18
ENDBRANCH   3   8
BRANCH   1  24
ATOM     24  N   UNL     1       2.937   5.439  20.846  0.00  0.00    +0.000 N 
ATOM     25  H   UNL     1       3.777   5.027  20.419  0.00  0.00    +0.000 HD
BRANCH  24  27
ATOM     26  O   UNL     1       1.834   3.509  22.163  0.00  0.00    +0.000 OA
ATOM     27  S   UNL     1       1.798   4.162  20.873  0.00  0.00    +0.000 S 
ATOM     28  O   UNL     1       0.576   4.701  20.316  0.00  0.00    +0.000 OA
BRANCH  27  29
ATOM     29  C   UNL     1       2.489   3.040  19.677  0.00  0.00    +0.000 A 
ATOM     30  C   UNL     1       1.828   2.847  18.458  0.00  0.00    +0.000 A 
ATOM     31  C   UNL     1       2.410   2.039  17.481  0.00  0.00    +0.000 A 
ATOM     32  C   UNL     1       3.644   1.432  17.719  0.00  0.00    +0.000 A 
ATOM     33  C   UNL     1       4.301   1.629  18.934  0.00  0.00    +0.000 A 
ATOM     34  C   UNL     1       3.727   2.437  19.917  0.00  0.00    +0.000 A 
ENDBRANCH  27  29
ENDBRANCH  24  27
ENDBRANCH   1  24
TORSDOF 5
ENDMDL
MODEL 9
REMARK VINA RESULT:      -8.3      2.659      4.418
REMARK  Name = 
REMARK  5 active torsions:
REMARK  status: ('A' for Active; 'I' for Inactive)
REMARK    1  A    between atoms: S_2  and  N_4
REMARK    2  A    between atoms: S_2  and  C_28
REMARK    3  A    between atoms: N_4  and  C_5
REMARK    4  A    between atoms: C_7  and  C_8
REMARK    5  A    between atoms: C_15  and  C_16
REMARK                            x       y       z     vdW  Elec       q    Type
REMARK                         _______ _______ _______ _____ _____    ______ ____
ROOT
ATOM      1  C   UNL     1      -0.405  10.736  18.852  0.00  0.00    +0.000 A 
ATOM      2  C   UNL     1       0.534   9.902  18.235  0.00  0.00    +0.000 A 
ATOM      3  C   UNL     1       1.387   9.091  19.001  0.00  0.00    +0.000 A 
ATOM      4  C   UNL     1       1.221   9.174  20.390  0.00  0.00    +0.000 A 
ATOM      5  N   UNL     1       0.313   9.950  21.029  0.00  0.00    +0.000 NA
ATOM      6  C   UNL     1      -0.490  10.695  20.240  0.00  0.00    +0.000 A 
ATOM      7 CL   UNL     1      -1.613  11.649  21.124  0.00  0.00    +0.000 Cl
ENDROOT
BRANCH   3   8
ATOM      8  C   UNL     1       2.390   8.196  18.387  0.00  0.00    +0.000 A 
ATOM      9  C   UNL     1       3.174   8.593  17.304  0.00  0.00    +0.000 A 
ATOM     10  C   UNL     1       4.107   7.716  16.740  0.00  0.00    +0.000 A 
ATOM     11  C   UNL     1       4.256   6.409  17.185  0.00  0.00    +0.000 A 
ATOM     12  N   UNL     1       5.169   5.631  16.588  0.00  0.00    +0.000 NA
ATOM     13  N   UNL     1       5.336   4.343  16.967  0.00  0.00    +0.000 NA
ATOM     14  C   UNL     1       4.539   3.835  17.927  0.00  0.00    +0.000 A 
ATOM     15  C   UNL     1       3.559   4.561  18.603  0.00  0.00    +0.000 A 
ATOM     16  C   UNL     1       3.447   5.939  18.238  0.00  0.00    +0.000 A 
ATOM     17  C   UNL     1       2.579   6.883  18.857  0.00  0.00    +0.000 A 
BRANCH  15  18
ATOM     18  C   UNL     1       2.689   3.865  19.596  0.00  0.00    +0.000 A 
ATOM     19  C   UNL     1       1.485   3.242  19.211  0.00  0.00    +0.000 A 
ATOM     20  C   UNL     1       0.655   2.605  20.141  0.00  0.00    +0.000 A 
ATOM     21  C   UNL     1       1.026   2.536  21.479  0.00  0.00    +0.000 A 
ATOM     22  C   UNL     1       2.201   3.146  21.894  0.00  0.00    +0.000 A 
ATOM     23  C   UNL     1       2.994   3.836  20.972  0.00  0.00    +0.000 A 
ENDBRANCH  15  18
ENDBRANCH   3   8
BRANCH   1  24
ATOM     24  N   UNL     1      -1.281  11.526  18.005  0.00  0.00    +0.000 N 
ATOM     25  H   UNL     1      -1.781  12.216  18.580  0.00  0.00    +0.000 HD
BRANCH  24  27
ATOM     26  O   UNL     1      -2.406  10.715  15.825  0.00  0.00    +0.000 OA
ATOM     27  S   UNL     1      -2.520  10.608  17.263  0.00  0.00    +0.000 S 
ATOM     28  O   UNL     1      -2.536   9.329  17.942  0.00  0.00    +0.000 OA
BRANCH  27  29
ATOM     29  C   UNL     1      -3.976  11.503  17.760  0.00  0.00    +0.000 A 
ATOM     30  C   UNL     1      -4.076  11.968  19.077  0.00  0.00    +0.000 A 
ATOM     31  C   UNL     1      -5.173  12.747  19.449  0.00  0.00    +0.000 A 
ATOM     32  C   UNL     1      -6.158  13.062  18.511  0.00  0.00    +0.000 A 
ATOM     33  C   UNL     1      -6.052  12.598  17.199  0.00  0.00    +0.000 A 
ATOM     34  C   UNL     1      -4.958  11.819  16.818  0.00  0.00    +0.000 A 
ENDBRANCH  27  29
ENDBRANCH  24  27
ENDBRANCH   1  24
TORSDOF 5
ENDMDL
