MODEL 1
REMARK VINA RESULT:      -5.9      0.000      0.000
REMARK  Name = 
REMARK  8 active torsions:
REMARK  status: ('A' for Active; 'I' for Inactive)
REMARK    1  A    between atoms: C_1  and  C_2
REMARK    2  A    between atoms: C_2  and  C_3
REMARK    3  A    between atoms: C_3  and  C_4
REMARK    4  A    between atoms: C_4  and  N_5
REMARK    5  A    between atoms: N_5  and  C_6
REMARK    6  A    between atoms: C_6  and  C_7
REMARK    7  A    between atoms: C_7  and  O_8
REMARK    8  A    between atoms: C_7  and  C_9
REMARK                            x       y       z     vdW  Elec       q    Type
REMARK                         _______ _______ _______ _____ _____    ______ ____
ROOT
ATOM      1  C   UNL     1       4.195   3.501  18.519  0.00  0.00    +0.000 C 
ENDROOT
BRANCH   1   2
ATOM      2  C   UNL     1       4.660   4.413  17.394  0.00  0.00    +0.000 A 
ATOM      3  C   UNL     1       4.506   5.802  17.516  0.00  0.00    +0.000 A 
ATOM      4  C   UNL     1       4.884   6.661  16.484  0.00  0.00    +0.000 A 
ATOM      5  C   UNL     1       5.429   6.142  15.309  0.00  0.00    +0.000 A 
ATOM      6  C   UNL     1       5.604   4.766  15.177  0.00  0.00    +0.000 A 
ATOM      7  C   UNL     1       5.222   3.906  16.207  0.00  0.00    +0.000 A 
ENDBRANCH   1   2
BRANCH   1   8
ATOM      8  O   UNL     1       5.320   2.947  19.212  0.00  0.00    +0.000 OA
ATOM      9  H   UNL     1       5.656   2.207  18.685  0.00  0.00    +0.000 HD
ENDBRANCH   1   8
BRANCH   1  10
ATOM     10  C   UNL     1       3.296   2.359  17.990  0.00  0.00    +0.000 C 
BRANCH  10  11
ATOM     11  N   UNL     1       1.918   2.807  17.717  0.00  0.00    +0.000 NA
ATOM     12  H   UNL     1       1.920   3.825  17.630  0.00  0.00    +0.000 HD
BRANCH  11  13
ATOM     13  C   UNL     1       1.024   2.370  18.782  0.00  0.00    +0.000 C 
BRANCH  13  14
ATOM     14  C   UNL     1       0.898   3.450  19.854  0.00  0.00    +0.000 C 
BRANCH  14  16
ATOM     15  C   UNL     1       2.568   2.818  21.632  0.00  0.00    +0.000 C 
ATOM     16  C   UNL     1       1.098   2.851  21.248  0.00  0.00    +0.000 C 
ENDBRANCH  14  16
ENDBRANCH  13  14
ENDBRANCH  11  13
ENDBRANCH  10  11
ENDBRANCH   1  10
TORSDOF 7
ENDMDL
MODEL 2
REMARK VINA RESULT:      -5.9      1.450      2.025
REMARK  Name = 
REMARK  8 active torsions:
REMARK  status: ('A' for Active; 'I' for Inactive)
REMARK    1  A    between atoms: C_1  and  C_2
REMARK    2  A    between atoms: C_2  and  C_3
REMARK    3  A    between atoms: C_3  and  C_4
REMARK    4  A    between atoms: C_4  and  N_5
REMARK    5  A    between atoms: N_5  and  C_6
REMARK    6  A    between atoms: C_6  and  C_7
REMARK    7  A    between atoms: C_7  and  O_8
REMARK    8  A    between atoms: C_7  and  C_9
REMARK                            x       y       z     vdW  Elec       q    Type
REMARK                         _______ _______ _______ _____ _____    ______ ____
ROOT
ATOM      1  C   UNL     1       4.144   2.580  19.352  0.00  0.00    +0.000 C 
ENDROOT
BRANCH   1   2
ATOM      2  C   UNL     1       4.686   3.737  18.528  0.00  0.00    +0.000 A 
ATOM      3  C   UNL     1       4.347   3.843  17.171  0.00  0.00    +0.000 A 
ATOM      4  C   UNL     1       4.862   4.868  16.379  0.00  0.00    +0.000 A 
ATOM      5  C   UNL     1       5.727   5.812  16.934  0.00  0.00    +0.000 A 
ATOM      6  C   UNL     1       6.063   5.731  18.284  0.00  0.00    +0.000 A 
ATOM      7  C   UNL     1       5.550   4.703  19.076  0.00  0.00    +0.000 A 
ENDBRANCH   1   2
BRANCH   1   8
ATOM      8  O   UNL     1       5.219   1.811  19.906  0.00  0.00    +0.000 OA
ATOM      9  H   UNL     1       5.804   1.555  19.177  0.00  0.00    +0.000 HD
ENDBRANCH   1   8
BRANCH   1  10
ATOM     10  C   UNL     1       3.228   1.661  18.510  0.00  0.00    +0.000 C 
BRANCH  10  11
ATOM     11  N   UNL     1       1.796   1.899  18.772  0.00  0.00    +0.000 NA
ATOM     12  H   UNL     1       1.440   2.542  18.064  0.00  0.00    +0.000 HD
BRANCH  11  13
ATOM     13  C   UNL     1       1.611   2.436  20.115  0.00  0.00    +0.000 C 
BRANCH  13  14
ATOM     14  C   UNL     1       0.912   3.793  20.058  0.00  0.00    +0.000 C 
BRANCH  14  16
ATOM     15  C   UNL     1       2.160   5.977  19.933  0.00  0.00    +0.000 C 
ATOM     16  C   UNL     1       1.709   4.842  20.836  0.00  0.00    +0.000 C 
ENDBRANCH  14  16
ENDBRANCH  13  14
ENDBRANCH  11  13
ENDBRANCH  10  11
ENDBRANCH   1  10
TORSDOF 7
ENDMDL
MODEL 3
REMARK VINA RESULT:      -5.7      1.980      2.393
REMARK  Name = 
REMARK  8 active torsions:
REMARK  status: ('A' for Active; 'I' for Inactive)
REMARK    1  A    between atoms: C_1  and  C_2
REMARK    2  A    between atoms: C_2  and  C_3
REMARK    3  A    between atoms: C_3  and  C_4
REMARK    4  A    between atoms: C_4  and  N_5
REMARK    5  A    between atoms: N_5  and  C_6
REMARK    6  A    between atoms: C_6  and  C_7
REMARK    7  A    between atoms: C_7  and  O_8
REMARK    8  A    between atoms: C_7  and  C_9
REMARK                            x       y       z     vdW  Elec       q    Type
REMARK                         _______ _______ _______ _____ _____    ______ ____
ROOT
ATOM      1  C   UNL     1       4.655   4.340  18.914  0.00  0.00    +0.000 C 
ENDROOT
BRANCH   1   2
ATOM      2  C   UNL     1       5.728   5.340  18.510  0.00  0.00    +0.000 A 
ATOM      3  C   UNL     1       6.951   5.361  19.196  0.00  0.00    +0.000 A 
ATOM      4  C   UNL     1       7.938   6.294  18.877  0.00  0.00    +0.000 A 
ATOM      5  C   UNL     1       7.718   7.222  17.858  0.00  0.00    +0.000 A 
ATOM      6  C   UNL     1       6.515   7.204  17.156  0.00  0.00    +0.000 A 
ATOM      7  C   UNL     1       5.526   6.274  17.478  0.00  0.00    +0.000 A 
ENDBRANCH   1   2
BRANCH   1   8
ATOM      8  O   UNL     1       5.243   3.068  19.214  0.00  0.00    +0.000 OA
ATOM      9  H   UNL     1       6.008   3.225  19.786  0.00  0.00    +0.000 HD
ENDBRANCH   1   8
BRANCH   1  10
ATOM     10  C   UNL     1       3.589   4.171  17.806  0.00  0.00    +0.000 C 
BRANCH  10  11
ATOM     11  N   UNL     1       2.232   4.514  18.272  0.00  0.00    +0.000 NA
ATOM     12  H   UNL     1       1.759   5.037  17.532  0.00  0.00    +0.000 HD
BRANCH  11  13
ATOM     13  C   UNL     1       2.303   5.290  19.504  0.00  0.00    +0.000 C 
BRANCH  13  14
ATOM     14  C   UNL     1       1.260   4.802  20.507  0.00  0.00    +0.000 C 
BRANCH  14  16
ATOM     15  C   UNL     1       2.102   2.701  21.612  0.00  0.00    +0.000 C 
ATOM     16  C   UNL     1       1.206   3.273  20.526  0.00  0.00    +0.000 C 
ENDBRANCH  14  16
ENDBRANCH  13  14
ENDBRANCH  11  13
ENDBRANCH  10  11
ENDBRANCH   1  10
TORSDOF 7
ENDMDL
MODEL 4
REMARK VINA RESULT:      -5.7      1.837      2.256
REMARK  Name = 
REMARK  8 active torsions:
REMARK  status: ('A' for Active; 'I' for Inactive)
REMARK    1  A    between atoms: C_1  and  C_2
REMARK    2  A    between atoms: C_2  and  C_3
REMARK    3  A    between atoms: C_3  and  C_4
REMARK    4  A    between atoms: C_4  and  N_5
REMARK    5  A    between atoms: N_5  and  C_6
REMARK    6  A    between atoms: C_6  and  C_7
REMARK    7  A    between atoms: C_7  and  O_8
REMARK    8  A    between atoms: C_7  and  C_9
REMARK                            x       y       z     vdW  Elec       q    Type
REMARK                         _______ _______ _______ _____ _____    ______ ____
ROOT
ATOM      1  C   UNL     1       4.609   4.342  18.904  0.00  0.00    +0.000 C 
ENDROOT
BRANCH   1   2
ATOM      2  C   UNL     1       5.694   5.352  18.566  0.00  0.00    +0.000 A 
ATOM      3  C   UNL     1       5.497   6.256  17.510  0.00  0.00    +0.000 A 
ATOM      4  C   UNL     1       6.489   7.166  17.149  0.00  0.00    +0.000 A 
ATOM      5  C   UNL     1       7.700   7.191  17.843  0.00  0.00    +0.000 A 
ATOM      6  C   UNL     1       7.906   6.312  18.903  0.00  0.00    +0.000 A 
ATOM      7  C   UNL     1       6.915   5.398  19.263  0.00  0.00    +0.000 A 
ENDBRANCH   1   2
BRANCH   1   8
ATOM      8  O   UNL     1       5.193   3.088  19.280  0.00  0.00    +0.000 OA
ATOM      9  H   UNL     1       5.883   3.268  19.935  0.00  0.00    +0.000 HD
ENDBRANCH   1   8
BRANCH   1  10
ATOM     10  C   UNL     1       3.639   4.128  17.718  0.00  0.00    +0.000 C 
BRANCH  10  11
ATOM     11  N   UNL     1       2.953   2.824  17.779  0.00  0.00    +0.000 NA
ATOM     12  H   UNL     1       2.879   2.453  16.830  0.00  0.00    +0.000 HD
BRANCH  11  13
ATOM     13  C   UNL     1       1.639   2.973  18.392  0.00  0.00    +0.000 C 
BRANCH  13  14
ATOM     14  C   UNL     1       1.541   2.134  19.664  0.00  0.00    +0.000 C 
BRANCH  14  16
ATOM     15  C   UNL     1       1.175   4.474  20.520  0.00  0.00    +0.000 C 
ATOM     16  C   UNL     1       1.475   3.034  20.899  0.00  0.00    +0.000 C 
ENDBRANCH  14  16
ENDBRANCH  13  14
ENDBRANCH  11  13
ENDBRANCH  10  11
ENDBRANCH   1  10
TORSDOF 7
ENDMDL
MODEL 5
REMARK VINA RESULT:      -5.7      2.266      5.841
REMARK  Name = 
REMARK  8 active torsions:
REMARK  status: ('A' for Active; 'I' for Inactive)
REMARK    1  A    between atoms: C_1  and  C_2
REMARK    2  A    between atoms: C_2  and  C_3
REMARK    3  A    between atoms: C_3  and  C_4
REMARK    4  A    between atoms: C_4  and  N_5
REMARK    5  A    between atoms: N_5  and  C_6
REMARK    6  A    between atoms: C_6  and  C_7
REMARK    7  A    between atoms: C_7  and  O_8
REMARK    8  A    between atoms: C_7  and  C_9
REMARK                            x       y       z     vdW  Elec       q    Type
REMARK                         _______ _______ _______ _____ _____    ______ ____
ROOT
ATOM      1  C   UNL     1       4.024   3.355  18.004  0.00  0.00    +0.000 C 
ENDROOT
BRANCH   1   2
ATOM      2  C   UNL     1       3.034   3.334  19.159  0.00  0.00    +0.000 A 
ATOM      3  C   UNL     1       3.435   2.840  20.409  0.00  0.00    +0.000 A 
ATOM      4  C   UNL     1       2.538   2.770  21.475  0.00  0.00    +0.000 A 
ATOM      5  C   UNL     1       1.220   3.196  21.308  0.00  0.00    +0.000 A 
ATOM      6  C   UNL     1       0.809   3.703  20.077  0.00  0.00    +0.000 A 
ATOM      7  C   UNL     1       1.705   3.771  19.009  0.00  0.00    +0.000 A 
ENDBRANCH   1   2
BRANCH   1   8
ATOM      8  O   UNL     1       4.340   2.020  17.591  0.00  0.00    +0.000 OA
ATOM      9  H   UNL     1       3.873   1.410  18.181  0.00  0.00    +0.000 HD
ENDBRANCH   1   8
BRANCH   1  10
ATOM     10  C   UNL     1       5.324   4.103  18.383  0.00  0.00    +0.000 C 
BRANCH  10  11
ATOM     11  N   UNL     1       6.384   3.937  17.372  0.00  0.00    +0.000 NA
ATOM     12  H   UNL     1       6.623   2.946  17.313  0.00  0.00    +0.000 HD
BRANCH  11  13
ATOM     13  C   UNL     1       7.549   4.741  17.724  0.00  0.00    +0.000 C 
BRANCH  13  14
ATOM     14  C   UNL     1       7.118   6.042  18.398  0.00  0.00    +0.000 C 
BRANCH  14  16
ATOM     15  C   UNL     1       8.143   8.308  17.998  0.00  0.00    +0.000 C 
ATOM     16  C   UNL     1       7.249   7.219  17.430  0.00  0.00    +0.000 C 
ENDBRANCH  14  16
ENDBRANCH  13  14
ENDBRANCH  11  13
ENDBRANCH  10  11
ENDBRANCH   1  10
TORSDOF 7
ENDMDL
MODEL 6
REMARK VINA RESULT:      -5.7      2.453      5.692
REMARK  Name = 
REMARK  8 active torsions:
REMARK  status: ('A' for Active; 'I' for Inactive)
REMARK    1  A    between atoms: C_1  and  C_2
REMARK    2  A    between atoms: C_2  and  C_3
REMARK    3  A    between atoms: C_3  and  C_4
REMARK    4  A    between atoms: C_4  and  N_5
REMARK    5  A    between atoms: N_5  and  C_6
REMARK    6  A    between atoms: C_6  and  C_7
REMARK    7  A    between atoms: C_7  and  O_8
REMARK    8  A    between atoms: C_7  and  C_9
REMARK                            x       y       z     vdW  Elec       q    Type
REMARK                         _______ _______ _______ _____ _____    ______ ____
ROOT
ATOM      1  C   UNL     1       4.286   4.126  17.868  0.00  0.00    +0.000 C 
ENDROOT
BRANCH   1   2
ATOM      2  C   UNL     1       3.014   3.902  18.670  0.00  0.00    +0.000 A 
ATOM      3  C   UNL     1       2.762   4.685  19.806  0.00  0.00    +0.000 A 
ATOM      4  C   UNL     1       1.625   4.476  20.586  0.00  0.00    +0.000 A 
ATOM      5  C   UNL     1       0.715   3.477  20.239  0.00  0.00    +0.000 A 
ATOM      6  C   UNL     1       0.941   2.700  19.105  0.00  0.00    +0.000 A 
ATOM      7  C   UNL     1       2.080   2.907  18.326  0.00  0.00    +0.000 A 
ENDBRANCH   1   2
BRANCH   1   8
ATOM      8  O   UNL     1       4.700   2.908  17.235  0.00  0.00    +0.000 OA
ATOM      9  H   UNL     1       4.731   3.068  16.281  0.00  0.00    +0.000 HD
ENDBRANCH   1   8
BRANCH   1  10
ATOM     10  C   UNL     1       5.432   4.665  18.756  0.00  0.00    +0.000 C 
BRANCH  10  11
ATOM     11  N   UNL     1       6.759   4.210  18.302  0.00  0.00    +0.000 NA
ATOM     12  H   UNL     1       7.394   4.215  19.102  0.00  0.00    +0.000 HD
BRANCH  11  13
ATOM     13  C   UNL     1       7.250   5.072  17.233  0.00  0.00    +0.000 C 
BRANCH  13  14
ATOM     14  C   UNL     1       6.868   6.527  17.498  0.00  0.00    +0.000 C 
BRANCH  14  16
ATOM     15  C   UNL     1       8.017   8.747  17.812  0.00  0.00    +0.000 C 
ATOM     16  C   UNL     1       8.021   7.271  18.175  0.00  0.00    +0.000 C 
ENDBRANCH  14  16
ENDBRANCH  13  14
ENDBRANCH  11  13
ENDBRANCH  10  11
ENDBRANCH   1  10
TORSDOF 7
ENDMDL
MODEL 7
REMARK VINA RESULT:      -5.7      2.462      5.912
REMARK  Name = 
REMARK  8 active torsions:
REMARK  status: ('A' for Active; 'I' for Inactive)
REMARK    1  A    between atoms: C_1  and  C_2
REMARK    2  A    between atoms: C_2  and  C_3
REMARK    3  A    between atoms: C_3  and  C_4
REMARK    4  A    between atoms: C_4  and  N_5
REMARK    5  A    between atoms: N_5  and  C_6
REMARK    6  A    between atoms: C_6  and  C_7
REMARK    7  A    between atoms: C_7  and  O_8
REMARK    8  A    between atoms: C_7  and  C_9
REMARK                            x       y       z     vdW  Elec       q    Type
REMARK                         _______ _______ _______ _____ _____    ______ ____
ROOT
ATOM      1  C   UNL     1       5.627   4.217  16.894  0.00  0.00    +0.000 C 
ENDROOT
BRANCH   1   2
ATOM      2  C   UNL     1       4.191   4.028  17.357  0.00  0.00    +0.000 A 
ATOM      3  C   UNL     1       3.665   2.733  17.479  0.00  0.00    +0.000 A 
ATOM      4  C   UNL     1       2.339   2.529  17.861  0.00  0.00    +0.000 A 
ATOM      5  C   UNL     1       1.515   3.621  18.132  0.00  0.00    +0.000 A 
ATOM      6  C   UNL     1       2.025   4.913  18.031  0.00  0.00    +0.000 A 
ATOM      7  C   UNL     1       3.350   5.119  17.645  0.00  0.00    +0.000 A 
ENDBRANCH   1   2
BRANCH   1   8
ATOM      8  O   UNL     1       6.536   4.006  17.982  0.00  0.00    +0.000 OA
ATOM      9  H   UNL     1       7.002   3.173  17.819  0.00  0.00    +0.000 HD
ENDBRANCH   1   8
BRANCH   1  10
ATOM     10  C   UNL     1       5.851   5.626  16.296  0.00  0.00    +0.000 C 
BRANCH  10  11
ATOM     11  N   UNL     1       5.869   5.616  14.821  0.00  0.00    +0.000 NA
ATOM     12  H   UNL     1       5.079   6.170  14.485  0.00  0.00    +0.000 HD
BRANCH  11  13
ATOM     13  C   UNL     1       5.803   4.247  14.325  0.00  0.00    +0.000 C 
BRANCH  13  14
ATOM     14  C   UNL     1       6.624   4.100  13.046  0.00  0.00    +0.000 C 
BRANCH  14  16
ATOM     15  C   UNL     1       4.578   3.359  11.777  0.00  0.00    +0.000 C 
ATOM     16  C   UNL     1       6.017   3.030  12.136  0.00  0.00    +0.000 C 
ENDBRANCH  14  16
ENDBRANCH  13  14
ENDBRANCH  11  13
ENDBRANCH  10  11
ENDBRANCH   1  10
TORSDOF 7
ENDMDL
MODEL 8
REMARK VINA RESULT:      -5.6      0.970      1.479
REMARK  Name = 
REMARK  8 active torsions:
REMARK  status: ('A' for Active; 'I' for Inactive)
REMARK    1  A    between atoms: C_1  and  C_2
REMARK    2  A    between atoms: C_2  and  C_3
REMARK    3  A    between atoms: C_3  and  C_4
REMARK    4  A    between atoms: C_4  and  N_5
REMARK    5  A    between atoms: N_5  and  C_6
REMARK    6  A    between atoms: C_6  and  C_7
REMARK    7  A    between atoms: C_7  and  O_8
REMARK    8  A    between atoms: C_7  and  C_9
REMARK                            x       y       z     vdW  Elec       q    Type
REMARK                         _______ _______ _______ _____ _____    ______ ____
ROOT
ATOM      1  C   UNL     1       4.344   3.572  18.390  0.00  0.00    +0.000 C 
ENDROOT
BRANCH   1   2
ATOM      2  C   UNL     1       5.233   4.141  17.295  0.00  0.00    +0.000 A 
ATOM      3  C   UNL     1       5.157   3.618  15.996  0.00  0.00    +0.000 A 
ATOM      4  C   UNL     1       5.988   4.090  14.981  0.00  0.00    +0.000 A 
ATOM      5  C   UNL     1       6.912   5.101  15.249  0.00  0.00    +0.000 A 
ATOM      6  C   UNL     1       6.991   5.643  16.530  0.00  0.00    +0.000 A 
ATOM      7  C   UNL     1       6.161   5.168  17.547  0.00  0.00    +0.000 A 
ENDBRANCH   1   2
BRANCH   1   8
ATOM      8  O   UNL     1       5.136   2.916  19.388  0.00  0.00    +0.000 OA
ATOM      9  H   UNL     1       5.629   2.205  18.953  0.00  0.00    +0.000 HD
ENDBRANCH   1   8
BRANCH   1  10
ATOM     10  C   UNL     1       3.302   2.581  17.820  0.00  0.00    +0.000 C 
BRANCH  10  11
ATOM     11  N   UNL     1       1.980   3.205  17.624  0.00  0.00    +0.000 NA
ATOM     12  H   UNL     1       2.086   4.218  17.697  0.00  0.00    +0.000 HD
BRANCH  11  13
ATOM     13  C   UNL     1       1.033   2.701  18.612  0.00  0.00    +0.000 C 
BRANCH  13  14
ATOM     14  C   UNL     1       0.972   3.633  19.821  0.00  0.00    +0.000 C 
BRANCH  14  16
ATOM     15  C   UNL     1       2.556   2.846  21.615  0.00  0.00    +0.000 C 
ATOM     16  C   UNL     1       1.120   2.838  21.120  0.00  0.00    +0.000 C 
ENDBRANCH  14  16
ENDBRANCH  13  14
ENDBRANCH  11  13
ENDBRANCH  10  11
ENDBRANCH   1  10
TORSDOF 7
ENDMDL
MODEL 9
REMARK VINA RESULT:      -5.6      1.580      4.825
REMARK  Name = 
REMARK  8 active torsions:
REMARK  status: ('A' for Active; 'I' for Inactive)
REMARK    1  A    between atoms: C_1  and  C_2
REMARK    2  A    between atoms: C_2  and  C_3
REMARK    3  A    between atoms: C_3  and  C_4
REMARK    4  A    between atoms: C_4  and  N_5
REMARK    5  A    between atoms: N_5  and  C_6
REMARK    6  A    between atoms: C_6  and  C_7
REMARK    7  A    between atoms: C_7  and  O_8
REMARK    8  A    between atoms: C_7  and  C_9
REMARK                            x       y       z     vdW  Elec       q    Type
REMARK                         _______ _______ _______ _____ _____    ______ ____
ROOT
ATOM      1  C   UNL     1       3.499   1.951  17.908  0.00  0.00    +0.000 C 
ENDROOT
BRANCH   1   2
ATOM      2  C   UNL     1       2.705   2.421  19.116  0.00  0.00    +0.000 A 
ATOM      3  C   UNL     1       3.325   2.486  20.373  0.00  0.00    +0.000 A 
ATOM      4  C   UNL     1       2.613   2.874  21.507  0.00  0.00    +0.000 A 
ATOM      5  C   UNL     1       1.262   3.208  21.402  0.00  0.00    +0.000 A 
ATOM      6  C   UNL     1       0.634   3.165  20.160  0.00  0.00    +0.000 A 
ATOM      7  C   UNL     1       1.346   2.773  19.025  0.00  0.00    +0.000 A 
ENDBRANCH   1   2
BRANCH   1   8
ATOM      8  O   UNL     1       4.276   0.793  18.238  0.00  0.00    +0.000 OA
ATOM      9  H   UNL     1       5.068   0.801  17.681  0.00  0.00    +0.000 HD
ENDBRANCH   1   8
BRANCH   1  10
ATOM     10  C   UNL     1       4.428   3.063  17.368  0.00  0.00    +0.000 C 
BRANCH  10  11
ATOM     11  N   UNL     1       3.689   4.285  16.998  0.00  0.00    +0.000 NA
ATOM     12  H   UNL     1       3.548   4.283  15.987  0.00  0.00    +0.000 HD
BRANCH  11  13
ATOM     13  C   UNL     1       4.423   5.469  17.427  0.00  0.00    +0.000 C 
BRANCH  13  14
ATOM     14  C   UNL     1       4.124   5.785  18.891  0.00  0.00    +0.000 C 
BRANCH  14  16
ATOM     15  C   UNL     1       2.440   7.557  18.280  0.00  0.00    +0.000 C 
ATOM     16  C   UNL     1       2.682   6.271  19.053  0.00  0.00    +0.000 C 
ENDBRANCH  14  16
ENDBRANCH  13  14
ENDBRANCH  11  13
ENDBRANCH  10  11
ENDBRANCH   1  10
TORSDOF 7
ENDMDL
