MODEL 1
REMARK VINA RESULT:      -5.4      0.000      0.000
REMARK  Name = 
REMARK  9 active torsions:
REMARK  status: ('A' for Active; 'I' for Inactive)
REMARK    1  A    between atoms: C_1  and  C_2
REMARK    2  A    between atoms: C_2  and  C_3
REMARK    3  A    between atoms: C_3  and  C_4
REMARK    4  A    between atoms: C_4  and  C_6
REMARK    5  A    between atoms: C_7  and  C_8
REMARK    6  A    between atoms: C_11  and  C_12
REMARK    7  A    between atoms: C_16  and  C_18
REMARK    8  A    between atoms: C_18  and  C_19
REMARK    9  A    between atoms: C_19  and  C_20
REMARK                            x       y       z     vdW  Elec       q    Type
REMARK                         _______ _______ _______ _____ _____    ______ ____
ROOT
ATOM      1  C   UNL     1      -0.893  11.082  20.873  0.00  0.00    +0.000 C 
ATOM      2  C   UNL     1      -1.929  11.684  20.217  0.00  0.00    +0.000 C 
ATOM      3  N   UNL     1      -2.724  12.740  20.776  0.00  0.00    +0.000 N 
ATOM      4  C   UNL     1      -3.979  13.209  20.330  0.00  0.00    +0.000 C 
ATOM      5  O   UNL     1      -4.428  14.328  20.599  0.00  0.00    +0.000 OA
ATOM      6  N   UNL     1      -2.182  13.418  21.886  0.00  0.00    +0.000 N 
ATOM      7  C   UNL     1      -2.438  14.669  22.377  0.00  0.00    +0.000 A 
ATOM      8  N   UNL     1      -1.746  14.869  23.479  0.00  0.00    +0.000 NA
ATOM      9  N   UNL     1      -0.997  13.741  23.710  0.00  0.00    +0.000 NA
ATOM     10  C   UNL     1      -1.258  12.897  22.742  0.00  0.00    +0.000 A 
ATOM     11  S   UNL     1      -0.550  11.359  22.558  0.00  0.00    +0.000 S 
ENDROOT
BRANCH   2  12
ATOM     12  C   UNL     1      -2.205  11.234  18.832  0.00  0.00    +0.000 A 
ATOM     13  C   UNL     1      -2.783   9.973  18.599  0.00  0.00    +0.000 A 
ATOM     14  C   UNL     1      -3.085   9.561  17.299  0.00  0.00    +0.000 A 
ATOM     15  C   UNL     1      -2.744  10.365  16.208  0.00  0.00    +0.000 A 
ATOM     16  C   UNL     1      -3.049   9.925  14.806  0.00  0.00    +0.000 C 
ATOM     17  C   UNL     1      -2.106  11.592  16.433  0.00  0.00    +0.000 A 
ATOM     18  C   UNL     1      -1.854  12.034  17.736  0.00  0.00    +0.000 A 
ENDBRANCH   2  12
BRANCH   1  19
ATOM     19  C   UNL     1       0.048  10.052  20.222  0.00  0.00    +0.000 C 
ATOM     20  O   UNL     1       0.008   8.862  20.526  0.00  0.00    +0.000 OA
BRANCH  19  21
ATOM     21  C   UNL     1       0.996  10.519  19.116  0.00  0.00    +0.000 C 
BRANCH  21  23
ATOM     22  C   UNL     1       2.293   8.769  17.872  0.00  0.00    +0.000 C 
ATOM     23  C   UNL     1       1.011   9.586  17.903  0.00  0.00    +0.000 C 
ENDBRANCH  21  23
ENDBRANCH  19  21
ENDBRANCH   1  19
BRANCH   4  24
ATOM     24  C   UNL     1      -4.885  12.254  19.572  0.00  0.00    +0.000 C 
BRANCH  24  25
ATOM     25  C   UNL     1      -5.875  12.910  18.609  0.00  0.00    +0.000 C 
ATOM     26  C   UNL     1      -5.728  12.294  17.223  0.00  0.00    +0.000 C 
ENDBRANCH  24  25
ENDBRANCH   4  24
TORSDOF 6
ENDMDL
MODEL 2
REMARK VINA RESULT:      -5.3      6.885     10.073
REMARK  Name = 
REMARK  9 active torsions:
REMARK  status: ('A' for Active; 'I' for Inactive)
REMARK    1  A    between atoms: C_1  and  C_2
REMARK    2  A    between atoms: C_2  and  C_3
REMARK    3  A    between atoms: C_3  and  C_4
REMARK    4  A    between atoms: C_4  and  C_6
REMARK    5  A    between atoms: C_7  and  C_8
REMARK    6  A    between atoms: C_11  and  C_12
REMARK    7  A    between atoms: C_16  and  C_18
REMARK    8  A    between atoms: C_18  and  C_19
REMARK    9  A    between atoms: C_19  and  C_20
REMARK                            x       y       z     vdW  Elec       q    Type
REMARK                         _______ _______ _______ _____ _____    ______ ____
ROOT
ATOM      1  C   UNL     1       3.933   3.934  16.904  0.00  0.00    +0.000 C 
ATOM      2  C   UNL     1       3.905   4.966  17.799  0.00  0.00    +0.000 C 
ATOM      3  N   UNL     1       2.860   5.162  18.762  0.00  0.00    +0.000 N 
ATOM      4  C   UNL     1       2.571   6.329  19.503  0.00  0.00    +0.000 C 
ATOM      5  O   UNL     1       1.927   6.330  20.558  0.00  0.00    +0.000 OA
ATOM      6  N   UNL     1       2.034   4.052  19.032  0.00  0.00    +0.000 N 
ATOM      7  C   UNL     1       1.266   3.759  20.126  0.00  0.00    +0.000 A 
ATOM      8  N   UNL     1       0.603   2.640  19.921  0.00  0.00    +0.000 NA
ATOM      9  N   UNL     1       0.957   2.167  18.680  0.00  0.00    +0.000 NA
ATOM     10  C   UNL     1       1.821   3.013  18.176  0.00  0.00    +0.000 A 
ATOM     11  S   UNL     1       2.588   2.854  16.663  0.00  0.00    +0.000 S 
ENDROOT
BRANCH   2  12
ATOM     12  C   UNL     1       5.053   5.905  17.785  0.00  0.00    +0.000 A 
ATOM     13  C   UNL     1       5.070   6.988  16.888  0.00  0.00    +0.000 A 
ATOM     14  C   UNL     1       6.128   7.900  16.899  0.00  0.00    +0.000 A 
ATOM     15  C   UNL     1       7.220   7.702  17.748  0.00  0.00    +0.000 A 
ATOM     16  C   UNL     1       8.370   8.666  17.757  0.00  0.00    +0.000 C 
ATOM     17  C   UNL     1       7.237   6.586  18.595  0.00  0.00    +0.000 A 
ATOM     18  C   UNL     1       6.153   5.701  18.628  0.00  0.00    +0.000 A 
ENDBRANCH   2  12
BRANCH   1  19
ATOM     19  C   UNL     1       5.121   3.644  15.971  0.00  0.00    +0.000 C 
ATOM     20  O   UNL     1       6.018   2.869  16.293  0.00  0.00    +0.000 OA
BRANCH  19  21
ATOM     21  C   UNL     1       5.135   4.280  14.579  0.00  0.00    +0.000 C 
BRANCH  21  23
ATOM     22  C   UNL     1       6.219   3.474  12.465  0.00  0.00    +0.000 C 
ATOM     23  C   UNL     1       6.460   4.080  13.839  0.00  0.00    +0.000 C 
ENDBRANCH  21  23
ENDBRANCH  19  21
ENDBRANCH   1  19
BRANCH   4  24
ATOM     24  C   UNL     1       2.970   7.676  18.924  0.00  0.00    +0.000 C 
BRANCH  24  25
ATOM     25  C   UNL     1       2.022   8.247  17.871  0.00  0.00    +0.000 C 
ATOM     26  C   UNL     1       1.819   9.737  18.116  0.00  0.00    +0.000 C 
ENDBRANCH  24  25
ENDBRANCH   4  24
TORSDOF 6
ENDMDL
MODEL 3
REMARK VINA RESULT:      -5.3      2.854      7.141
REMARK  Name = 
REMARK  9 active torsions:
REMARK  status: ('A' for Active; 'I' for Inactive)
REMARK    1  A    between atoms: C_1  and  C_2
REMARK    2  A    between atoms: C_2  and  C_3
REMARK    3  A    between atoms: C_3  and  C_4
REMARK    4  A    between atoms: C_4  and  C_6
REMARK    5  A    between atoms: C_7  and  C_8
REMARK    6  A    between atoms: C_11  and  C_12
REMARK    7  A    between atoms: C_16  and  C_18
REMARK    8  A    between atoms: C_18  and  C_19
REMARK    9  A    between atoms: C_19  and  C_20
REMARK                            x       y       z     vdW  Elec       q    Type
REMARK                         _______ _______ _______ _____ _____    ______ ____
ROOT
ATOM      1  C   UNL     1      -5.153  12.457  19.893  0.00  0.00    +0.000 C 
ATOM      2  C   UNL     1      -3.859  12.529  20.324  0.00  0.00    +0.000 C 
ATOM      3  N   UNL     1      -2.746  11.973  19.611  0.00  0.00    +0.000 N 
ATOM      4  C   UNL     1      -1.444  11.719  20.097  0.00  0.00    +0.000 C 
ATOM      5  O   UNL     1      -0.452  11.601  19.369  0.00  0.00    +0.000 OA
ATOM      6  N   UNL     1      -2.957  11.667  18.252  0.00  0.00    +0.000 N 
ATOM      7  C   UNL     1      -2.067  11.537  17.220  0.00  0.00    +0.000 A 
ATOM      8  N   UNL     1      -2.702  11.176  16.124  0.00  0.00    +0.000 NA
ATOM      9  N   UNL     1      -4.039  11.092  16.426  0.00  0.00    +0.000 NA
ATOM     10  C   UNL     1      -4.171  11.403  17.692  0.00  0.00    +0.000 A 
ATOM     11  S   UNL     1      -5.647  11.480  18.539  0.00  0.00    +0.000 S 
ENDROOT
BRANCH   2  12
ATOM     12  C   UNL     1      -3.606  13.268  21.585  0.00  0.00    +0.000 A 
ATOM     13  C   UNL     1      -3.779  12.629  22.826  0.00  0.00    +0.000 A 
ATOM     14  C   UNL     1      -3.502  13.306  24.016  0.00  0.00    +0.000 A 
ATOM     15  C   UNL     1      -3.124  14.651  23.990  0.00  0.00    +0.000 A 
ATOM     16  C   UNL     1      -2.840  15.393  25.264  0.00  0.00    +0.000 C 
ATOM     17  C   UNL     1      -3.017  15.310  22.758  0.00  0.00    +0.000 A 
ATOM     18  C   UNL     1      -3.238  14.620  21.561  0.00  0.00    +0.000 A 
ENDBRANCH   2  12
BRANCH   1  19
ATOM     19  C   UNL     1      -6.326  13.176  20.584  0.00  0.00    +0.000 C 
ATOM     20  O   UNL     1      -6.619  14.338  20.311  0.00  0.00    +0.000 OA
BRANCH  19  21
ATOM     21  C   UNL     1      -7.189  12.390  21.573  0.00  0.00    +0.000 C 
BRANCH  21  23
ATOM     22  C   UNL     1      -7.257  13.185  23.952  0.00  0.00    +0.000 C 
ATOM     23  C   UNL     1      -7.912  13.285  22.583  0.00  0.00    +0.000 C 
ENDBRANCH  21  23
ENDBRANCH  19  21
ENDBRANCH   1  19
BRANCH   4  24
ATOM     24  C   UNL     1      -1.259  11.462  21.582  0.00  0.00    +0.000 C 
BRANCH  24  25
ATOM     25  C   UNL     1      -0.003  10.679  21.963  0.00  0.00    +0.000 C 
ATOM     26  C   UNL     1      -0.389   9.456  22.786  0.00  0.00    +0.000 C 
ENDBRANCH  24  25
ENDBRANCH   4  24
TORSDOF 6
ENDMDL
MODEL 4
REMARK VINA RESULT:      -5.3      2.483      4.726
REMARK  Name = 
REMARK  9 active torsions:
REMARK  status: ('A' for Active; 'I' for Inactive)
REMARK    1  A    between atoms: C_1  and  C_2
REMARK    2  A    between atoms: C_2  and  C_3
REMARK    3  A    between atoms: C_3  and  C_4
REMARK    4  A    between atoms: C_4  and  C_6
REMARK    5  A    between atoms: C_7  and  C_8
REMARK    6  A    between atoms: C_11  and  C_12
REMARK    7  A    between atoms: C_16  and  C_18
REMARK    8  A    between atoms: C_18  and  C_19
REMARK    9  A    between atoms: C_19  and  C_20
REMARK                            x       y       z     vdW  Elec       q    Type
REMARK                         _______ _______ _______ _____ _____    ______ ____
ROOT
ATOM      1  C   UNL     1      -4.085  11.690  19.098  0.00  0.00    +0.000 C 
ATOM      2  C   UNL     1      -3.183  12.328  19.901  0.00  0.00    +0.000 C 
ATOM      3  N   UNL     1      -3.534  13.018  21.109  0.00  0.00    +0.000 N 
ATOM      4  C   UNL     1      -2.758  13.951  21.831  0.00  0.00    +0.000 C 
ATOM      5  O   UNL     1      -2.941  14.219  23.024  0.00  0.00    +0.000 OA
ATOM      6  N   UNL     1      -4.791  12.714  21.667  0.00  0.00    +0.000 N 
ATOM      7  C   UNL     1      -5.251  12.842  22.950  0.00  0.00    +0.000 A 
ATOM      8  N   UNL     1      -6.520  12.494  23.008  0.00  0.00    +0.000 NA
ATOM      9  N   UNL     1      -6.902  12.102  21.748  0.00  0.00    +0.000 NA
ATOM     10  C   UNL     1      -5.855  12.225  20.970  0.00  0.00    +0.000 A 
ATOM     11  S   UNL     1      -5.808  11.829  19.313  0.00  0.00    +0.000 S 
ENDROOT
BRANCH   2  12
ATOM     12  C   UNL     1      -1.755  12.255  19.506  0.00  0.00    +0.000 A 
ATOM     13  C   UNL     1      -1.254  13.105  18.504  0.00  0.00    +0.000 A 
ATOM     14  C   UNL     1       0.099  13.071  18.157  0.00  0.00    +0.000 A 
ATOM     15  C   UNL     1       0.954  12.136  18.747  0.00  0.00    +0.000 A 
ATOM     16  C   UNL     1       2.405  12.079  18.369  0.00  0.00    +0.000 C 
ATOM     17  C   UNL     1       0.442  11.241  19.696  0.00  0.00    +0.000 A 
ATOM     18  C   UNL     1      -0.899  11.310  20.088  0.00  0.00    +0.000 A 
ENDBRANCH   2  12
BRANCH   1  19
ATOM     19  C   UNL     1      -3.692  10.831  17.884  0.00  0.00    +0.000 C 
ATOM     20  O   UNL     1      -3.263   9.687  18.017  0.00  0.00    +0.000 OA
BRANCH  19  21
ATOM     21  C   UNL     1      -3.918  11.395  16.480  0.00  0.00    +0.000 C 
BRANCH  21  23
ATOM     22  C   UNL     1      -3.435  10.097  14.388  0.00  0.00    +0.000 C 
ATOM     23  C   UNL     1      -2.839  10.972  15.480  0.00  0.00    +0.000 C 
ENDBRANCH  21  23
ENDBRANCH  19  21
ENDBRANCH   1  19
BRANCH   4  24
ATOM     24  C   UNL     1      -1.711  14.760  21.085  0.00  0.00    +0.000 C 
BRANCH  24  25
ATOM     25  C   UNL     1      -0.542  15.264  21.930  0.00  0.00    +0.000 C 
ATOM     26  C   UNL     1       0.673  14.371  21.711  0.00  0.00    +0.000 C 
ENDBRANCH  24  25
ENDBRANCH   4  24
TORSDOF 6
ENDMDL
MODEL 5
REMARK VINA RESULT:      -5.2      7.254     10.365
REMARK  Name = 
REMARK  9 active torsions:
REMARK  status: ('A' for Active; 'I' for Inactive)
REMARK    1  A    between atoms: C_1  and  C_2
REMARK    2  A    between atoms: C_2  and  C_3
REMARK    3  A    between atoms: C_3  and  C_4
REMARK    4  A    between atoms: C_4  and  C_6
REMARK    5  A    between atoms: C_7  and  C_8
REMARK    6  A    between atoms: C_11  and  C_12
REMARK    7  A    between atoms: C_16  and  C_18
REMARK    8  A    between atoms: C_18  and  C_19
REMARK    9  A    between atoms: C_19  and  C_20
REMARK                            x       y       z     vdW  Elec       q    Type
REMARK                         _______ _______ _______ _____ _____    ______ ____
ROOT
ATOM      1  C   UNL     1       4.234   3.844  16.825  0.00  0.00    +0.000 C 
ATOM      2  C   UNL     1       4.194   4.784  17.815  0.00  0.00    +0.000 C 
ATOM      3  N   UNL     1       3.202   4.814  18.850  0.00  0.00    +0.000 N 
ATOM      4  C   UNL     1       2.884   5.883  19.716  0.00  0.00    +0.000 C 
ATOM      5  O   UNL     1       2.309   5.740  20.801  0.00  0.00    +0.000 OA
ATOM      6  N   UNL     1       2.470   3.627  19.058  0.00  0.00    +0.000 N 
ATOM      7  C   UNL     1       1.794   3.179  20.160  0.00  0.00    +0.000 A 
ATOM      8  N   UNL     1       1.196   2.039  19.886  0.00  0.00    +0.000 NA
ATOM      9  N   UNL     1       1.501   1.710  18.587  0.00  0.00    +0.000 NA
ATOM     10  C   UNL     1       2.273   2.659  18.118  0.00  0.00    +0.000 A 
ATOM     11  S   UNL     1       2.952   2.696  16.556  0.00  0.00    +0.000 S 
ENDROOT
BRANCH   2  12
ATOM     12  C   UNL     1       5.274   5.800  17.827  0.00  0.00    +0.000 A 
ATOM     13  C   UNL     1       6.404   5.623  18.646  0.00  0.00    +0.000 A 
ATOM     14  C   UNL     1       7.444   6.555  18.629  0.00  0.00    +0.000 A 
ATOM     15  C   UNL     1       7.339   7.715  17.856  0.00  0.00    +0.000 A 
ATOM     16  C   UNL     1       8.443   8.731  17.844  0.00  0.00    +0.000 C 
ATOM     17  C   UNL     1       6.184   7.927  17.091  0.00  0.00    +0.000 A 
ATOM     18  C   UNL     1       5.165   6.969  17.061  0.00  0.00    +0.000 A 
ENDBRANCH   2  12
BRANCH   1  19
ATOM     19  C   UNL     1       5.378   3.728  15.801  0.00  0.00    +0.000 C 
ATOM     20  O   UNL     1       6.409   3.109  16.056  0.00  0.00    +0.000 OA
BRANCH  19  21
ATOM     21  C   UNL     1       5.183   4.334  14.410  0.00  0.00    +0.000 C 
BRANCH  21  23
ATOM     22  C   UNL     1       5.632   3.239  12.198  0.00  0.00    +0.000 C 
ATOM     23  C   UNL     1       6.261   3.906  13.411  0.00  0.00    +0.000 C 
ENDBRANCH  21  23
ENDBRANCH  19  21
ENDBRANCH   1  19
BRANCH   4  24
ATOM     24  C   UNL     1       3.155   7.303  19.249  0.00  0.00    +0.000 C 
BRANCH  24  25
ATOM     25  C   UNL     1       1.926   8.206  19.138  0.00  0.00    +0.000 C 
ATOM     26  C   UNL     1       1.859   8.813  17.742  0.00  0.00    +0.000 C 
ENDBRANCH  24  25
ENDBRANCH   4  24
TORSDOF 6
ENDMDL
MODEL 6
REMARK VINA RESULT:      -5.2      2.371      4.477
REMARK  Name = 
REMARK  9 active torsions:
REMARK  status: ('A' for Active; 'I' for Inactive)
REMARK    1  A    between atoms: C_1  and  C_2
REMARK    2  A    between atoms: C_2  and  C_3
REMARK    3  A    between atoms: C_3  and  C_4
REMARK    4  A    between atoms: C_4  and  C_6
REMARK    5  A    between atoms: C_7  and  C_8
REMARK    6  A    between atoms: C_11  and  C_12
REMARK    7  A    between atoms: C_16  and  C_18
REMARK    8  A    between atoms: C_18  and  C_19
REMARK    9  A    between atoms: C_19  and  C_20
REMARK                            x       y       z     vdW  Elec       q    Type
REMARK                         _______ _______ _______ _____ _____    ______ ____
ROOT
ATOM      1  C   UNL     1      -2.594  12.715  21.924  0.00  0.00    +0.000 C 
ATOM      2  C   UNL     1      -2.594  12.460  20.582  0.00  0.00    +0.000 C 
ATOM      3  N   UNL     1      -3.784  12.344  19.789  0.00  0.00    +0.000 N 
ATOM      4  C   UNL     1      -3.914  11.789  18.497  0.00  0.00    +0.000 C 
ATOM      5  O   UNL     1      -4.848  12.048  17.730  0.00  0.00    +0.000 OA
ATOM      6  N   UNL     1      -4.966  12.871  20.345  0.00  0.00    +0.000 N 
ATOM      7  C   UNL     1      -6.119  13.298  19.744  0.00  0.00    +0.000 A 
ATOM      8  N   UNL     1      -6.996  13.655  20.660  0.00  0.00    +0.000 NA
ATOM      9  N   UNL     1      -6.406  13.488  21.889  0.00  0.00    +0.000 NA
ATOM     10  C   UNL     1      -5.194  13.037  21.679  0.00  0.00    +0.000 A 
ATOM     11  S   UNL     1      -4.043  12.702  22.890  0.00  0.00    +0.000 S 
ENDROOT
BRANCH   2  12
ATOM     12  C   UNL     1      -1.274  12.342  19.916  0.00  0.00    +0.000 A 
ATOM     13  C   UNL     1      -0.807  13.374  19.082  0.00  0.00    +0.000 A 
ATOM     14  C   UNL     1       0.454  13.288  18.487  0.00  0.00    +0.000 A 
ATOM     15  C   UNL     1       1.233  12.139  18.650  0.00  0.00    +0.000 A 
ATOM     16  C   UNL     1       2.582  12.029  18.001  0.00  0.00    +0.000 C 
ATOM     17  C   UNL     1       0.741  11.081  19.425  0.00  0.00    +0.000 A 
ATOM     18  C   UNL     1      -0.496  11.186  20.070  0.00  0.00    +0.000 A 
ENDBRANCH   2  12
BRANCH   1  19
ATOM     19  C   UNL     1      -1.319  12.981  22.744  0.00  0.00    +0.000 C 
ATOM     20  O   UNL     1      -0.566  12.069  23.076  0.00  0.00    +0.000 OA
BRANCH  19  21
ATOM     21  C   UNL     1      -0.950  14.427  23.080  0.00  0.00    +0.000 C 
BRANCH  21  23
ATOM     22  C   UNL     1       1.217  14.746  21.856  0.00  0.00    +0.000 C 
ATOM     23  C   UNL     1      -0.248  15.152  21.928  0.00  0.00    +0.000 C 
ENDBRANCH  21  23
ENDBRANCH  19  21
ENDBRANCH   1  19
BRANCH   4  24
ATOM     24  C   UNL     1      -2.920  10.728  18.057  0.00  0.00    +0.000 C 
BRANCH  24  25
ATOM     25  C   UNL     1      -2.326  10.920  16.662  0.00  0.00    +0.000 C 
ATOM     26  C   UNL     1      -2.876   9.858  15.718  0.00  0.00    +0.000 C 
ENDBRANCH  24  25
ENDBRANCH   4  24
TORSDOF 6
ENDMDL
MODEL 7
REMARK VINA RESULT:      -5.2      2.762      7.034
REMARK  Name = 
REMARK  9 active torsions:
REMARK  status: ('A' for Active; 'I' for Inactive)
REMARK    1  A    between atoms: C_1  and  C_2
REMARK    2  A    between atoms: C_2  and  C_3
REMARK    3  A    between atoms: C_3  and  C_4
REMARK    4  A    between atoms: C_4  and  C_6
REMARK    5  A    between atoms: C_7  and  C_8
REMARK    6  A    between atoms: C_11  and  C_12
REMARK    7  A    between atoms: C_16  and  C_18
REMARK    8  A    between atoms: C_18  and  C_19
REMARK    9  A    between atoms: C_19  and  C_20
REMARK                            x       y       z     vdW  Elec       q    Type
REMARK                         _______ _______ _______ _____ _____    ______ ____
ROOT
ATOM      1  C   UNL     1      -4.660  12.585  19.707  0.00  0.00    +0.000 C 
ATOM      2  C   UNL     1      -3.325  12.443  19.957  0.00  0.00    +0.000 C 
ATOM      3  N   UNL     1      -2.425  11.714  19.111  0.00  0.00    +0.000 N 
ATOM      4  C   UNL     1      -1.128  11.249  19.420  0.00  0.00    +0.000 C 
ATOM      5  O   UNL     1      -0.277  10.972  18.568  0.00  0.00    +0.000 OA
ATOM      6  N   UNL     1      -2.867  11.450  17.799  0.00  0.00    +0.000 N 
ATOM      7  C   UNL     1      -2.160  11.179  16.659  0.00  0.00    +0.000 A 
ATOM      8  N   UNL     1      -2.989  10.931  15.666  0.00  0.00    +0.000 NA
ATOM      9  N   UNL     1      -4.268  11.065  16.148  0.00  0.00    +0.000 NA
ATOM     10  C   UNL     1      -4.173  11.391  17.414  0.00  0.00    +0.000 A 
ATOM     11  S   UNL     1      -5.487  11.706  18.452  0.00  0.00    +0.000 S 
ENDROOT
BRANCH   2  12
ATOM     12  C   UNL     1      -2.785  13.127  21.157  0.00  0.00    +0.000 A 
ATOM     13  C   UNL     1      -2.069  14.330  21.024  0.00  0.00    +0.000 A 
ATOM     14  C   UNL     1      -1.595  15.001  22.154  0.00  0.00    +0.000 A 
ATOM     15  C   UNL     1      -1.761  14.444  23.425  0.00  0.00    +0.000 A 
ATOM     16  C   UNL     1      -1.241  15.148  24.645  0.00  0.00    +0.000 C 
ATOM     17  C   UNL     1      -2.415  13.212  23.555  0.00  0.00    +0.000 A 
ATOM     18  C   UNL     1      -2.941  12.564  22.432  0.00  0.00    +0.000 A 
ENDBRANCH   2  12
BRANCH   1  19
ATOM     19  C   UNL     1      -5.595  13.484  20.535  0.00  0.00    +0.000 C 
ATOM     20  O   UNL     1      -5.676  14.693  20.328  0.00  0.00    +0.000 OA
BRANCH  19  21
ATOM     21  C   UNL     1      -6.498  12.835  21.586  0.00  0.00    +0.000 C 
BRANCH  21  23
ATOM     22  C   UNL     1      -7.122  12.706  24.013  0.00  0.00    +0.000 C 
ATOM     23  C   UNL     1      -6.464  13.556  22.936  0.00  0.00    +0.000 C 
ENDBRANCH  21  23
ENDBRANCH  19  21
ENDBRANCH   1  19
BRANCH   4  24
ATOM     24  C   UNL     1      -0.786  10.961  20.872  0.00  0.00    +0.000 C 
BRANCH  24  25
ATOM     25  C   UNL     1       0.337   9.947  21.095  0.00  0.00    +0.000 C 
ATOM     26  C   UNL     1      -0.246   8.645  21.630  0.00  0.00    +0.000 C 
ENDBRANCH  24  25
ENDBRANCH   4  24
TORSDOF 6
ENDMDL
MODEL 8
REMARK VINA RESULT:      -5.2      2.613      4.693
REMARK  Name = 
REMARK  9 active torsions:
REMARK  status: ('A' for Active; 'I' for Inactive)
REMARK    1  A    between atoms: C_1  and  C_2
REMARK    2  A    between atoms: C_2  and  C_3
REMARK    3  A    between atoms: C_3  and  C_4
REMARK    4  A    between atoms: C_4  and  C_6
REMARK    5  A    between atoms: C_7  and  C_8
REMARK    6  A    between atoms: C_11  and  C_12
REMARK    7  A    between atoms: C_16  and  C_18
REMARK    8  A    between atoms: C_18  and  C_19
REMARK    9  A    between atoms: C_19  and  C_20
REMARK                            x       y       z     vdW  Elec       q    Type
REMARK                         _______ _______ _______ _____ _____    ______ ____
ROOT
ATOM      1  C   UNL     1      -4.357  12.148  19.637  0.00  0.00    +0.000 C 
ATOM      2  C   UNL     1      -3.326  12.537  20.444  0.00  0.00    +0.000 C 
ATOM      3  N   UNL     1      -3.499  13.040  21.776  0.00  0.00    +0.000 N 
ATOM      4  C   UNL     1      -2.564  13.746  22.564  0.00  0.00    +0.000 C 
ATOM      5  O   UNL     1      -2.623  13.820  23.797  0.00  0.00    +0.000 OA
ATOM      6  N   UNL     1      -4.738  12.778  22.394  0.00  0.00    +0.000 N 
ATOM      7  C   UNL     1      -5.080  12.730  23.718  0.00  0.00    +0.000 A 
ATOM      8  N   UNL     1      -6.374  12.513  23.839  0.00  0.00    +0.000 NA
ATOM      9  N   UNL     1      -6.895  12.389  22.574  0.00  0.00    +0.000 NA
ATOM     10  C   UNL     1      -5.903  12.533  21.730  0.00  0.00    +0.000 A 
ATOM     11  S   UNL     1      -6.029  12.428  20.034  0.00  0.00    +0.000 S 
ENDROOT
BRANCH   2  12
ATOM     12  C   UNL     1      -1.952  12.383  19.908  0.00  0.00    +0.000 A 
ATOM     13  C   UNL     1      -1.503  13.212  18.864  0.00  0.00    +0.000 A 
ATOM     14  C   UNL     1      -0.196  13.101  18.384  0.00  0.00    +0.000 A 
ATOM     15  C   UNL     1       0.656  12.111  18.882  0.00  0.00    +0.000 A 
ATOM     16  C   UNL     1       2.057  11.972  18.362  0.00  0.00    +0.000 C 
ATOM     17  C   UNL     1       0.189  11.240  19.875  0.00  0.00    +0.000 A 
ATOM     18  C   UNL     1      -1.100  11.385  20.399  0.00  0.00    +0.000 A 
ENDBRANCH   2  12
BRANCH   1  19
ATOM     19  C   UNL     1      -4.163  11.476  18.266  0.00  0.00    +0.000 C 
ATOM     20  O   UNL     1      -4.337  12.091  17.217  0.00  0.00    +0.000 OA
BRANCH  19  21
ATOM     21  C   UNL     1      -3.664  10.030  18.220  0.00  0.00    +0.000 C 
BRANCH  21  23
ATOM     22  C   UNL     1      -1.485   9.827  16.994  0.00  0.00    +0.000 C 
ATOM     23  C   UNL     1      -2.994   9.666  16.893  0.00  0.00    +0.000 C 
ENDBRANCH  21  23
ENDBRANCH  19  21
ENDBRANCH   1  19
BRANCH   4  24
ATOM     24  C   UNL     1      -1.487  14.558  21.865  0.00  0.00    +0.000 C 
BRANCH  24  25
ATOM     25  C   UNL     1      -0.068  14.368  22.400  0.00  0.00    +0.000 C 
ATOM     26  C   UNL     1       0.939  14.901  21.387  0.00  0.00    +0.000 C 
ENDBRANCH  24  25
ENDBRANCH   4  24
TORSDOF 6
ENDMDL
MODEL 9
REMARK VINA RESULT:      -5.2      2.704      4.479
REMARK  Name = 
REMARK  9 active torsions:
REMARK  status: ('A' for Active; 'I' for Inactive)
REMARK    1  A    between atoms: C_1  and  C_2
REMARK    2  A    between atoms: C_2  and  C_3
REMARK    3  A    between atoms: C_3  and  C_4
REMARK    4  A    between atoms: C_4  and  C_6
REMARK    5  A    between atoms: C_7  and  C_8
REMARK    6  A    between atoms: C_11  and  C_12
REMARK    7  A    between atoms: C_16  and  C_18
REMARK    8  A    between atoms: C_18  and  C_19
REMARK    9  A    between atoms: C_19  and  C_20
REMARK                            x       y       z     vdW  Elec       q    Type
REMARK                         _______ _______ _______ _____ _____    ______ ____
ROOT
ATOM      1  C   UNL     1      -3.544  12.739  21.487  0.00  0.00    +0.000 C 
ATOM      2  C   UNL     1      -3.460  12.441  20.156  0.00  0.00    +0.000 C 
ATOM      3  N   UNL     1      -4.564  12.528  19.245  0.00  0.00    +0.000 N 
ATOM      4  C   UNL     1      -4.671  11.963  17.955  0.00  0.00    +0.000 C 
ATOM      5  O   UNL     1      -5.455  12.370  17.090  0.00  0.00    +0.000 OA
ATOM      6  N   UNL     1      -5.671  13.294  19.665  0.00  0.00    +0.000 N 
ATOM      7  C   UNL     1      -6.652  13.913  18.940  0.00  0.00    +0.000 A 
ATOM      8  N   UNL     1      -7.529  14.465  19.753  0.00  0.00    +0.000 NA
ATOM      9  N   UNL     1      -7.109  14.232  21.040  0.00  0.00    +0.000 NA
ATOM     10  C   UNL     1      -5.993  13.548  20.965  0.00  0.00    +0.000 A 
ATOM     11  S   UNL     1      -5.057  13.041  22.295  0.00  0.00    +0.000 S 
ENDROOT
BRANCH   2  12
ATOM     12  C   UNL     1      -2.129  12.047  19.635  0.00  0.00    +0.000 A 
ATOM     13  C   UNL     1      -1.295  13.004  19.029  0.00  0.00    +0.000 A 
ATOM     14  C   UNL     1      -0.022  12.648  18.574  0.00  0.00    +0.000 A 
ATOM     15  C   UNL     1       0.405  11.319  18.646  0.00  0.00    +0.000 A 
ATOM     16  C   UNL     1       1.764  10.923  18.146  0.00  0.00    +0.000 C 
ATOM     17  C   UNL     1      -0.451  10.351  19.188  0.00  0.00    +0.000 A 
ATOM     18  C   UNL     1      -1.703  10.713  19.696  0.00  0.00    +0.000 A 
ENDBRANCH   2  12
BRANCH   1  19
ATOM     19  C   UNL     1      -2.331  12.784  22.432  0.00  0.00    +0.000 C 
ATOM     20  O   UNL     1      -1.689  13.818  22.607  0.00  0.00    +0.000 OA
BRANCH  19  21
ATOM     21  C   UNL     1      -1.972  11.527  23.227  0.00  0.00    +0.000 C 
BRANCH  21  23
ATOM     22  C   UNL     1      -0.570   9.459  22.998  0.00  0.00    +0.000 C 
ATOM     23  C   UNL     1      -0.585  10.976  22.886  0.00  0.00    +0.000 C 
ENDBRANCH  21  23
ENDBRANCH  19  21
ENDBRANCH   1  19
BRANCH   4  24
ATOM     24  C   UNL     1      -3.865  10.715  17.639  0.00  0.00    +0.000 C 
BRANCH  24  25
ATOM     25  C   UNL     1      -3.328  10.622  16.211  0.00  0.00    +0.000 C 
ATOM     26  C   UNL     1      -2.156   9.649  16.164  0.00  0.00    +0.000 C 
ENDBRANCH  24  25
ENDBRANCH   4  24
TORSDOF 6
ENDMDL
