MODEL 1
REMARK VINA RESULT:      -8.0      0.000      0.000
REMARK  Name = 
REMARK  6 active torsions:
REMARK  status: ('A' for Active; 'I' for Inactive)
REMARK    1  A    between atoms: C_1  and  O_2
REMARK    2  A    between atoms: O_2  and  C_3
REMARK    3  A    between atoms: C_3  and  C_5
REMARK    4  A    between atoms: C_10  and  N_11
REMARK    5  A    between atoms: C_17  and  O_18
REMARK    6  A    between atoms: O_18  and  C_19
REMARK                            x       y       z     vdW  Elec       q    Type
REMARK                         _______ _______ _______ _____ _____    ______ ____
ROOT
ATOM      1  N   UNL     1       3.199   4.791  18.101  0.00  0.00    +0.000 N 
ATOM      2  C   UNL     1       2.644   3.426  18.142  0.00  0.00    +0.000 C 
ATOM      3  C   UNL     1       2.558   2.933  19.578  0.00  0.00    +0.000 C 
ATOM      4  C   UNL     1       1.610   3.815  20.375  0.00  0.00    +0.000 C 
ATOM      5  C   UNL     1       1.809   5.279  20.084  0.00  0.00    +0.000 A 
ATOM      6  C   UNL     1       1.210   6.222  20.942  0.00  0.00    +0.000 A 
ATOM      7  C   UNL     1       1.338   7.594  20.715  0.00  0.00    +0.000 A 
ATOM      8  C   UNL     1       2.047   8.026  19.601  0.00  0.00    +0.000 A 
ATOM      9  C   UNL     1       2.630   7.096  18.735  0.00  0.00    +0.000 A 
ATOM     10  C   UNL     1       2.550   5.711  18.967  0.00  0.00    +0.000 A 
ENDROOT
BRANCH   1  16
ATOM     11  C   UNL     1       6.643   6.005  17.243  0.00  0.00    +0.000 A 
ATOM     12  C   UNL     1       6.865   5.369  16.020  0.00  0.00    +0.000 A 
ATOM     13  C   UNL     1       5.871   4.554  15.490  0.00  0.00    +0.000 A 
ATOM     14 CL   UNL     1       6.144   3.748  13.993  0.00  0.00    +0.000 Cl
ATOM     15  C   UNL     1       4.656   4.375  16.158  0.00  0.00    +0.000 A 
ATOM     16  C   UNL     1       4.412   4.983  17.398  0.00  0.00    +0.000 A 
ATOM     17  C   UNL     1       5.432   5.798  17.921  0.00  0.00    +0.000 A 
BRANCH  11  18
ATOM     18  C   UNL     1       7.652   6.900  17.872  0.00  0.00    +0.000 C 
ATOM     19  O   UNL     1       8.245   6.634  18.904  0.00  0.00    +0.000 OA
BRANCH  18  21
ATOM     20  C   UNL     1       8.147   9.181  17.907  0.00  0.00    +0.000 C 
ATOM     21  O   UNL     1       7.804   8.029  17.137  0.00  0.00    +0.000 OA
ENDBRANCH  18  21
ENDBRANCH  11  18
ENDBRANCH   1  16
BRANCH   7  22
ATOM     22  O   UNL     1       0.726   8.397  21.636  0.00  0.00    +0.000 OA
ATOM     23  C   UNL     1       0.102   9.574  21.135  0.00  0.00    +0.000 C 
ENDBRANCH   7  22
TORSDOF 4
ENDMDL
MODEL 2
REMARK VINA RESULT:      -7.9      2.226      3.037
REMARK  Name = 
REMARK  6 active torsions:
REMARK  status: ('A' for Active; 'I' for Inactive)
REMARK    1  A    between atoms: C_1  and  O_2
REMARK    2  A    between atoms: O_2  and  C_3
REMARK    3  A    between atoms: C_3  and  C_5
REMARK    4  A    between atoms: C_10  and  N_11
REMARK    5  A    between atoms: C_17  and  O_18
REMARK    6  A    between atoms: O_18  and  C_19
REMARK                            x       y       z     vdW  Elec       q    Type
REMARK                         _______ _______ _______ _____ _____    ______ ____
ROOT
ATOM      1  N   UNL     1       3.477   4.423  18.229  0.00  0.00    +0.000 N 
ATOM      2  C   UNL     1       2.877   3.083  18.096  0.00  0.00    +0.000 C 
ATOM      3  C   UNL     1       2.523   2.524  19.466  0.00  0.00    +0.000 C 
ATOM      4  C   UNL     1       1.480   3.406  20.134  0.00  0.00    +0.000 C 
ATOM      5  C   UNL     1       1.777   4.873  19.965  0.00  0.00    +0.000 A 
ATOM      6  C   UNL     1       1.069   5.797  20.758  0.00  0.00    +0.000 A 
ATOM      7  C   UNL     1       1.281   7.171  20.634  0.00  0.00    +0.000 A 
ATOM      8  C   UNL     1       2.189   7.627  19.687  0.00  0.00    +0.000 A 
ATOM      9  C   UNL     1       2.883   6.717  18.884  0.00  0.00    +0.000 A 
ATOM     10  C   UNL     1       2.717   5.327  19.020  0.00  0.00    +0.000 A 
ENDROOT
BRANCH   1  16
ATOM     11  C   UNL     1       6.399   4.715  15.896  0.00  0.00    +0.000 A 
ATOM     12  C   UNL     1       7.443   4.966  16.788  0.00  0.00    +0.000 A 
ATOM     13  C   UNL     1       7.170   5.027  18.150  0.00  0.00    +0.000 A 
ATOM     14 CL   UNL     1       8.447   5.359  19.256  0.00  0.00    +0.000 Cl
ATOM     15  C   UNL     1       5.873   4.830  18.633  0.00  0.00    +0.000 A 
ATOM     16  C   UNL     1       4.800   4.598  17.760  0.00  0.00    +0.000 A 
ATOM     17  C   UNL     1       5.095   4.546  16.385  0.00  0.00    +0.000 A 
BRANCH  11  18
ATOM     18  C   UNL     1       6.610   4.624  14.426  0.00  0.00    +0.000 C 
ATOM     19  O   UNL     1       7.421   5.298  13.814  0.00  0.00    +0.000 OA
BRANCH  18  21
ATOM     20  C   UNL     1       6.045   3.407  12.515  0.00  0.00    +0.000 C 
ATOM     21  O   UNL     1       5.779   3.698  13.886  0.00  0.00    +0.000 OA
ENDBRANCH  18  21
ENDBRANCH  11  18
ENDBRANCH   1  16
BRANCH   7  22
ATOM     22  O   UNL     1       0.544   7.954  21.479  0.00  0.00    +0.000 OA
ATOM     23  C   UNL     1       1.096   9.223  21.809  0.00  0.00    +0.000 C 
ENDBRANCH   7  22
TORSDOF 4
ENDMDL
MODEL 3
REMARK VINA RESULT:      -7.8      1.022      1.247
REMARK  Name = 
REMARK  6 active torsions:
REMARK  status: ('A' for Active; 'I' for Inactive)
REMARK    1  A    between atoms: C_1  and  O_2
REMARK    2  A    between atoms: O_2  and  C_3
REMARK    3  A    between atoms: C_3  and  C_5
REMARK    4  A    between atoms: C_10  and  N_11
REMARK    5  A    between atoms: C_17  and  O_18
REMARK    6  A    between atoms: O_18  and  C_19
REMARK                            x       y       z     vdW  Elec       q    Type
REMARK                         _______ _______ _______ _____ _____    ______ ____
ROOT
ATOM      1  N   UNL     1       2.973   4.299  18.004  0.00  0.00    +0.000 N 
ATOM      2  C   UNL     1       2.241   3.020  18.053  0.00  0.00    +0.000 C 
ATOM      3  C   UNL     1       2.093   2.550  19.492  0.00  0.00    +0.000 C 
ATOM      4  C   UNL     1       1.272   3.554  20.285  0.00  0.00    +0.000 C 
ATOM      5  C   UNL     1       1.664   4.977  19.987  0.00  0.00    +0.000 A 
ATOM      6  C   UNL     1       1.197   5.996  20.842  0.00  0.00    +0.000 A 
ATOM      7  C   UNL     1       1.506   7.337  20.607  0.00  0.00    +0.000 A 
ATOM      8  C   UNL     1       2.264   7.666  19.490  0.00  0.00    +0.000 A 
ATOM      9  C   UNL     1       2.716   6.662  18.628  0.00  0.00    +0.000 A 
ATOM     10  C   UNL     1       2.453   5.302  18.867  0.00  0.00    +0.000 A 
ENDROOT
BRANCH   1  16
ATOM     11  C   UNL     1       6.651   4.513  17.299  0.00  0.00    +0.000 A 
ATOM     12  C   UNL     1       6.677   4.358  15.912  0.00  0.00    +0.000 A 
ATOM     13  C   UNL     1       5.479   4.194  15.226  0.00  0.00    +0.000 A 
ATOM     14 CL   UNL     1       5.503   3.980  13.518  0.00  0.00    +0.000 Cl
ATOM     15  C   UNL     1       4.256   4.193  15.904  0.00  0.00    +0.000 A 
ATOM     16  C   UNL     1       4.199   4.325  17.299  0.00  0.00    +0.000 A 
ATOM     17  C   UNL     1       5.422   4.483  17.977  0.00  0.00    +0.000 A 
BRANCH  11  18
ATOM     18  C   UNL     1       7.887   4.703  18.105  0.00  0.00    +0.000 C 
ATOM     19  O   UNL     1       8.876   3.996  18.007  0.00  0.00    +0.000 OA
BRANCH  18  21
ATOM     20  C   UNL     1       7.978   7.025  18.328  0.00  0.00    +0.000 C 
ATOM     21  O   UNL     1       7.745   5.759  18.944  0.00  0.00    +0.000 OA
ENDBRANCH  18  21
ENDBRANCH  11  18
ENDBRANCH   1  16
BRANCH   7  22
ATOM     22  O   UNL     1       1.008   8.219  21.525  0.00  0.00    +0.000 OA
ATOM     23  C   UNL     1       0.700   9.524  21.047  0.00  0.00    +0.000 C 
ENDBRANCH   7  22
TORSDOF 4
ENDMDL
MODEL 4
REMARK VINA RESULT:      -7.7      2.888      4.693
REMARK  Name = 
REMARK  6 active torsions:
REMARK  status: ('A' for Active; 'I' for Inactive)
REMARK    1  A    between atoms: C_1  and  O_2
REMARK    2  A    between atoms: O_2  and  C_3
REMARK    3  A    between atoms: C_3  and  C_5
REMARK    4  A    between atoms: C_10  and  N_11
REMARK    5  A    between atoms: C_17  and  O_18
REMARK    6  A    between atoms: O_18  and  C_19
REMARK                            x       y       z     vdW  Elec       q    Type
REMARK                         _______ _______ _______ _____ _____    ______ ____
ROOT
ATOM      1  N   UNL     1       2.018   8.047  19.524  0.00  0.00    +0.000 N 
ATOM      2  C   UNL     1       2.120   8.695  18.204  0.00  0.00    +0.000 C 
ATOM      3  C   UNL     1       0.742   9.111  17.711  0.00  0.00    +0.000 C 
ATOM      4  C   UNL     1       0.139  10.137  18.656  0.00  0.00    +0.000 C 
ATOM      5  C   UNL     1       0.352   9.777  20.103  0.00  0.00    +0.000 A 
ATOM      6  C   UNL     1      -0.385  10.471  21.084  0.00  0.00    +0.000 A 
ATOM      7  C   UNL     1      -0.217  10.201  22.443  0.00  0.00    +0.000 A 
ATOM      8  C   UNL     1       0.718   9.248  22.827  0.00  0.00    +0.000 A 
ATOM      9  C   UNL     1       1.465   8.567  21.861  0.00  0.00    +0.000 A 
ATOM     10  C   UNL     1       1.284   8.793  20.485  0.00  0.00    +0.000 A 
ENDROOT
BRANCH   1  16
ATOM     11  C   UNL     1       4.149   4.977  19.198  0.00  0.00    +0.000 A 
ATOM     12  C   UNL     1       3.361   4.023  19.845  0.00  0.00    +0.000 A 
ATOM     13  C   UNL     1       2.132   4.403  20.372  0.00  0.00    +0.000 A 
ATOM     14 CL   UNL     1       1.164   3.238  21.191  0.00  0.00    +0.000 Cl
ATOM     15  C   UNL     1       1.675   5.719  20.253  0.00  0.00    +0.000 A 
ATOM     16  C   UNL     1       2.452   6.705  19.629  0.00  0.00    +0.000 A 
ATOM     17  C   UNL     1       3.696   6.303  19.107  0.00  0.00    +0.000 A 
BRANCH  11  18
ATOM     18  C   UNL     1       5.470   4.649  18.600  0.00  0.00    +0.000 C 
ATOM     19  O   UNL     1       5.617   4.247  17.458  0.00  0.00    +0.000 OA
BRANCH  18  21
ATOM     20  C   UNL     1       7.474   5.759  19.049  0.00  0.00    +0.000 C 
ATOM     21  O   UNL     1       6.462   4.860  19.501  0.00  0.00    +0.000 OA
ENDBRANCH  18  21
ENDBRANCH  11  18
ENDBRANCH   1  16
BRANCH   7  22
ATOM     22  O   UNL     1      -1.010  10.930  23.285  0.00  0.00    +0.000 OA
ATOM     23  C   UNL     1      -1.279  12.272  22.896  0.00  0.00    +0.000 C 
ENDBRANCH   7  22
TORSDOF 4
ENDMDL
MODEL 5
REMARK VINA RESULT:      -7.7      2.186      2.820
REMARK  Name = 
REMARK  6 active torsions:
REMARK  status: ('A' for Active; 'I' for Inactive)
REMARK    1  A    between atoms: C_1  and  O_2
REMARK    2  A    between atoms: O_2  and  C_3
REMARK    3  A    between atoms: C_3  and  C_5
REMARK    4  A    between atoms: C_10  and  N_11
REMARK    5  A    between atoms: C_17  and  O_18
REMARK    6  A    between atoms: O_18  and  C_19
REMARK                            x       y       z     vdW  Elec       q    Type
REMARK                         _______ _______ _______ _____ _____    ______ ____
ROOT
ATOM      1  N   UNL     1       3.467   4.673  18.732  0.00  0.00    +0.000 N 
ATOM      2  C   UNL     1       2.929   3.312  18.911  0.00  0.00    +0.000 C 
ATOM      3  C   UNL     1       2.633   3.049  20.379  0.00  0.00    +0.000 C 
ATOM      4  C   UNL     1       1.564   4.011  20.875  0.00  0.00    +0.000 C 
ATOM      5  C   UNL     1       1.787   5.417  20.384  0.00  0.00    +0.000 A 
ATOM      6  C   UNL     1       1.054   6.461  20.981  0.00  0.00    +0.000 A 
ATOM      7  C   UNL     1       1.197   7.783  20.556  0.00  0.00    +0.000 A 
ATOM      8  C   UNL     1       2.061   8.060  19.504  0.00  0.00    +0.000 A 
ATOM      9  C   UNL     1       2.779   7.027  18.895  0.00  0.00    +0.000 A 
ATOM     10  C   UNL     1       2.683   5.694  19.333  0.00  0.00    +0.000 A 
ENDROOT
BRANCH   1  16
ATOM     11  C   UNL     1       6.279   4.788  16.253  0.00  0.00    +0.000 A 
ATOM     12  C   UNL     1       7.369   5.061  17.082  0.00  0.00    +0.000 A 
ATOM     13  C   UNL     1       7.163   5.194  18.450  0.00  0.00    +0.000 A 
ATOM     14 CL   UNL     1       8.497   5.552  19.478  0.00  0.00    +0.000 Cl
ATOM     15  C   UNL     1       5.887   5.048  19.002  0.00  0.00    +0.000 A 
ATOM     16  C   UNL     1       4.769   4.796  18.193  0.00  0.00    +0.000 A 
ATOM     17  C   UNL     1       4.997   4.671  16.810  0.00  0.00    +0.000 A 
BRANCH  11  18
ATOM     18  C   UNL     1       6.418   4.622  14.780  0.00  0.00    +0.000 C 
ATOM     19  O   UNL     1       5.624   4.007  14.089  0.00  0.00    +0.000 OA
BRANCH  18  21
ATOM     20  C   UNL     1       7.738   5.150  12.929  0.00  0.00    +0.000 C 
ATOM     21  O   UNL     1       7.538   5.246  14.339  0.00  0.00    +0.000 OA
ENDBRANCH  18  21
ENDBRANCH  11  18
ENDBRANCH   1  16
BRANCH   7  22
ATOM     22  O   UNL     1       0.443   8.699  21.236  0.00  0.00    +0.000 OA
ATOM     23  C   UNL     1       1.019   9.239  22.420  0.00  0.00    +0.000 C 
ENDBRANCH   7  22
TORSDOF 4
ENDMDL
MODEL 6
REMARK VINA RESULT:      -7.6      2.916      4.817
REMARK  Name = 
REMARK  6 active torsions:
REMARK  status: ('A' for Active; 'I' for Inactive)
REMARK    1  A    between atoms: C_1  and  O_2
REMARK    2  A    between atoms: O_2  and  C_3
REMARK    3  A    between atoms: C_3  and  C_5
REMARK    4  A    between atoms: C_10  and  N_11
REMARK    5  A    between atoms: C_17  and  O_18
REMARK    6  A    between atoms: O_18  and  C_19
REMARK                            x       y       z     vdW  Elec       q    Type
REMARK                         _______ _______ _______ _____ _____    ______ ____
ROOT
ATOM      1  N   UNL     1       1.952   8.151  19.524  0.00  0.00    +0.000 N 
ATOM      2  C   UNL     1       2.036   8.809  18.208  0.00  0.00    +0.000 C 
ATOM      3  C   UNL     1       0.649   9.210  17.728  0.00  0.00    +0.000 C 
ATOM      4  C   UNL     1       0.039  10.222  18.685  0.00  0.00    +0.000 C 
ATOM      5  C   UNL     1       0.268   9.855  20.128  0.00  0.00    +0.000 A 
ATOM      6  C   UNL     1      -0.471  10.532  21.118  0.00  0.00    +0.000 A 
ATOM      7  C   UNL     1      -0.289  10.256  22.474  0.00  0.00    +0.000 A 
ATOM      8  C   UNL     1       0.662   9.312  22.845  0.00  0.00    +0.000 A 
ATOM      9  C   UNL     1       1.410   8.649  21.869  0.00  0.00    +0.000 A 
ATOM     10  C   UNL     1       1.215   8.881  20.496  0.00  0.00    +0.000 A 
ENDROOT
BRANCH   1  16
ATOM     11  C   UNL     1       4.108   5.105  19.138  0.00  0.00    +0.000 A 
ATOM     12  C   UNL     1       3.351   4.143  19.808  0.00  0.00    +0.000 A 
ATOM     13  C   UNL     1       2.133   4.509  20.371  0.00  0.00    +0.000 A 
ATOM     14 CL   UNL     1       1.203   3.334  21.219  0.00  0.00    +0.000 Cl
ATOM     15  C   UNL     1       1.658   5.819  20.265  0.00  0.00    +0.000 A 
ATOM     16  C   UNL     1       2.405   6.814  19.617  0.00  0.00    +0.000 A 
ATOM     17  C   UNL     1       3.637   6.425  19.059  0.00  0.00    +0.000 A 
BRANCH  11  18
ATOM     18  C   UNL     1       5.415   4.792  18.500  0.00  0.00    +0.000 C 
ATOM     19  O   UNL     1       6.370   4.329  19.102  0.00  0.00    +0.000 OA
BRANCH  18  21
ATOM     20  C   UNL     1       4.944   4.016  16.349  0.00  0.00    +0.000 C 
ATOM     21  O   UNL     1       5.379   5.093  17.178  0.00  0.00    +0.000 OA
ENDBRANCH  18  21
ENDBRANCH  11  18
ENDBRANCH   1  16
BRANCH   7  22
ATOM     22  O   UNL     1      -1.085  10.969  23.327  0.00  0.00    +0.000 OA
ATOM     23  C   UNL     1      -1.367  12.313  22.954  0.00  0.00    +0.000 C 
ENDBRANCH   7  22
TORSDOF 4
ENDMDL
MODEL 7
REMARK VINA RESULT:      -7.4      2.416      3.273
REMARK  Name = 
REMARK  6 active torsions:
REMARK  status: ('A' for Active; 'I' for Inactive)
REMARK    1  A    between atoms: C_1  and  O_2
REMARK    2  A    between atoms: O_2  and  C_3
REMARK    3  A    between atoms: C_3  and  C_5
REMARK    4  A    between atoms: C_10  and  N_11
REMARK    5  A    between atoms: C_17  and  O_18
REMARK    6  A    between atoms: O_18  and  C_19
REMARK                            x       y       z     vdW  Elec       q    Type
REMARK                         _______ _______ _______ _____ _____    ______ ____
ROOT
ATOM      1  N   UNL     1       3.479   5.625  18.712  0.00  0.00    +0.000 N 
ATOM      2  C   UNL     1       2.823   4.488  19.384  0.00  0.00    +0.000 C 
ATOM      3  C   UNL     1       2.428   4.869  20.802  0.00  0.00    +0.000 C 
ATOM      4  C   UNL     1       1.417   6.003  20.775  0.00  0.00    +0.000 C 
ATOM      5  C   UNL     1       1.779   7.069  19.774  0.00  0.00    +0.000 A 
ATOM      6  C   UNL     1       1.102   8.304  19.833  0.00  0.00    +0.000 A 
ATOM      7  C   UNL     1       1.376   9.325  18.921  0.00  0.00    +0.000 A 
ATOM      8  C   UNL     1       2.315   9.098  17.922  0.00  0.00    +0.000 A 
ATOM      9  C   UNL     1       2.978   7.870  17.847  0.00  0.00    +0.000 A 
ATOM     10  C   UNL     1       2.749   6.843  18.780  0.00  0.00    +0.000 A 
ENDROOT
BRANCH   1  16
ATOM     11  C   UNL     1       6.432   5.077  16.464  0.00  0.00    +0.000 A 
ATOM     12  C   UNL     1       7.486   5.110  17.378  0.00  0.00    +0.000 A 
ATOM     13  C   UNL     1       7.208   5.305  18.727  0.00  0.00    +0.000 A 
ATOM     14 CL   UNL     1       8.504   5.370  19.859  0.00  0.00    +0.000 Cl
ATOM     15  C   UNL     1       5.893   5.455  19.175  0.00  0.00    +0.000 A 
ATOM     16  C   UNL     1       4.814   5.447  18.279  0.00  0.00    +0.000 A 
ATOM     17  C   UNL     1       5.115   5.256  16.918  0.00  0.00    +0.000 A 
BRANCH  11  18
ATOM     18  C   UNL     1       6.644   4.864  15.007  0.00  0.00    +0.000 C 
ATOM     19  O   UNL     1       7.547   5.380  14.371  0.00  0.00    +0.000 OA
BRANCH  18  21
ATOM     20  C   UNL     1       5.922   3.642  13.154  0.00  0.00    +0.000 C 
ATOM     21  O   UNL     1       5.700   4.027  14.510  0.00  0.00    +0.000 OA
ENDBRANCH  18  21
ENDBRANCH  11  18
ENDBRANCH   1  16
BRANCH   7  22
ATOM     22  O   UNL     1       0.664  10.477  19.105  0.00  0.00    +0.000 OA
ATOM     23  C   UNL     1       1.001  11.253  20.250  0.00  0.00    +0.000 C 
ENDBRANCH   7  22
TORSDOF 4
ENDMDL
MODEL 8
REMARK VINA RESULT:      -7.4      1.057      1.413
REMARK  Name = 
REMARK  6 active torsions:
REMARK  status: ('A' for Active; 'I' for Inactive)
REMARK    1  A    between atoms: C_1  and  O_2
REMARK    2  A    between atoms: O_2  and  C_3
REMARK    3  A    between atoms: C_3  and  C_5
REMARK    4  A    between atoms: C_10  and  N_11
REMARK    5  A    between atoms: C_17  and  O_18
REMARK    6  A    between atoms: O_18  and  C_19
REMARK                            x       y       z     vdW  Elec       q    Type
REMARK                         _______ _______ _______ _____ _____    ______ ____
ROOT
ATOM      1  N   UNL     1       3.105   5.888  18.364  0.00  0.00    +0.000 N 
ATOM      2  C   UNL     1       2.581   4.660  18.990  0.00  0.00    +0.000 C 
ATOM      3  C   UNL     1       2.474   4.838  20.497  0.00  0.00    +0.000 C 
ATOM      4  C   UNL     1       1.487   5.949  20.820  0.00  0.00    +0.000 C 
ATOM      5  C   UNL     1       1.660   7.147  19.923  0.00  0.00    +0.000 A 
ATOM      6  C   UNL     1       1.020   8.350  20.279  0.00  0.00    +0.000 A 
ATOM      7  C   UNL     1       1.120   9.489  19.478  0.00  0.00    +0.000 A 
ATOM      8  C   UNL     1       1.845   9.416  18.295  0.00  0.00    +0.000 A 
ATOM      9  C   UNL     1       2.469   8.221  17.926  0.00  0.00    +0.000 A 
ATOM     10  C   UNL     1       2.415   7.073  18.737  0.00  0.00    +0.000 A 
ENDROOT
BRANCH   1  16
ATOM     11  C   UNL     1       6.698   6.407  17.417  0.00  0.00    +0.000 A 
ATOM     12  C   UNL     1       6.804   5.603  16.282  0.00  0.00    +0.000 A 
ATOM     13  C   UNL     1       5.686   4.906  15.837  0.00  0.00    +0.000 A 
ATOM     14 CL   UNL     1       5.814   3.893  14.451  0.00  0.00    +0.000 Cl
ATOM     15  C   UNL     1       4.462   5.010  16.505  0.00  0.00    +0.000 A 
ATOM     16  C   UNL     1       4.329   5.792  17.661  0.00  0.00    +0.000 A 
ATOM     17  C   UNL     1       5.473   6.485  18.099  0.00  0.00    +0.000 A 
BRANCH  11  18
ATOM     18  C   UNL     1       7.844   7.192  17.950  0.00  0.00    +0.000 C 
ATOM     19  O   UNL     1       8.520   6.843  18.903  0.00  0.00    +0.000 OA
BRANCH  18  21
ATOM     20  C   UNL     1       8.324   9.476  18.018  0.00  0.00    +0.000 C 
ATOM     21  O   UNL     1       8.014   8.327  17.228  0.00  0.00    +0.000 OA
ENDBRANCH  18  21
ENDBRANCH  11  18
ENDBRANCH   1  16
BRANCH   7  22
ATOM     22  O   UNL     1       0.469  10.595  19.952  0.00  0.00    +0.000 OA
ATOM     23  C   UNL     1      -0.303  10.416  21.134  0.00  0.00    +0.000 C 
ENDBRANCH   7  22
TORSDOF 4
ENDMDL
MODEL 9
REMARK VINA RESULT:      -7.4      3.540      5.477
REMARK  Name = 
REMARK  6 active torsions:
REMARK  status: ('A' for Active; 'I' for Inactive)
REMARK    1  A    between atoms: C_1  and  O_2
REMARK    2  A    between atoms: O_2  and  C_3
REMARK    3  A    between atoms: C_3  and  C_5
REMARK    4  A    between atoms: C_10  and  N_11
REMARK    5  A    between atoms: C_17  and  O_18
REMARK    6  A    between atoms: O_18  and  C_19
REMARK                            x       y       z     vdW  Elec       q    Type
REMARK                         _______ _______ _______ _____ _____    ______ ____
ROOT
ATOM      1  N   UNL     1       1.935   8.302  19.379  0.00  0.00    +0.000 N 
ATOM      2  C   UNL     1       1.902   8.998  18.079  0.00  0.00    +0.000 C 
ATOM      3  C   UNL     1       0.466   9.299  17.677  0.00  0.00    +0.000 C 
ATOM      4  C   UNL     1      -0.173  10.235  18.690  0.00  0.00    +0.000 C 
ATOM      5  C   UNL     1       0.154   9.851  20.110  0.00  0.00    +0.000 A 
ATOM      6  C   UNL     1      -0.585  10.443  21.153  0.00  0.00    +0.000 A 
ATOM      7  C   UNL     1      -0.316  10.147  22.490  0.00  0.00    +0.000 A 
ATOM      8  C   UNL     1       0.722   9.273  22.789  0.00  0.00    +0.000 A 
ATOM      9  C   UNL     1       1.472   8.696  21.760  0.00  0.00    +0.000 A 
ATOM     10  C   UNL     1       1.192   8.946  20.404  0.00  0.00    +0.000 A 
ENDROOT
BRANCH   1  16
ATOM     11  C   UNL     1       2.445   4.684  20.226  0.00  0.00    +0.000 A 
ATOM     12  C   UNL     1       3.585   4.382  19.478  0.00  0.00    +0.000 A 
ATOM     13  C   UNL     1       4.176   5.380  18.711  0.00  0.00    +0.000 A 
ATOM     14 CL   UNL     1       5.568   5.010  17.768  0.00  0.00    +0.000 Cl
ATOM     15  C   UNL     1       3.651   6.675  18.688  0.00  0.00    +0.000 A 
ATOM     16  C   UNL     1       2.495   7.004  19.411  0.00  0.00    +0.000 A 
ATOM     17  C   UNL     1       1.908   5.979  20.177  0.00  0.00    +0.000 A 
BRANCH  11  18
ATOM     18  C   UNL     1       1.760   3.676  21.080  0.00  0.00    +0.000 C 
ATOM     19  O   UNL     1       2.200   3.277  22.144  0.00  0.00    +0.000 OA
BRANCH  18  21
ATOM     20  C   UNL     1       0.774   2.533  19.299  0.00  0.00    +0.000 C 
ATOM     21  O   UNL     1       0.599   3.280  20.502  0.00  0.00    +0.000 OA
ENDBRANCH  18  21
ENDBRANCH  11  18
ENDBRANCH   1  16
BRANCH   7  22
ATOM     22  O   UNL     1      -1.123  10.773  23.400  0.00  0.00    +0.000 OA
ATOM     23  C   UNL     1      -1.675  12.023  23.001  0.00  0.00    +0.000 C 
ENDBRANCH   7  22
TORSDOF 4
ENDMDL
