MODEL 1
REMARK VINA RESULT:      -6.9      0.000      0.000
REMARK  Name = 
REMARK  12 active torsions:
REMARK  status: ('A' for Active; 'I' for Inactive)
REMARK    1  A    between atoms: C_1  and  C_2
REMARK    2  A    between atoms: C_2  and  N_3
REMARK    3  A    between atoms: N_3  and  C_4
REMARK    4  A    between atoms: N_3  and  C_6
REMARK    5  A    between atoms: C_4  and  C_5
REMARK    6  A    between atoms: C_6  and  C_7
REMARK    7  A    between atoms: C_7  and  C_8
REMARK    8  A    between atoms: C_8  and  C_9
REMARK    9  A    between atoms: N_11  and  C_12
REMARK   10  A    between atoms: C_12  and  C_13
REMARK   11  A    between atoms: C_13  and  N_14
REMARK   12  A    between atoms: N_14  and  C_15
REMARK                            x       y       z     vdW  Elec       q    Type
REMARK                         _______ _______ _______ _____ _____    ______ ____
ROOT
ATOM      1  C   UNL     1       5.704   4.096  15.772  0.00  0.00    +0.000 C 
ENDROOT
BRANCH   1   2
ATOM      2  N   UNL     1       4.640   5.005  16.216  0.00  0.00    +0.000 N 
ATOM      3  H   UNL     1       3.972   5.146  15.465  0.00  0.00    +0.000 HD
BRANCH   2   4
ATOM      4  C   UNL     1       3.958   4.563  17.395  0.00  0.00    +0.000 A 
ATOM      5  C   UNL     1       4.051   3.232  17.815  0.00  0.00    +0.000 A 
ATOM      6  C   UNL     1       3.444   2.848  18.996  0.00  0.00    +0.000 A 
ATOM      7  N   UNL     1       2.795   3.695  19.810  0.00  0.00    +0.000 NA
ATOM      8  C   UNL     1       2.729   4.984  19.449  0.00  0.00    +0.000 A 
ATOM      9  C   UNL     1       2.079   5.841  20.319  0.00  0.00    +0.000 A 
ATOM     10  C   UNL     1       1.947   7.197  20.035  0.00  0.00    +0.000 A 
ATOM     11 CL   UNL     1       1.145   8.233  21.148  0.00  0.00    +0.000 Cl
ATOM     12  C   UNL     1       2.462   7.714  18.856  0.00  0.00    +0.000 A 
ATOM     13  C   UNL     1       3.131   6.874  17.971  0.00  0.00    +0.000 A 
ATOM     14  C   UNL     1       3.291   5.488  18.249  0.00  0.00    +0.000 A 
ENDBRANCH   2   4
ENDBRANCH   1   2
BRANCH   1  15
ATOM     15  C   UNL     1       7.043   4.815  15.547  0.00  0.00    +0.000 C 
BRANCH  15  18
ATOM     16  C   UNL     1       7.560   5.784  17.785  0.00  0.00    +0.000 C 
ATOM     17  O   UNL     1       7.585   4.709  18.379  0.00  0.00    +0.000 OA
ATOM     18  N   UNL     1       7.274   5.939  16.447  0.00  0.00    +0.000 N 
ATOM     19  H   UNL     1       7.544   6.825  16.028  0.00  0.00    +0.000 HD
BRANCH  16  20
ATOM     20  C   UNL     1       7.912   7.055  18.505  0.00  0.00    +0.000 C 
BRANCH  20  21
ATOM     21  C   UNL     1       8.096   8.175  17.483  0.00  0.00    +0.000 C 
BRANCH  21  22
ATOM     22  C   UNL     1       7.863   9.584  18.055  0.00  0.00    +0.000 C 
BRANCH  22  23
ATOM     23  N   UNL     1       9.105  10.344  18.306  0.00  0.00    +0.000 NA
BRANCH  23  25
ATOM     24  C   UNL     1      10.180  12.458  17.407  0.00  0.00    +0.000 C 
ATOM     25  C   UNL     1       8.931  11.761  17.930  0.00  0.00    +0.000 C 
ENDBRANCH  23  25
BRANCH  23  26
ATOM     26  C   UNL     1       9.581  10.155  19.691  0.00  0.00    +0.000 C 
ATOM     27  C   UNL     1       9.277  11.279  20.677  0.00  0.00    +0.000 C 
ENDBRANCH  23  26
ENDBRANCH  22  23
ENDBRANCH  21  22
ENDBRANCH  20  21
ENDBRANCH  16  20
ENDBRANCH  15  18
ENDBRANCH   1  15
TORSDOF 10
ENDMDL
MODEL 2
REMARK VINA RESULT:      -6.7      3.075      5.759
REMARK  Name = 
REMARK  12 active torsions:
REMARK  status: ('A' for Active; 'I' for Inactive)
REMARK    1  A    between atoms: C_1  and  C_2
REMARK    2  A    between atoms: C_2  and  N_3
REMARK    3  A    between atoms: N_3  and  C_4
REMARK    4  A    between atoms: N_3  and  C_6
REMARK    5  A    between atoms: C_4  and  C_5
REMARK    6  A    between atoms: C_6  and  C_7
REMARK    7  A    between atoms: C_7  and  C_8
REMARK    8  A    between atoms: C_8  and  C_9
REMARK    9  A    between atoms: N_11  and  C_12
REMARK   10  A    between atoms: C_12  and  C_13
REMARK   11  A    between atoms: C_13  and  N_14
REMARK   12  A    between atoms: N_14  and  C_15
REMARK                            x       y       z     vdW  Elec       q    Type
REMARK                         _______ _______ _______ _____ _____    ______ ____
ROOT
ATOM      1  C   UNL     1       1.387   5.244  20.847  0.00  0.00    +0.000 C 
ENDROOT
BRANCH   1   2
ATOM      2  N   UNL     1       2.607   5.930  20.405  0.00  0.00    +0.000 N 
ATOM      3  H   UNL     1       3.189   5.289  19.876  0.00  0.00    +0.000 HD
BRANCH   2   4
ATOM      4  C   UNL     1       2.359   7.108  19.632  0.00  0.00    +0.000 A 
ATOM      5  C   UNL     1       2.690   7.151  18.273  0.00  0.00    +0.000 A 
ATOM      6  C   UNL     1       2.372   8.274  17.531  0.00  0.00    +0.000 A 
ATOM      7  N   UNL     1       1.712   9.332  18.027  0.00  0.00    +0.000 NA
ATOM      8  C   UNL     1       1.347   9.295  19.316  0.00  0.00    +0.000 A 
ATOM      9  C   UNL     1       0.643  10.386  19.793  0.00  0.00    +0.000 A 
ATOM     10  C   UNL     1       0.225  10.452  21.119  0.00  0.00    +0.000 A 
ATOM     11 CL   UNL     1      -0.661  11.818  21.672  0.00  0.00    +0.000 Cl
ATOM     12  C   UNL     1       0.521   9.419  21.995  0.00  0.00    +0.000 A 
ATOM     13  C   UNL     1       1.217   8.305  21.533  0.00  0.00    +0.000 A 
ATOM     14  C   UNL     1       1.640   8.210  20.179  0.00  0.00    +0.000 A 
ENDBRANCH   2   4
ENDBRANCH   1   2
BRANCH   1  15
ATOM     15  C   UNL     1       1.038   4.030  19.973  0.00  0.00    +0.000 C 
BRANCH  15  18
ATOM     16  C   UNL     1       2.430   3.198  18.080  0.00  0.00    +0.000 C 
ATOM     17  O   UNL     1       1.671   3.580  17.194  0.00  0.00    +0.000 OA
ATOM     18  N   UNL     1       2.198   3.332  19.431  0.00  0.00    +0.000 N 
ATOM     19  H   UNL     1       3.004   3.223  20.041  0.00  0.00    +0.000 HD
BRANCH  16  20
ATOM     20  C   UNL     1       3.753   2.578  17.728  0.00  0.00    +0.000 C 
BRANCH  20  21
ATOM     21  C   UNL     1       4.836   3.653  17.766  0.00  0.00    +0.000 C 
BRANCH  21  22
ATOM     22  C   UNL     1       5.043   4.376  16.424  0.00  0.00    +0.000 C 
BRANCH  22  23
ATOM     23  N   UNL     1       6.335   5.084  16.315  0.00  0.00    +0.000 NA
BRANCH  23  25
ATOM     24  C   UNL     1       6.075   4.080  14.000  0.00  0.00    +0.000 C 
ATOM     25  C   UNL     1       6.888   4.948  14.953  0.00  0.00    +0.000 C 
ENDBRANCH  23  25
BRANCH  23  26
ATOM     26  C   UNL     1       6.222   6.484  16.768  0.00  0.00    +0.000 C 
ATOM     27  C   UNL     1       7.420   7.060  17.518  0.00  0.00    +0.000 C 
ENDBRANCH  23  26
ENDBRANCH  22  23
ENDBRANCH  21  22
ENDBRANCH  20  21
ENDBRANCH  16  20
ENDBRANCH  15  18
ENDBRANCH   1  15
TORSDOF 10
ENDMDL
MODEL 3
REMARK VINA RESULT:      -6.7      1.794      2.611
REMARK  Name = 
REMARK  12 active torsions:
REMARK  status: ('A' for Active; 'I' for Inactive)
REMARK    1  A    between atoms: C_1  and  C_2
REMARK    2  A    between atoms: C_2  and  N_3
REMARK    3  A    between atoms: N_3  and  C_4
REMARK    4  A    between atoms: N_3  and  C_6
REMARK    5  A    between atoms: C_4  and  C_5
REMARK    6  A    between atoms: C_6  and  C_7
REMARK    7  A    between atoms: C_7  and  C_8
REMARK    8  A    between atoms: C_8  and  C_9
REMARK    9  A    between atoms: N_11  and  C_12
REMARK   10  A    between atoms: C_12  and  C_13
REMARK   11  A    between atoms: C_13  and  N_14
REMARK   12  A    between atoms: N_14  and  C_15
REMARK                            x       y       z     vdW  Elec       q    Type
REMARK                         _______ _______ _______ _____ _____    ______ ____
ROOT
ATOM      1  C   UNL     1       5.771   4.172  16.894  0.00  0.00    +0.000 C 
ENDROOT
BRANCH   1   2
ATOM      2  N   UNL     1       4.469   4.735  16.517  0.00  0.00    +0.000 N 
ATOM      3  H   UNL     1       3.877   4.006  16.133  0.00  0.00    +0.000 HD
BRANCH   2   4
ATOM      4  C   UNL     1       3.791   5.394  17.592  0.00  0.00    +0.000 A 
ATOM      5  C   UNL     1       3.580   6.776  17.561  0.00  0.00    +0.000 A 
ATOM      6  C   UNL     1       2.857   7.377  18.575  0.00  0.00    +0.000 A 
ATOM      7  N   UNL     1       2.292   6.702  19.587  0.00  0.00    +0.000 NA
ATOM      8  C   UNL     1       2.445   5.371  19.616  0.00  0.00    +0.000 A 
ATOM      9  C   UNL     1       1.829   4.697  20.655  0.00  0.00    +0.000 A 
ATOM     10  C   UNL     1       1.933   3.315  20.782  0.00  0.00    +0.000 A 
ATOM     11 CL   UNL     1       1.141   2.511  22.079  0.00  0.00    +0.000 Cl
ATOM     12  C   UNL     1       2.673   2.585  19.865  0.00  0.00    +0.000 A 
ATOM     13  C   UNL     1       3.292   3.241  18.804  0.00  0.00    +0.000 A 
ATOM     14  C   UNL     1       3.186   4.650  18.646  0.00  0.00    +0.000 A 
ENDBRANCH   2   4
ENDBRANCH   1   2
BRANCH   1  15
ATOM     15  C   UNL     1       6.949   4.914  16.247  0.00  0.00    +0.000 C 
BRANCH  15  18
ATOM     16  C   UNL     1       7.435   7.103  17.337  0.00  0.00    +0.000 C 
ATOM     17  O   UNL     1       6.605   7.743  16.697  0.00  0.00    +0.000 OA
ATOM     18  N   UNL     1       7.698   5.762  17.168  0.00  0.00    +0.000 N 
ATOM     19  H   UNL     1       8.201   5.302  17.923  0.00  0.00    +0.000 HD
BRANCH  16  20
ATOM     20  C   UNL     1       8.216   7.763  18.437  0.00  0.00    +0.000 C 
BRANCH  20  21
ATOM     21  C   UNL     1       8.454   9.228  18.075  0.00  0.00    +0.000 C 
BRANCH  21  22
ATOM     22  C   UNL     1       9.165  10.034  19.175  0.00  0.00    +0.000 C 
BRANCH  22  23
ATOM     23  N   UNL     1       9.705  11.330  18.716  0.00  0.00    +0.000 NA
BRANCH  23  25
ATOM     24  C   UNL     1       8.727  13.551  17.976  0.00  0.00    +0.000 C 
ATOM     25  C   UNL     1       8.721  12.031  17.867  0.00  0.00    +0.000 C 
ENDBRANCH  23  25
BRANCH  23  26
ATOM     26  C   UNL     1      10.191  12.143  19.849  0.00  0.00    +0.000 C 
ATOM     27  C   UNL     1       9.597  11.829  21.220  0.00  0.00    +0.000 C 
ENDBRANCH  23  26
ENDBRANCH  22  23
ENDBRANCH  21  22
ENDBRANCH  20  21
ENDBRANCH  16  20
ENDBRANCH  15  18
ENDBRANCH   1  15
TORSDOF 10
ENDMDL
MODEL 4
REMARK VINA RESULT:      -6.6      1.250      1.879
REMARK  Name = 
REMARK  12 active torsions:
REMARK  status: ('A' for Active; 'I' for Inactive)
REMARK    1  A    between atoms: C_1  and  C_2
REMARK    2  A    between atoms: C_2  and  N_3
REMARK    3  A    between atoms: N_3  and  C_4
REMARK    4  A    between atoms: N_3  and  C_6
REMARK    5  A    between atoms: C_4  and  C_5
REMARK    6  A    between atoms: C_6  and  C_7
REMARK    7  A    between atoms: C_7  and  C_8
REMARK    8  A    between atoms: C_8  and  C_9
REMARK    9  A    between atoms: N_11  and  C_12
REMARK   10  A    between atoms: C_12  and  C_13
REMARK   11  A    between atoms: C_13  and  N_14
REMARK   12  A    between atoms: N_14  and  C_15
REMARK                            x       y       z     vdW  Elec       q    Type
REMARK                         _______ _______ _______ _____ _____    ______ ____
ROOT
ATOM      1  C   UNL     1       6.295   4.733  17.616  0.00  0.00    +0.000 C 
ENDROOT
BRANCH   1   2
ATOM      2  N   UNL     1       4.993   4.196  17.204  0.00  0.00    +0.000 N 
ATOM      3  H   UNL     1       5.125   3.341  16.675  0.00  0.00    +0.000 HD
BRANCH   2   4
ATOM      4  C   UNL     1       4.095   3.958  18.293  0.00  0.00    +0.000 A 
ATOM      5  C   UNL     1       4.020   2.696  18.892  0.00  0.00    +0.000 A 
ATOM      6  C   UNL     1       3.200   2.511  19.990  0.00  0.00    +0.000 A 
ATOM      7  N   UNL     1       2.490   3.495  20.562  0.00  0.00    +0.000 NA
ATOM      8  C   UNL     1       2.579   4.723  20.032  0.00  0.00    +0.000 A 
ATOM      9  C   UNL     1       1.858   5.723  20.658  0.00  0.00    +0.000 A 
ATOM     10  C   UNL     1       1.874   7.032  20.183  0.00  0.00    +0.000 A 
ATOM     11 CL   UNL     1       0.977   8.251  20.997  0.00  0.00    +0.000 Cl
ATOM     12  C   UNL     1       2.612   7.353  19.054  0.00  0.00    +0.000 A 
ATOM     13  C   UNL     1       3.355   6.365  18.415  0.00  0.00    +0.000 A 
ATOM     14  C   UNL     1       3.366   5.025  18.892  0.00  0.00    +0.000 A 
ENDBRANCH   2   4
ENDBRANCH   1   2
BRANCH   1  15
ATOM     15  C   UNL     1       6.973   5.560  16.513  0.00  0.00    +0.000 C 
BRANCH  15  18
ATOM     16  C   UNL     1       7.660   7.584  17.796  0.00  0.00    +0.000 C 
ATOM     17  O   UNL     1       8.288   6.973  18.657  0.00  0.00    +0.000 OA
ATOM     18  N   UNL     1       6.970   6.998  16.759  0.00  0.00    +0.000 N 
ATOM     19  H   UNL     1       6.724   7.604  15.981  0.00  0.00    +0.000 HD
BRANCH  16  20
ATOM     20  C   UNL     1       7.650   9.086  17.789  0.00  0.00    +0.000 C 
BRANCH  20  21
ATOM     21  C   UNL     1       8.817   9.599  18.630  0.00  0.00    +0.000 C 
BRANCH  21  22
ATOM     22  C   UNL     1       9.307  11.000  18.226  0.00  0.00    +0.000 C 
BRANCH  22  23
ATOM     23  N   UNL     1      10.113  11.677  19.263  0.00  0.00    +0.000 NA
BRANCH  23  25
ATOM     24  C   UNL     1       8.848  11.960  21.442  0.00  0.00    +0.000 C 
ATOM     25  C   UNL     1       9.806  11.129  20.598  0.00  0.00    +0.000 C 
ENDBRANCH  23  25
BRANCH  23  26
ATOM     26  C   UNL     1      11.551  11.648  18.930  0.00  0.00    +0.000 C 
ATOM     27  C   UNL     1      12.332  12.940  19.155  0.00  0.00    +0.000 C 
ENDBRANCH  23  26
ENDBRANCH  22  23
ENDBRANCH  21  22
ENDBRANCH  20  21
ENDBRANCH  16  20
ENDBRANCH  15  18
ENDBRANCH   1  15
TORSDOF 10
ENDMDL
MODEL 5
REMARK VINA RESULT:      -6.5      5.214      8.574
REMARK  Name = 
REMARK  12 active torsions:
REMARK  status: ('A' for Active; 'I' for Inactive)
REMARK    1  A    between atoms: C_1  and  C_2
REMARK    2  A    between atoms: C_2  and  N_3
REMARK    3  A    between atoms: N_3  and  C_4
REMARK    4  A    between atoms: N_3  and  C_6
REMARK    5  A    between atoms: C_4  and  C_5
REMARK    6  A    between atoms: C_6  and  C_7
REMARK    7  A    between atoms: C_7  and  C_8
REMARK    8  A    between atoms: C_8  and  C_9
REMARK    9  A    between atoms: N_11  and  C_12
REMARK   10  A    between atoms: C_12  and  C_13
REMARK   11  A    between atoms: C_13  and  N_14
REMARK   12  A    between atoms: N_14  and  C_15
REMARK                            x       y       z     vdW  Elec       q    Type
REMARK                         _______ _______ _______ _____ _____    ______ ____
ROOT
ATOM      1  C   UNL     1       1.907   7.398  20.221  0.00  0.00    +0.000 C 
ENDROOT
BRANCH   1   2
ATOM      2  N   UNL     1       2.182   6.153  20.949  0.00  0.00    +0.000 N 
ATOM      3  H   UNL     1       1.552   6.071  21.740  0.00  0.00    +0.000 HD
BRANCH   2   4
ATOM      4  C   UNL     1       2.096   4.978  20.137  0.00  0.00    +0.000 A 
ATOM      5  C   UNL     1       0.998   4.117  20.243  0.00  0.00    +0.000 A 
ATOM      6  C   UNL     1       0.903   3.029  19.395  0.00  0.00    +0.000 A 
ATOM      7  N   UNL     1       1.789   2.762  18.425  0.00  0.00    +0.000 NA
ATOM      8  C   UNL     1       2.827   3.596  18.276  0.00  0.00    +0.000 A 
ATOM      9  C   UNL     1       3.710   3.313  17.249  0.00  0.00    +0.000 A 
ATOM     10  C   UNL     1       4.826   4.111  17.015  0.00  0.00    +0.000 A 
ATOM     11 CL   UNL     1       5.893   3.735  15.720  0.00  0.00    +0.000 Cl
ATOM     12  C   UNL     1       5.079   5.209  17.823  0.00  0.00    +0.000 A 
ATOM     13  C   UNL     1       4.197   5.521  18.854  0.00  0.00    +0.000 A 
ATOM     14  C   UNL     1       3.043   4.728  19.101  0.00  0.00    +0.000 A 
ENDBRANCH   2   4
ENDBRANCH   1   2
BRANCH   1  15
ATOM     15  C   UNL     1       1.080   8.397  21.044  0.00  0.00    +0.000 C 
BRANCH  15  18
ATOM     16  C   UNL     1       0.405  10.721  20.446  0.00  0.00    +0.000 C 
ATOM     17  O   UNL     1       1.031  11.265  21.352  0.00  0.00    +0.000 OA
ATOM     18  N   UNL     1       0.337   9.361  20.240  0.00  0.00    +0.000 N 
ATOM     19  H   UNL     1       0.019   9.059  19.323  0.00  0.00    +0.000 HD
BRANCH  16  20
ATOM     20  C   UNL     1      -0.315  11.549  19.420  0.00  0.00    +0.000 C 
BRANCH  20  21
ATOM     21  C   UNL     1      -1.421  10.709  18.785  0.00  0.00    +0.000 C 
BRANCH  21  22
ATOM     22  C   UNL     1      -2.636  11.530  18.320  0.00  0.00    +0.000 C 
BRANCH  22  23
ATOM     23  N   UNL     1      -3.395  10.908  17.215  0.00  0.00    +0.000 NA
BRANCH  23  25
ATOM     24  C   UNL     1      -5.685  10.963  18.302  0.00  0.00    +0.000 C 
ATOM     25  C   UNL     1      -4.774  11.430  17.174  0.00  0.00    +0.000 C 
ENDBRANCH  23  25
BRANCH  23  26
ATOM     26  C   UNL     1      -2.677  11.035  15.931  0.00  0.00    +0.000 C 
ATOM     27  C   UNL     1      -3.028  10.019  14.847  0.00  0.00    +0.000 C 
ENDBRANCH  23  26
ENDBRANCH  22  23
ENDBRANCH  21  22
ENDBRANCH  20  21
ENDBRANCH  16  20
ENDBRANCH  15  18
ENDBRANCH   1  15
TORSDOF 10
ENDMDL
MODEL 6
REMARK VINA RESULT:      -6.5      3.249      5.862
REMARK  Name = 
REMARK  12 active torsions:
REMARK  status: ('A' for Active; 'I' for Inactive)
REMARK    1  A    between atoms: C_1  and  C_2
REMARK    2  A    between atoms: C_2  and  N_3
REMARK    3  A    between atoms: N_3  and  C_4
REMARK    4  A    between atoms: N_3  and  C_6
REMARK    5  A    between atoms: C_4  and  C_5
REMARK    6  A    between atoms: C_6  and  C_7
REMARK    7  A    between atoms: C_7  and  C_8
REMARK    8  A    between atoms: C_8  and  C_9
REMARK    9  A    between atoms: N_11  and  C_12
REMARK   10  A    between atoms: C_12  and  C_13
REMARK   11  A    between atoms: C_13  and  N_14
REMARK   12  A    between atoms: N_14  and  C_15
REMARK                            x       y       z     vdW  Elec       q    Type
REMARK                         _______ _______ _______ _____ _____    ______ ____
ROOT
ATOM      1  C   UNL     1       1.598   6.077  20.209  0.00  0.00    +0.000 C 
ENDROOT
BRANCH   1   2
ATOM      2  N   UNL     1       1.960   7.274  20.977  0.00  0.00    +0.000 N 
ATOM      3  H   UNL     1       2.969   7.324  21.080  0.00  0.00    +0.000 HD
BRANCH   2   4
ATOM      4  C   UNL     1       1.470   8.494  20.411  0.00  0.00    +0.000 A 
ATOM      5  C   UNL     1       1.696   8.795  19.063  0.00  0.00    +0.000 A 
ATOM      6  C   UNL     1       1.148   9.944  18.523  0.00  0.00    +0.000 A 
ATOM      7  N   UNL     1       0.359  10.785  19.206  0.00  0.00    +0.000 NA
ATOM      8  C   UNL     1       0.093  10.495  20.487  0.00  0.00    +0.000 A 
ATOM      9  C   UNL     1      -0.746  11.365  21.161  0.00  0.00    +0.000 A 
ATOM     10  C   UNL     1      -1.078  11.160  22.497  0.00  0.00    +0.000 A 
ATOM     11 CL   UNL     1      -2.135  12.255  23.295  0.00  0.00    +0.000 Cl
ATOM     12  C   UNL     1      -0.557  10.075  23.185  0.00  0.00    +0.000 A 
ATOM     13  C   UNL     1       0.280   9.179  22.524  0.00  0.00    +0.000 A 
ATOM     14  C   UNL     1       0.619   9.361  21.155  0.00  0.00    +0.000 A 
ENDBRANCH   2   4
ENDBRANCH   1   2
BRANCH   1  15
ATOM     15  C   UNL     1       2.068   4.777  20.880  0.00  0.00    +0.000 C 
BRANCH  15  18
ATOM     16  C   UNL     1       4.035   4.845  19.350  0.00  0.00    +0.000 C 
ATOM     17  O   UNL     1       3.808   5.969  18.911  0.00  0.00    +0.000 OA
ATOM     18  N   UNL     1       3.245   4.179  20.261  0.00  0.00    +0.000 N 
ATOM     19  H   UNL     1       3.673   3.389  20.736  0.00  0.00    +0.000 HD
BRANCH  16  20
ATOM     20  C   UNL     1       5.281   4.111  18.943  0.00  0.00    +0.000 C 
BRANCH  20  21
ATOM     21  C   UNL     1       6.479   5.050  19.066  0.00  0.00    +0.000 C 
BRANCH  21  22
ATOM     22  C   UNL     1       7.553   4.833  17.987  0.00  0.00    +0.000 C 
BRANCH  22  23
ATOM     23  N   UNL     1       7.501   5.811  16.880  0.00  0.00    +0.000 NA
BRANCH  23  25
ATOM     24  C   UNL     1       5.416   5.735  15.437  0.00  0.00    +0.000 C 
ATOM     25  C   UNL     1       6.828   5.226  15.704  0.00  0.00    +0.000 C 
ENDBRANCH  23  25
BRANCH  23  26
ATOM     26  C   UNL     1       6.913   7.091  17.321  0.00  0.00    +0.000 C 
ATOM     27  C   UNL     1       7.889   8.226  17.618  0.00  0.00    +0.000 C 
ENDBRANCH  23  26
ENDBRANCH  22  23
ENDBRANCH  21  22
ENDBRANCH  20  21
ENDBRANCH  16  20
ENDBRANCH  15  18
ENDBRANCH   1  15
TORSDOF 10
ENDMDL
MODEL 7
REMARK VINA RESULT:      -6.5      5.319      8.616
REMARK  Name = 
REMARK  12 active torsions:
REMARK  status: ('A' for Active; 'I' for Inactive)
REMARK    1  A    between atoms: C_1  and  C_2
REMARK    2  A    between atoms: C_2  and  N_3
REMARK    3  A    between atoms: N_3  and  C_4
REMARK    4  A    between atoms: N_3  and  C_6
REMARK    5  A    between atoms: C_4  and  C_5
REMARK    6  A    between atoms: C_6  and  C_7
REMARK    7  A    between atoms: C_7  and  C_8
REMARK    8  A    between atoms: C_8  and  C_9
REMARK    9  A    between atoms: N_11  and  C_12
REMARK   10  A    between atoms: C_12  and  C_13
REMARK   11  A    between atoms: C_13  and  N_14
REMARK   12  A    between atoms: N_14  and  C_15
REMARK                            x       y       z     vdW  Elec       q    Type
REMARK                         _______ _______ _______ _____ _____    ______ ____
ROOT
ATOM      1  C   UNL     1       1.759   7.338  20.598  0.00  0.00    +0.000 C 
ENDROOT
BRANCH   1   2
ATOM      2  N   UNL     1       2.524   7.227  19.350  0.00  0.00    +0.000 N 
ATOM      3  H   UNL     1       3.213   7.970  19.302  0.00  0.00    +0.000 HD
BRANCH   2   4
ATOM      4  C   UNL     1       3.166   5.959  19.177  0.00  0.00    +0.000 A 
ATOM      5  C   UNL     1       2.882   4.894  20.039  0.00  0.00    +0.000 A 
ATOM      6  C   UNL     1       3.459   3.659  19.805  0.00  0.00    +0.000 A 
ATOM      7  N   UNL     1       4.254   3.395  18.758  0.00  0.00    +0.000 NA
ATOM      8  C   UNL     1       4.505   4.388  17.895  0.00  0.00    +0.000 A 
ATOM      9  C   UNL     1       5.305   4.081  16.809  0.00  0.00    +0.000 A 
ATOM     10  C   UNL     1       5.634   5.043  15.858  0.00  0.00    +0.000 A 
ATOM     11 CL   UNL     1       6.619   4.619  14.514  0.00  0.00    +0.000 Cl
ATOM     12  C   UNL     1       5.170   6.342  15.993  0.00  0.00    +0.000 A 
ATOM     13  C   UNL     1       4.354   6.672  17.072  0.00  0.00    +0.000 A 
ATOM     14  C   UNL     1       3.992   5.701  18.045  0.00  0.00    +0.000 A 
ENDBRANCH   2   4
ENDBRANCH   1   2
BRANCH   1  15
ATOM     15  C   UNL     1       1.317   8.778  20.897  0.00  0.00    +0.000 C 
BRANCH  15  18
ATOM     16  C   UNL     1      -0.304  10.364  19.860  0.00  0.00    +0.000 C 
ATOM     17  O   UNL     1      -0.906  10.618  20.900  0.00  0.00    +0.000 OA
ATOM     18  N   UNL     1       0.742   9.475  19.751  0.00  0.00    +0.000 N 
ATOM     19  H   UNL     1       1.316   9.554  18.916  0.00  0.00    +0.000 HD
BRANCH  16  20
ATOM     20  C   UNL     1      -0.650  11.086  18.589  0.00  0.00    +0.000 C 
BRANCH  20  21
ATOM     21  C   UNL     1      -1.363  10.122  17.643  0.00  0.00    +0.000 C 
BRANCH  21  22
ATOM     22  C   UNL     1      -2.879  10.021  17.883  0.00  0.00    +0.000 C 
BRANCH  22  23
ATOM     23  N   UNL     1      -3.698  10.371  16.704  0.00  0.00    +0.000 NA
BRANCH  23  25
ATOM     24  C   UNL     1      -4.700  11.874  18.484  0.00  0.00    +0.000 C 
ATOM     25  C   UNL     1      -4.586  11.510  17.009  0.00  0.00    +0.000 C 
ENDBRANCH  23  25
BRANCH  23  26
ATOM     26  C   UNL     1      -2.859  10.581  15.508  0.00  0.00    +0.000 C 
ATOM     27  C   UNL     1      -3.435  10.105  14.176  0.00  0.00    +0.000 C 
ENDBRANCH  23  26
ENDBRANCH  22  23
ENDBRANCH  21  22
ENDBRANCH  20  21
ENDBRANCH  16  20
ENDBRANCH  15  18
ENDBRANCH   1  15
TORSDOF 10
ENDMDL
MODEL 8
REMARK VINA RESULT:      -6.5      5.021      8.333
REMARK  Name = 
REMARK  12 active torsions:
REMARK  status: ('A' for Active; 'I' for Inactive)
REMARK    1  A    between atoms: C_1  and  C_2
REMARK    2  A    between atoms: C_2  and  N_3
REMARK    3  A    between atoms: N_3  and  C_4
REMARK    4  A    between atoms: N_3  and  C_6
REMARK    5  A    between atoms: C_4  and  C_5
REMARK    6  A    between atoms: C_6  and  C_7
REMARK    7  A    between atoms: C_7  and  C_8
REMARK    8  A    between atoms: C_8  and  C_9
REMARK    9  A    between atoms: N_11  and  C_12
REMARK   10  A    between atoms: C_12  and  C_13
REMARK   11  A    between atoms: C_13  and  N_14
REMARK   12  A    between atoms: N_14  and  C_15
REMARK                            x       y       z     vdW  Elec       q    Type
REMARK                         _______ _______ _______ _____ _____    ______ ____
ROOT
ATOM      1  C   UNL     1       1.267   7.191  20.741  0.00  0.00    +0.000 C 
ENDROOT
BRANCH   1   2
ATOM      2  N   UNL     1       2.615   6.874  20.253  0.00  0.00    +0.000 N 
ATOM      3  H   UNL     1       3.291   7.011  20.997  0.00  0.00    +0.000 HD
BRANCH   2   4
ATOM      4  C   UNL     1       2.741   5.552  19.720  0.00  0.00    +0.000 A 
ATOM      5  C   UNL     1       2.027   4.487  20.282  0.00  0.00    +0.000 A 
ATOM      6  C   UNL     1       2.108   3.234  19.703  0.00  0.00    +0.000 A 
ATOM      7  N   UNL     1       2.805   2.973  18.587  0.00  0.00    +0.000 NA
ATOM      8  C   UNL     1       3.462   3.987  18.006  0.00  0.00    +0.000 A 
ATOM      9  C   UNL     1       4.149   3.696  16.841  0.00  0.00    +0.000 A 
ATOM     10  C   UNL     1       4.872   4.675  16.165  0.00  0.00    +0.000 A 
ATOM     11 CL   UNL     1       5.700   4.278  14.712  0.00  0.00    +0.000 Cl
ATOM     12  C   UNL     1       4.924   5.969  16.660  0.00  0.00    +0.000 A 
ATOM     13  C   UNL     1       4.230   6.287  17.825  0.00  0.00    +0.000 A 
ATOM     14  C   UNL     1       3.473   5.307  18.523  0.00  0.00    +0.000 A 
ENDBRANCH   2   4
ENDBRANCH   1   2
BRANCH   1  15
ATOM     15  C   UNL     1       1.195   8.558  21.438  0.00  0.00    +0.000 C 
BRANCH  15  18
ATOM     16  C   UNL     1       0.812   9.930  19.392  0.00  0.00    +0.000 C 
ATOM     17  O   UNL     1       1.775   9.491  18.770  0.00  0.00    +0.000 OA
ATOM     18  N   UNL     1       0.476   9.576  20.680  0.00  0.00    +0.000 N 
ATOM     19  H   UNL     1      -0.471   9.798  20.977  0.00  0.00    +0.000 HD
BRANCH  16  20
ATOM     20  C   UNL     1      -0.140  10.888  18.735  0.00  0.00    +0.000 C 
BRANCH  20  21
ATOM     21  C   UNL     1      -1.507  10.221  18.597  0.00  0.00    +0.000 C 
BRANCH  21  22
ATOM     22  C   UNL     1      -2.055  10.216  17.159  0.00  0.00    +0.000 C 
BRANCH  22  23
ATOM     23  N   UNL     1      -3.143  11.188  16.927  0.00  0.00    +0.000 NA
BRANCH  23  25
ATOM     24  C   UNL     1      -2.945  10.067  14.660  0.00  0.00    +0.000 C 
ATOM     25  C   UNL     1      -3.706  11.022  15.572  0.00  0.00    +0.000 C 
ENDBRANCH  23  25
BRANCH  23  26
ATOM     26  C   UNL     1      -4.156  11.129  17.998  0.00  0.00    +0.000 C 
ATOM     27  C   UNL     1      -5.593  11.458  17.600  0.00  0.00    +0.000 C 
ENDBRANCH  23  26
ENDBRANCH  22  23
ENDBRANCH  21  22
ENDBRANCH  20  21
ENDBRANCH  16  20
ENDBRANCH  15  18
ENDBRANCH   1  15
TORSDOF 10
ENDMDL
MODEL 9
REMARK VINA RESULT:      -6.4      4.594      8.011
REMARK  Name = 
REMARK  12 active torsions:
REMARK  status: ('A' for Active; 'I' for Inactive)
REMARK    1  A    between atoms: C_1  and  C_2
REMARK    2  A    between atoms: C_2  and  N_3
REMARK    3  A    between atoms: N_3  and  C_4
REMARK    4  A    between atoms: N_3  and  C_6
REMARK    5  A    between atoms: C_4  and  C_5
REMARK    6  A    between atoms: C_6  and  C_7
REMARK    7  A    between atoms: C_7  and  C_8
REMARK    8  A    between atoms: C_8  and  C_9
REMARK    9  A    between atoms: N_11  and  C_12
REMARK   10  A    between atoms: C_12  and  C_13
REMARK   11  A    between atoms: C_13  and  N_14
REMARK   12  A    between atoms: N_14  and  C_15
REMARK                            x       y       z     vdW  Elec       q    Type
REMARK                         _______ _______ _______ _____ _____    ______ ____
ROOT
ATOM      1  C   UNL     1       1.508   8.609  18.164  0.00  0.00    +0.000 C 
ENDROOT
BRANCH   1   2
ATOM      2  N   UNL     1       1.315   9.996  17.724  0.00  0.00    +0.000 N 
ATOM      3  H   UNL     1       0.980  10.009  16.766  0.00  0.00    +0.000 HD
BRANCH   2   4
ATOM      4  C   UNL     1       0.428  10.749  18.558  0.00  0.00    +0.000 A 
ATOM      5  C   UNL     1       0.930  11.571  19.572  0.00  0.00    +0.000 A 
ATOM      6  C   UNL     1       0.057  12.345  20.315  0.00  0.00    +0.000 A 
ATOM      7  N   UNL     1      -1.265  12.396  20.094  0.00  0.00    +0.000 NA
ATOM      8  C   UNL     1      -1.764  11.649  19.099  0.00  0.00    +0.000 A 
ATOM      9  C   UNL     1      -3.125  11.742  18.875  0.00  0.00    +0.000 A 
ATOM     10  C   UNL     1      -3.745  11.001  17.873  0.00  0.00    +0.000 A 
ATOM     11 CL   UNL     1      -5.438  11.155  17.615  0.00  0.00    +0.000 Cl
ATOM     12  C   UNL     1      -3.001  10.140  17.082  0.00  0.00    +0.000 A 
ATOM     13  C   UNL     1      -1.626  10.039  17.282  0.00  0.00    +0.000 A 
ATOM     14  C   UNL     1      -0.970  10.798  18.289  0.00  0.00    +0.000 A 
ENDBRANCH   2   4
ENDBRANCH   1   2
BRANCH   1  15
ATOM     15  C   UNL     1       2.837   8.011  17.677  0.00  0.00    +0.000 C 
BRANCH  15  18
ATOM     16  C   UNL     1       4.336   6.074  18.142  0.00  0.00    +0.000 C 
ATOM     17  O   UNL     1       4.781   5.990  17.000  0.00  0.00    +0.000 OA
ATOM     18  N   UNL     1       3.382   6.978  18.551  0.00  0.00    +0.000 N 
ATOM     19  H   UNL     1       3.298   7.123  19.554  0.00  0.00    +0.000 HD
BRANCH  16  20
ATOM     20  C   UNL     1       4.873   5.190  19.231  0.00  0.00    +0.000 C 
BRANCH  20  21
ATOM     21  C   UNL     1       4.805   3.734  18.774  0.00  0.00    +0.000 C 
BRANCH  21  22
ATOM     22  C   UNL     1       4.072   2.806  19.757  0.00  0.00    +0.000 C 
BRANCH  22  23
ATOM     23  N   UNL     1       2.770   2.314  19.262  0.00  0.00    +0.000 NA
BRANCH  23  25
ATOM     24  C   UNL     1       2.166   3.233  21.548  0.00  0.00    +0.000 C 
ATOM     25  C   UNL     1       1.710   2.558  20.260  0.00  0.00    +0.000 C 
ENDBRANCH  23  25
BRANCH  23  26
ATOM     26  C   UNL     1       2.459   2.862  17.927  0.00  0.00    +0.000 C 
ATOM     27  C   UNL     1       1.370   3.929  17.861  0.00  0.00    +0.000 C 
ENDBRANCH  23  26
ENDBRANCH  22  23
ENDBRANCH  21  22
ENDBRANCH  20  21
ENDBRANCH  16  20
ENDBRANCH  15  18
ENDBRANCH   1  15
TORSDOF 10
ENDMDL
