MODEL 1
REMARK VINA RESULT:      -8.7      0.000      0.000
REMARK  Name = 
REMARK  6 active torsions:
REMARK  status: ('A' for Active; 'I' for Inactive)
REMARK    1  A    between atoms: C_1  and  N_2
REMARK    2  A    between atoms: C_3  and  C_5
REMARK    3  A    between atoms: C_5  and  N_6
REMARK    4  A    between atoms: N_9  and  C_10
REMARK    5  A    between atoms: N_13  and  C_14
REMARK    6  A    between atoms: C_14  and  C_15
REMARK                            x       y       z     vdW  Elec       q    Type
REMARK                         _______ _______ _______ _____ _____    ______ ____
ROOT
ATOM      1  C   UNL     1      -0.238  11.539  20.674  0.00  0.00    +0.000 C 
ATOM      2  C   UNL     1       1.009  11.979  19.881  0.00  0.00    +0.000 C 
ATOM      3  C   UNL     1       1.408  11.023  18.724  0.00  0.00    +0.000 C 
ATOM      4  N   UNL     1       1.535   9.579  19.104  0.00  0.00    +0.000 NA
ATOM      5  C   UNL     1       0.256   9.185  19.709  0.00  0.00    +0.000 C 
ATOM      6  C   UNL     1      -0.064  10.034  20.967  0.00  0.00    +0.000 C 
ENDROOT
BRANCH   1  10
ATOM      7  N   UNL     1      -3.615  12.713  19.751  0.00  0.00    +0.000 N 
ATOM      8  C   UNL     1      -2.466  12.835  20.540  0.00  0.00    +0.000 A 
ATOM      9  O   UNL     1      -2.365  13.631  21.460  0.00  0.00    +0.000 OA
ATOM     10  N   UNL     1      -1.517  11.909  20.053  0.00  0.00    +0.000 N 
ATOM     11  C   UNL     1      -2.055  11.351  18.859  0.00  0.00    +0.000 A 
ATOM     12  C   UNL     1      -1.514  10.502  17.906  0.00  0.00    +0.000 A 
ATOM     13  C   UNL     1      -2.340  10.098  16.834  0.00  0.00    +0.000 A 
ATOM     14  C   UNL     1      -3.674  10.551  16.731  0.00  0.00    +0.000 A 
ATOM     15  C   UNL     1      -4.190  11.439  17.667  0.00  0.00    +0.000 A 
ATOM     16  C   UNL     1      -3.363  11.832  18.702  0.00  0.00    +0.000 A 
BRANCH   7  17
ATOM     17  C   UNL     1      -4.900  13.231  20.145  0.00  0.00    +0.000 C 
BRANCH  17  20
ATOM     18  C   UNL     1      -7.695  10.766  20.916  0.00  0.00    +0.000 C 
ATOM     19  N   UNL     1      -6.749  11.620  20.247  0.00  0.00    +0.000 N 
ATOM     20  C   UNL     1      -5.747  12.253  20.949  0.00  0.00    +0.000 C 
ATOM     21  O   UNL     1      -5.615  12.140  22.167  0.00  0.00    +0.000 OA
ATOM     22  H   UNL     1      -6.875  11.846  19.260  0.00  0.00    +0.000 HD
ENDBRANCH  17  20
ENDBRANCH   7  17
ENDBRANCH   1  10
BRANCH   4  23
ATOM     23  C   UNL     1       1.984   8.697  17.918  0.00  0.00    +0.000 C 
BRANCH  23  24
ATOM     24  C   UNL     1       2.766   7.379  18.115  0.00  0.00    +0.000 A 
ATOM     25  N   UNL     1       3.910   7.406  17.385  0.00  0.00    +0.000 NA
ATOM     26  C   UNL     1       4.599   6.277  17.234  0.00  0.00    +0.000 A 
ATOM     27  C   UNL     1       4.092   5.045  17.528  0.00  0.00    +0.000 A 
ATOM     28  C   UNL     1       3.123   4.996  18.475  0.00  0.00    +0.000 A 
ATOM     29  C   UNL     1       2.961   3.747  19.097  0.00  0.00    +0.000 A 
ATOM     30  C   UNL     1       2.417   3.649  20.361  0.00  0.00    +0.000 A 
ATOM     31  C   UNL     1       1.958   4.806  20.969  0.00  0.00    +0.000 A 
ATOM     32  C   UNL     1       1.929   6.051  20.258  0.00  0.00    +0.000 A 
ATOM     33  C   UNL     1       2.511   6.198  18.954  0.00  0.00    +0.000 A 
ENDBRANCH  23  24
ENDBRANCH   4  23
TORSDOF 5
ENDMDL
MODEL 2
REMARK VINA RESULT:      -8.6      1.142      1.333
REMARK  Name = 
REMARK  6 active torsions:
REMARK  status: ('A' for Active; 'I' for Inactive)
REMARK    1  A    between atoms: C_1  and  N_2
REMARK    2  A    between atoms: C_3  and  C_5
REMARK    3  A    between atoms: C_5  and  N_6
REMARK    4  A    between atoms: N_9  and  C_10
REMARK    5  A    between atoms: N_13  and  C_14
REMARK    6  A    between atoms: C_14  and  C_15
REMARK                            x       y       z     vdW  Elec       q    Type
REMARK                         _______ _______ _______ _____ _____    ______ ____
ROOT
ATOM      1  C   UNL     1       0.436  11.828  20.462  0.00  0.00    +0.000 C 
ATOM      2  C   UNL     1       1.469  12.020  19.335  0.00  0.00    +0.000 C 
ATOM      3  C   UNL     1       1.561  10.834  18.336  0.00  0.00    +0.000 C 
ATOM      4  N   UNL     1       1.742   9.485  18.963  0.00  0.00    +0.000 NA
ATOM      5  C   UNL     1       0.633   9.304  19.910  0.00  0.00    +0.000 C 
ATOM      6  C   UNL     1       0.640  10.400  21.008  0.00  0.00    +0.000 C 
ENDROOT
BRANCH   1  10
ATOM      7  N   UNL     1      -3.054  12.990  20.137  0.00  0.00    +0.000 N 
ATOM      8  C   UNL     1      -1.761  13.172  20.640  0.00  0.00    +0.000 A 
ATOM      9  O   UNL     1      -1.459  14.073  21.407  0.00  0.00    +0.000 OA
ATOM     10  N   UNL     1      -0.945  12.160  20.086  0.00  0.00    +0.000 N 
ATOM     11  C   UNL     1      -1.731  11.476  19.116  0.00  0.00    +0.000 A 
ATOM     12  C   UNL     1      -1.414  10.496  18.189  0.00  0.00    +0.000 A 
ATOM     13  C   UNL     1      -2.454   9.989  17.380  0.00  0.00    +0.000 A 
ATOM     14  C   UNL     1      -3.777  10.470  17.506  0.00  0.00    +0.000 A 
ATOM     15  C   UNL     1      -4.073  11.485  18.407  0.00  0.00    +0.000 A 
ATOM     16  C   UNL     1      -3.039  11.977  19.182  0.00  0.00    +0.000 A 
BRANCH   7  17
ATOM     17  C   UNL     1      -4.220  13.596  20.726  0.00  0.00    +0.000 C 
BRANCH  17  20
ATOM     18  C   UNL     1      -4.263  12.536  24.380  0.00  0.00    +0.000 C 
ATOM     19  N   UNL     1      -3.986  13.207  23.138  0.00  0.00    +0.000 N 
ATOM     20  C   UNL     1      -4.703  12.913  21.999  0.00  0.00    +0.000 C 
ATOM     21  O   UNL     1      -5.594  12.064  21.974  0.00  0.00    +0.000 OA
ATOM     22  H   UNL     1      -3.185  13.835  23.065  0.00  0.00    +0.000 HD
ENDBRANCH  17  20
ENDBRANCH   7  17
ENDBRANCH   1  10
BRANCH   4  23
ATOM     23  C   UNL     1       1.878   8.361  17.912  0.00  0.00    +0.000 C 
BRANCH  23  24
ATOM     24  C   UNL     1       2.743   7.104  18.148  0.00  0.00    +0.000 A 
ATOM     25  N   UNL     1       3.898   7.195  17.441  0.00  0.00    +0.000 NA
ATOM     26  C   UNL     1       4.665   6.114  17.326  0.00  0.00    +0.000 A 
ATOM     27  C   UNL     1       4.236   4.856  17.633  0.00  0.00    +0.000 A 
ATOM     28  C   UNL     1       3.253   4.757  18.561  0.00  0.00    +0.000 A 
ATOM     29  C   UNL     1       3.163   3.511  19.203  0.00  0.00    +0.000 A 
ATOM     30  C   UNL     1       2.601   3.399  20.459  0.00  0.00    +0.000 A 
ATOM     31  C   UNL     1       2.051   4.532  21.034  0.00  0.00    +0.000 A 
ATOM     32  C   UNL     1       1.953   5.759  20.300  0.00  0.00    +0.000 A 
ATOM     33  C   UNL     1       2.551   5.923  19.005  0.00  0.00    +0.000 A 
ENDBRANCH  23  24
ENDBRANCH   4  23
TORSDOF 5
ENDMDL
MODEL 3
REMARK VINA RESULT:      -8.6      3.280      5.317
REMARK  Name = 
REMARK  6 active torsions:
REMARK  status: ('A' for Active; 'I' for Inactive)
REMARK    1  A    between atoms: C_1  and  N_2
REMARK    2  A    between atoms: C_3  and  C_5
REMARK    3  A    between atoms: C_5  and  N_6
REMARK    4  A    between atoms: N_9  and  C_10
REMARK    5  A    between atoms: N_13  and  C_14
REMARK    6  A    between atoms: C_14  and  C_15
REMARK                            x       y       z     vdW  Elec       q    Type
REMARK                         _______ _______ _______ _____ _____    ______ ____
ROOT
ATOM      1  C   UNL     1      -0.303  10.505  19.714  0.00  0.00    +0.000 C 
ATOM      2  C   UNL     1       0.175   9.325  20.584  0.00  0.00    +0.000 C 
ATOM      3  C   UNL     1       1.505   8.675  20.113  0.00  0.00    +0.000 C 
ATOM      4  N   UNL     1       1.548   8.286  18.667  0.00  0.00    +0.000 NA
ATOM      5  C   UNL     1       1.239   9.495  17.892  0.00  0.00    +0.000 C 
ATOM      6  C   UNL     1      -0.165  10.052  18.246  0.00  0.00    +0.000 C 
ENDROOT
BRANCH   1  10
ATOM      7  N   UNL     1       1.855  13.461  20.205  0.00  0.00    +0.000 N 
ATOM      8  C   UNL     1       1.505  12.329  19.460  0.00  0.00    +0.000 A 
ATOM      9  O   UNL     1       2.140  11.941  18.493  0.00  0.00    +0.000 OA
ATOM     10  N   UNL     1       0.331  11.792  20.032  0.00  0.00    +0.000 N 
ATOM     11  C   UNL     1      -0.109  12.714  21.023  0.00  0.00    +0.000 A 
ATOM     12  C   UNL     1      -1.258  12.766  21.796  0.00  0.00    +0.000 A 
ATOM     13  C   UNL     1      -1.378  13.815  22.734  0.00  0.00    +0.000 A 
ATOM     14  C   UNL     1      -0.361  14.787  22.875  0.00  0.00    +0.000 A 
ATOM     15  C   UNL     1       0.764  14.749  22.062  0.00  0.00    +0.000 A 
ATOM     16  C   UNL     1       0.858  13.722  21.142  0.00  0.00    +0.000 A 
BRANCH   7  17
ATOM     17  C   UNL     1       3.159  14.068  20.151  0.00  0.00    +0.000 C 
BRANCH  17  20
ATOM     18  C   UNL     1       2.335  17.010  17.882  0.00  0.00    +0.000 C 
ATOM     19  N   UNL     1       2.358  16.062  18.964  0.00  0.00    +0.000 N 
ATOM     20  C   UNL     1       3.328  15.086  19.029  0.00  0.00    +0.000 C 
ATOM     21  O   UNL     1       4.202  14.958  18.173  0.00  0.00    +0.000 OA
ATOM     22  H   UNL     1       1.596  16.043  19.642  0.00  0.00    +0.000 HD
ENDBRANCH  17  20
ENDBRANCH   7  17
ENDBRANCH   1  10
BRANCH   4  23
ATOM     23  C   UNL     1       2.877   7.599  18.282  0.00  0.00    +0.000 C 
BRANCH  23  24
ATOM     24  C   UNL     1       3.025   6.063  18.205  0.00  0.00    +0.000 A 
ATOM     25  N   UNL     1       4.102   5.739  17.445  0.00  0.00    +0.000 NA
ATOM     26  C   UNL     1       4.259   4.473  17.065  0.00  0.00    +0.000 A 
ATOM     27  C   UNL     1       3.271   3.537  17.154  0.00  0.00    +0.000 A 
ATOM     28  C   UNL     1       2.335   3.728  18.117  0.00  0.00    +0.000 A 
ATOM     29  C   UNL     1       1.642   2.572  18.511  0.00  0.00    +0.000 A 
ATOM     30  C   UNL     1       1.060   2.485  19.759  0.00  0.00    +0.000 A 
ATOM     31  C   UNL     1       1.105   3.597  20.583  0.00  0.00    +0.000 A 
ATOM     32  C   UNL     1       1.628   4.845  20.109  0.00  0.00    +0.000 A 
ATOM     33  C   UNL     1       2.267   4.968  18.829  0.00  0.00    +0.000 A 
ENDBRANCH  23  24
ENDBRANCH   4  23
TORSDOF 5
ENDMDL
MODEL 4
REMARK VINA RESULT:      -8.6      1.504      1.978
REMARK  Name = 
REMARK  6 active torsions:
REMARK  status: ('A' for Active; 'I' for Inactive)
REMARK    1  A    between atoms: C_1  and  N_2
REMARK    2  A    between atoms: C_3  and  C_5
REMARK    3  A    between atoms: C_5  and  N_6
REMARK    4  A    between atoms: N_9  and  C_10
REMARK    5  A    between atoms: N_13  and  C_14
REMARK    6  A    between atoms: C_14  and  C_15
REMARK                            x       y       z     vdW  Elec       q    Type
REMARK                         _______ _______ _______ _____ _____    ______ ____
ROOT
ATOM      1  C   UNL     1       0.350  12.000  19.362  0.00  0.00    +0.000 C 
ATOM      2  C   UNL     1       0.804  10.917  18.363  0.00  0.00    +0.000 C 
ATOM      3  C   UNL     1       0.746   9.466  18.915  0.00  0.00    +0.000 C 
ATOM      4  N   UNL     1       1.429   9.257  20.232  0.00  0.00    +0.000 NA
ATOM      5  C   UNL     1       0.835  10.213  21.175  0.00  0.00    +0.000 C 
ATOM      6  C   UNL     1       1.039  11.677  20.703  0.00  0.00    +0.000 C 
ENDROOT
BRANCH   1  10
ATOM      7  N   UNL     1      -3.194  12.544  20.242  0.00  0.00    +0.000 N 
ATOM      8  C   UNL     1      -1.837  12.764  20.499  0.00  0.00    +0.000 A 
ATOM      9  O   UNL     1      -1.429  13.368  21.479  0.00  0.00    +0.000 OA
ATOM     10  N   UNL     1      -1.105  12.187  19.438  0.00  0.00    +0.000 N 
ATOM     11  C   UNL     1      -2.051  11.767  18.460  0.00  0.00    +0.000 A 
ATOM     12  C   UNL     1      -1.898  11.262  17.178  0.00  0.00    +0.000 A 
ATOM     13  C   UNL     1      -3.062  10.899  16.466  0.00  0.00    +0.000 A 
ATOM     14  C   UNL     1      -4.344  11.053  17.039  0.00  0.00    +0.000 A 
ATOM     15  C   UNL     1      -4.487  11.603  18.307  0.00  0.00    +0.000 A 
ATOM     16  C   UNL     1      -3.337  11.963  18.983  0.00  0.00    +0.000 A 
BRANCH   7  17
ATOM     17  C   UNL     1      -4.218  12.673  21.246  0.00  0.00    +0.000 C 
BRANCH  17  20
ATOM     18  C   UNL     1      -5.330  16.175  20.252  0.00  0.00    +0.000 C 
ATOM     19  N   UNL     1      -4.939  14.790  20.233  0.00  0.00    +0.000 N 
ATOM     20  C   UNL     1      -4.761  14.088  21.405  0.00  0.00    +0.000 C 
ATOM     21  O   UNL     1      -4.906  14.599  22.515  0.00  0.00    +0.000 OA
ATOM     22  H   UNL     1      -4.691  14.343  19.350  0.00  0.00    +0.000 HD
ENDBRANCH  17  20
ENDBRANCH   7  17
ENDBRANCH   1  10
BRANCH   4  23
ATOM     23  C   UNL     1       1.376   7.783  20.694  0.00  0.00    +0.000 C 
BRANCH  23  24
ATOM     24  C   UNL     1       2.008   6.635  19.876  0.00  0.00    +0.000 A 
ATOM     25  N   UNL     1       3.086   7.093  19.189  0.00  0.00    +0.000 NA
ATOM     26  C   UNL     1       3.621   6.319  18.248  0.00  0.00    +0.000 A 
ATOM     27  C   UNL     1       2.995   5.219  17.738  0.00  0.00    +0.000 A 
ATOM     28  C   UNL     1       2.106   4.594  18.549  0.00  0.00    +0.000 A 
ATOM     29  C   UNL     1       1.847   3.252  18.225  0.00  0.00    +0.000 A 
ATOM     30  C   UNL     1       1.398   2.365  19.183  0.00  0.00    +0.000 A 
ATOM     31  C   UNL     1       1.130   2.851  20.452  0.00  0.00    +0.000 A 
ATOM     32  C   UNL     1       1.193   4.255  20.732  0.00  0.00    +0.000 A 
ATOM     33  C   UNL     1       1.682   5.204  19.772  0.00  0.00    +0.000 A 
ENDBRANCH  23  24
ENDBRANCH   4  23
TORSDOF 5
ENDMDL
MODEL 5
REMARK VINA RESULT:      -8.5      1.686      3.024
REMARK  Name = 
REMARK  6 active torsions:
REMARK  status: ('A' for Active; 'I' for Inactive)
REMARK    1  A    between atoms: C_1  and  N_2
REMARK    2  A    between atoms: C_3  and  C_5
REMARK    3  A    between atoms: C_5  and  N_6
REMARK    4  A    between atoms: N_9  and  C_10
REMARK    5  A    between atoms: N_13  and  C_14
REMARK    6  A    between atoms: C_14  and  C_15
REMARK                            x       y       z     vdW  Elec       q    Type
REMARK                         _______ _______ _______ _____ _____    ______ ____
ROOT
ATOM      1  C   UNL     1       0.011  12.200  19.757  0.00  0.00    +0.000 C 
ATOM      2  C   UNL     1       0.059  11.080  18.698  0.00  0.00    +0.000 C 
ATOM      3  C   UNL     1       0.143   9.644  19.282  0.00  0.00    +0.000 C 
ATOM      4  N   UNL     1       1.228   9.429  20.293  0.00  0.00    +0.000 NA
ATOM      5  C   UNL     1       1.026  10.427  21.352  0.00  0.00    +0.000 C 
ATOM      6  C   UNL     1       1.107  11.872  20.792  0.00  0.00    +0.000 C 
ENDROOT
BRANCH   1  10
ATOM      7  N   UNL     1      -3.558  12.778  20.502  0.00  0.00    +0.000 N 
ATOM      8  C   UNL     1      -2.569  12.189  19.708  0.00  0.00    +0.000 A 
ATOM      9  O   UNL     1      -2.812  11.563  18.688  0.00  0.00    +0.000 OA
ATOM     10  N   UNL     1      -1.323  12.451  20.319  0.00  0.00    +0.000 N 
ATOM     11  C   UNL     1      -1.596  13.060  21.576  0.00  0.00    +0.000 A 
ATOM     12  C   UNL     1      -0.773  13.407  22.636  0.00  0.00    +0.000 A 
ATOM     13  C   UNL     1      -1.363  14.043  23.751  0.00  0.00    +0.000 A 
ATOM     14  C   UNL     1      -2.750  14.310  23.788  0.00  0.00    +0.000 A 
ATOM     15  C   UNL     1      -3.570  13.916  22.739  0.00  0.00    +0.000 A 
ATOM     16  C   UNL     1      -2.977  13.285  21.662  0.00  0.00    +0.000 A 
BRANCH   7  17
ATOM     17  C   UNL     1      -4.899  13.023  20.039  0.00  0.00    +0.000 C 
BRANCH  17  20
ATOM     18  C   UNL     1      -6.974   9.994  19.038  0.00  0.00    +0.000 C 
ATOM     19  N   UNL     1      -6.020  11.071  19.060  0.00  0.00    +0.000 N 
ATOM     20  C   UNL     1      -5.840  11.835  20.192  0.00  0.00    +0.000 C 
ATOM     21  O   UNL     1      -6.485  11.655  21.224  0.00  0.00    +0.000 OA
ATOM     22  H   UNL     1      -5.538  11.344  18.202  0.00  0.00    +0.000 HD
ENDBRANCH  17  20
ENDBRANCH   7  17
ENDBRANCH   1  10
BRANCH   4  23
ATOM     23  C   UNL     1       1.286   7.968  20.792  0.00  0.00    +0.000 C 
BRANCH  23  24
ATOM     24  C   UNL     1       1.946   6.837  19.972  0.00  0.00    +0.000 A 
ATOM     25  N   UNL     1       2.750   7.367  19.015  0.00  0.00    +0.000 NA
ATOM     26  C   UNL     1       3.219   6.569  18.059  0.00  0.00    +0.000 A 
ATOM     27  C   UNL     1       2.727   5.320  17.819  0.00  0.00    +0.000 A 
ATOM     28  C   UNL     1       2.162   4.675  18.869  0.00  0.00    +0.000 A 
ATOM     29  C   UNL     1       2.106   3.277  18.750  0.00  0.00    +0.000 A 
ATOM     30  C   UNL     1       2.044   2.472  19.869  0.00  0.00    +0.000 A 
ATOM     31  C   UNL     1       1.953   3.079  21.110  0.00  0.00    +0.000 A 
ATOM     32  C   UNL     1       1.800   4.500  21.226  0.00  0.00    +0.000 A 
ATOM     33  C   UNL     1       1.889   5.372  20.090  0.00  0.00    +0.000 A 
ENDBRANCH  23  24
ENDBRANCH   4  23
TORSDOF 5
ENDMDL
MODEL 6
REMARK VINA RESULT:      -8.3      1.853      2.754
REMARK  Name = 
REMARK  6 active torsions:
REMARK  status: ('A' for Active; 'I' for Inactive)
REMARK    1  A    between atoms: C_1  and  N_2
REMARK    2  A    between atoms: C_3  and  C_5
REMARK    3  A    between atoms: C_5  and  N_6
REMARK    4  A    between atoms: N_9  and  C_10
REMARK    5  A    between atoms: N_13  and  C_14
REMARK    6  A    between atoms: C_14  and  C_15
REMARK                            x       y       z     vdW  Elec       q    Type
REMARK                         _______ _______ _______ _____ _____    ______ ____
ROOT
ATOM      1  C   UNL     1       0.704  11.017  20.213  0.00  0.00    +0.000 C 
ATOM      2  C   UNL     1       1.711  11.200  19.061  0.00  0.00    +0.000 C 
ATOM      3  C   UNL     1       1.831   9.978  18.109  0.00  0.00    +0.000 C 
ATOM      4  N   UNL     1       2.071   8.663  18.785  0.00  0.00    +0.000 NA
ATOM      5  C   UNL     1       0.985   8.481  19.758  0.00  0.00    +0.000 C 
ATOM      6  C   UNL     1       0.969   9.620  20.811  0.00  0.00    +0.000 C 
ENDROOT
BRANCH   1  10
ATOM      7  N   UNL     1      -2.601  11.522  18.645  0.00  0.00    +0.000 N 
ATOM      8  C   UNL     1      -1.364  10.870  18.675  0.00  0.00    +0.000 A 
ATOM      9  O   UNL     1      -0.998  10.085  17.814  0.00  0.00    +0.000 OA
ATOM     10  N   UNL     1      -0.695  11.283  19.848  0.00  0.00    +0.000 N 
ATOM     11  C   UNL     1      -1.618  12.061  20.602  0.00  0.00    +0.000 A 
ATOM     12  C   UNL     1      -1.550  12.605  21.875  0.00  0.00    +0.000 A 
ATOM     13  C   UNL     1      -2.647  13.372  22.326  0.00  0.00    +0.000 A 
ATOM     14  C   UNL     1      -3.781  13.573  21.509  0.00  0.00    +0.000 A 
ATOM     15  C   UNL     1      -3.857  12.984  20.253  0.00  0.00    +0.000 A 
ATOM     16  C   UNL     1      -2.779  12.227  19.834  0.00  0.00    +0.000 A 
BRANCH   7  17
ATOM     17  C   UNL     1      -3.408  11.627  17.458  0.00  0.00    +0.000 C 
BRANCH  17  20
ATOM     18  C   UNL     1      -7.107  12.509  17.624  0.00  0.00    +0.000 C 
ATOM     19  N   UNL     1      -5.696  12.508  17.338  0.00  0.00    +0.000 N 
ATOM     20  C   UNL     1      -4.901  11.443  17.700  0.00  0.00    +0.000 C 
ATOM     21  O   UNL     1      -5.339  10.458  18.294  0.00  0.00    +0.000 OA
ATOM     22  H   UNL     1      -5.254  13.342  16.952  0.00  0.00    +0.000 HD
ENDBRANCH  17  20
ENDBRANCH   7  17
ENDBRANCH   1  10
BRANCH   4  23
ATOM     23  C   UNL     1       2.231   7.504  17.777  0.00  0.00    +0.000 C 
BRANCH  23  24
ATOM     24  C   UNL     1       2.843   6.142  18.170  0.00  0.00    +0.000 A 
ATOM     25  N   UNL     1       4.124   6.064  17.727  0.00  0.00    +0.000 NA
ATOM     26  C   UNL     1       4.742   4.886  17.758  0.00  0.00    +0.000 A 
ATOM     27  C   UNL     1       4.088   3.703  17.943  0.00  0.00    +0.000 A 
ATOM     28  C   UNL     1       2.925   3.752  18.639  0.00  0.00    +0.000 A 
ATOM     29  C   UNL     1       2.530   2.538  19.224  0.00  0.00    +0.000 A 
ATOM     30  C   UNL     1       1.702   2.520  20.329  0.00  0.00    +0.000 A 
ATOM     31  C   UNL     1       1.203   3.725  20.794  0.00  0.00    +0.000 A 
ATOM     32  C   UNL     1       1.434   4.945  20.078  0.00  0.00    +0.000 A 
ATOM     33  C   UNL     1       2.312   5.009  18.944  0.00  0.00    +0.000 A 
ENDBRANCH  23  24
ENDBRANCH   4  23
TORSDOF 5
ENDMDL
MODEL 7
REMARK VINA RESULT:      -8.2      2.857      3.985
REMARK  Name = 
REMARK  6 active torsions:
REMARK  status: ('A' for Active; 'I' for Inactive)
REMARK    1  A    between atoms: C_1  and  N_2
REMARK    2  A    between atoms: C_3  and  C_5
REMARK    3  A    between atoms: C_5  and  N_6
REMARK    4  A    between atoms: N_9  and  C_10
REMARK    5  A    between atoms: N_13  and  C_14
REMARK    6  A    between atoms: C_14  and  C_15
REMARK                            x       y       z     vdW  Elec       q    Type
REMARK                         _______ _______ _______ _____ _____    ______ ____
ROOT
ATOM      1  C   UNL     1      -0.355  10.513  20.138  0.00  0.00    +0.000 C 
ATOM      2  C   UNL     1       0.180   9.278  20.890  0.00  0.00    +0.000 C 
ATOM      3  C   UNL     1       1.484   8.677  20.297  0.00  0.00    +0.000 C 
ATOM      4  N   UNL     1       1.444   8.395  18.826  0.00  0.00    +0.000 NA
ATOM      5  C   UNL     1       1.084   9.654  18.161  0.00  0.00    +0.000 C 
ATOM      6  C   UNL     1      -0.300  10.170  18.635  0.00  0.00    +0.000 C 
ENDROOT
BRANCH   1  10
ATOM      7  N   UNL     1       0.716  13.766  21.517  0.00  0.00    +0.000 N 
ATOM      8  C   UNL     1       0.053  12.545  21.677  0.00  0.00    +0.000 A 
ATOM      9  O   UNL     1      -0.585  12.253  22.676  0.00  0.00    +0.000 OA
ATOM     10  N   UNL     1       0.288  11.780  20.512  0.00  0.00    +0.000 N 
ATOM     11  C   UNL     1       1.238  12.495  19.729  0.00  0.00    +0.000 A 
ATOM     12  C   UNL     1       1.920  12.164  18.569  0.00  0.00    +0.000 A 
ATOM     13  C   UNL     1       2.785  13.131  18.011  0.00  0.00    +0.000 A 
ATOM     14  C   UNL     1       2.956  14.394  18.621  0.00  0.00    +0.000 A 
ATOM     15  C   UNL     1       2.301  14.696  19.808  0.00  0.00    +0.000 A 
ATOM     16  C   UNL     1       1.469  13.733  20.345  0.00  0.00    +0.000 A 
BRANCH   7  17
ATOM     17  C   UNL     1       0.435  14.926  22.321  0.00  0.00    +0.000 C 
BRANCH  17  20
ATOM     18  C   UNL     1      -3.289  15.710  22.364  0.00  0.00    +0.000 C 
ATOM     19  N   UNL     1      -1.976  15.214  22.682  0.00  0.00    +0.000 N 
ATOM     20  C   UNL     1      -0.872  15.627  21.970  0.00  0.00    +0.000 C 
ATOM     21  O   UNL     1      -0.944  16.415  21.027  0.00  0.00    +0.000 OA
ATOM     22  H   UNL     1      -1.865  14.474  23.375  0.00  0.00    +0.000 HD
ENDBRANCH  17  20
ENDBRANCH   7  17
ENDBRANCH   1  10
BRANCH   4  23
ATOM     23  C   UNL     1       2.753   7.751  18.316  0.00  0.00    +0.000 C 
BRANCH  23  24
ATOM     24  C   UNL     1       2.947   6.221  18.231  0.00  0.00    +0.000 A 
ATOM     25  N   UNL     1       4.026   5.933  17.459  0.00  0.00    +0.000 NA
ATOM     26  C   UNL     1       4.218   4.674  17.072  0.00  0.00    +0.000 A 
ATOM     27  C   UNL     1       3.259   3.708  17.165  0.00  0.00    +0.000 A 
ATOM     28  C   UNL     1       2.326   3.867  18.136  0.00  0.00    +0.000 A 
ATOM     29  C   UNL     1       1.671   2.689  18.530  0.00  0.00    +0.000 A 
ATOM     30  C   UNL     1       1.102   2.579  19.783  0.00  0.00    +0.000 A 
ATOM     31  C   UNL     1       1.121   3.688  20.612  0.00  0.00    +0.000 A 
ATOM     32  C   UNL     1       1.603   4.953  20.139  0.00  0.00    +0.000 A 
ATOM     33  C   UNL     1       2.227   5.100  18.855  0.00  0.00    +0.000 A 
ENDBRANCH  23  24
ENDBRANCH   4  23
TORSDOF 5
ENDMDL
MODEL 8
REMARK VINA RESULT:      -8.2      2.067      3.459
REMARK  Name = 
REMARK  6 active torsions:
REMARK  status: ('A' for Active; 'I' for Inactive)
REMARK    1  A    between atoms: C_1  and  N_2
REMARK    2  A    between atoms: C_3  and  C_5
REMARK    3  A    between atoms: C_5  and  N_6
REMARK    4  A    between atoms: N_9  and  C_10
REMARK    5  A    between atoms: N_13  and  C_14
REMARK    6  A    between atoms: C_14  and  C_15
REMARK                            x       y       z     vdW  Elec       q    Type
REMARK                         _______ _______ _______ _____ _____    ______ ____
ROOT
ATOM      1  C   UNL     1       1.005  10.930  19.556  0.00  0.00    +0.000 C 
ATOM      2  C   UNL     1       1.720  10.144  18.440  0.00  0.00    +0.000 C 
ATOM      3  C   UNL     1       1.586   8.600  18.550  0.00  0.00    +0.000 C 
ATOM      4  N   UNL     1       1.946   8.023  19.885  0.00  0.00    +0.000 NA
ATOM      5  C   UNL     1       1.113   8.706  20.883  0.00  0.00    +0.000 C 
ATOM      6  C   UNL     1       1.370  10.236  20.885  0.00  0.00    +0.000 C 
ENDROOT
BRANCH   1  10
ATOM      7  N   UNL     1      -2.458  11.291  18.327  0.00  0.00    +0.000 N 
ATOM      8  C   UNL     1      -1.196  10.697  18.227  0.00  0.00    +0.000 A 
ATOM      9  O   UNL     1      -0.881   9.937  17.325  0.00  0.00    +0.000 OA
ATOM     10  N   UNL     1      -0.433  11.133  19.334  0.00  0.00    +0.000 N 
ATOM     11  C   UNL     1      -1.313  11.861  20.184  0.00  0.00    +0.000 A 
ATOM     12  C   UNL     1      -1.145  12.399  21.450  0.00  0.00    +0.000 A 
ATOM     13  C   UNL     1      -2.225  13.110  22.016  0.00  0.00    +0.000 A 
ATOM     14  C   UNL     1      -3.443  13.263  21.317  0.00  0.00    +0.000 A 
ATOM     15  C   UNL     1      -3.615  12.680  20.068  0.00  0.00    +0.000 A 
ATOM     16  C   UNL     1      -2.550  11.978  19.535  0.00  0.00    +0.000 A 
BRANCH   7  17
ATOM     17  C   UNL     1      -3.383  11.366  17.226  0.00  0.00    +0.000 C 
BRANCH  17  20
ATOM     18  C   UNL     1      -7.004  12.412  17.753  0.00  0.00    +0.000 C 
ATOM     19  N   UNL     1      -5.634  12.341  17.318  0.00  0.00    +0.000 N 
ATOM     20  C   UNL     1      -4.847  11.254  17.632  0.00  0.00    +0.000 C 
ATOM     21  O   UNL     1      -5.257  10.308  18.304  0.00  0.00    +0.000 OA
ATOM     22  H   UNL     1      -5.203  13.143  16.858  0.00  0.00    +0.000 HD
ENDBRANCH  17  20
ENDBRANCH   7  17
ENDBRANCH   1  10
BRANCH   4  23
ATOM     23  C   UNL     1       1.839   6.482  19.906  0.00  0.00    +0.000 C 
BRANCH  23  24
ATOM     24  C   UNL     1       2.334   5.600  18.738  0.00  0.00    +0.000 A 
ATOM     25  N   UNL     1       1.444   4.603  18.499  0.00  0.00    +0.000 NA
ATOM     26  C   UNL     1       1.801   3.605  17.695  0.00  0.00    +0.000 A 
ATOM     27  C   UNL     1       3.091   3.373  17.318  0.00  0.00    +0.000 A 
ATOM     28  C   UNL     1       3.921   4.445  17.294  0.00  0.00    +0.000 A 
ATOM     29  C   UNL     1       5.053   4.303  16.476  0.00  0.00    +0.000 A 
ATOM     30  C   UNL     1       5.695   5.408  15.954  0.00  0.00    +0.000 A 
ATOM     31  C   UNL     1       5.244   6.664  16.326  0.00  0.00    +0.000 A 
ATOM     32  C   UNL     1       4.224   6.816  17.322  0.00  0.00    +0.000 A 
ATOM     33  C   UNL     1       3.515   5.693  17.865  0.00  0.00    +0.000 A 
ENDBRANCH  23  24
ENDBRANCH   4  23
TORSDOF 5
ENDMDL
MODEL 9
REMARK VINA RESULT:      -8.2      1.597      2.682
REMARK  Name = 
REMARK  6 active torsions:
REMARK  status: ('A' for Active; 'I' for Inactive)
REMARK    1  A    between atoms: C_1  and  N_2
REMARK    2  A    between atoms: C_3  and  C_5
REMARK    3  A    between atoms: C_5  and  N_6
REMARK    4  A    between atoms: N_9  and  C_10
REMARK    5  A    between atoms: N_13  and  C_14
REMARK    6  A    between atoms: C_14  and  C_15
REMARK                            x       y       z     vdW  Elec       q    Type
REMARK                         _______ _______ _______ _____ _____    ______ ____
ROOT
ATOM      1  C   UNL     1       0.184  11.965  19.483  0.00  0.00    +0.000 C 
ATOM      2  C   UNL     1       0.629  10.832  18.537  0.00  0.00    +0.000 C 
ATOM      3  C   UNL     1       0.548   9.409  19.153  0.00  0.00    +0.000 C 
ATOM      4  N   UNL     1       1.222   9.250  20.482  0.00  0.00    +0.000 NA
ATOM      5  C   UNL     1       0.636  10.255  21.378  0.00  0.00    +0.000 C 
ATOM      6  C   UNL     1       0.862  11.693  20.842  0.00  0.00    +0.000 C 
ENDROOT
BRANCH   1  10
ATOM      7  N   UNL     1      -3.364  12.548  20.323  0.00  0.00    +0.000 N 
ATOM      8  C   UNL     1      -2.007  12.741  20.605  0.00  0.00    +0.000 A 
ATOM      9  O   UNL     1      -1.605  13.317  21.603  0.00  0.00    +0.000 OA
ATOM     10  N   UNL     1      -1.269  12.174  19.542  0.00  0.00    +0.000 N 
ATOM     11  C   UNL     1      -2.207  11.790  18.543  0.00  0.00    +0.000 A 
ATOM     12  C   UNL     1      -2.043  11.311  17.252  0.00  0.00    +0.000 A 
ATOM     13  C   UNL     1      -3.202  10.982  16.516  0.00  0.00    +0.000 A 
ATOM     14  C   UNL     1      -4.490  11.145  17.074  0.00  0.00    +0.000 A 
ATOM     15  C   UNL     1      -4.643  11.670  18.351  0.00  0.00    +0.000 A 
ATOM     16  C   UNL     1      -3.497  11.996  19.051  0.00  0.00    +0.000 A 
BRANCH   7  17
ATOM     17  C   UNL     1      -4.400  12.673  21.315  0.00  0.00    +0.000 C 
BRANCH  17  20
ATOM     18  C   UNL     1      -4.752  16.136  22.853  0.00  0.00    +0.000 C 
ATOM     19  N   UNL     1      -4.283  14.825  22.491  0.00  0.00    +0.000 N 
ATOM     20  C   UNL     1      -4.913  14.095  21.507  0.00  0.00    +0.000 C 
ATOM     21  O   UNL     1      -5.904  14.506  20.904  0.00  0.00    +0.000 OA
ATOM     22  H   UNL     1      -3.540  14.381  23.031  0.00  0.00    +0.000 HD
ENDBRANCH  17  20
ENDBRANCH   7  17
ENDBRANCH   1  10
BRANCH   4  23
ATOM     23  C   UNL     1       1.147   7.799  21.008  0.00  0.00    +0.000 C 
BRANCH  23  24
ATOM     24  C   UNL     1       1.885   6.629  20.322  0.00  0.00    +0.000 A 
ATOM     25  N   UNL     1       1.409   5.445  20.784  0.00  0.00    +0.000 NA
ATOM     26  C   UNL     1       2.073   4.329  20.494  0.00  0.00    +0.000 A 
ATOM     27  C   UNL     1       3.346   4.324  20.001  0.00  0.00    +0.000 A 
ATOM     28  C   UNL     1       3.729   5.414  19.292  0.00  0.00    +0.000 A 
ATOM     29  C   UNL     1       4.805   5.205  18.414  0.00  0.00    +0.000 A 
ATOM     30  C   UNL     1       4.983   6.008  17.306  0.00  0.00    +0.000 A 
ATOM     31  C   UNL     1       4.122   7.077  17.126  0.00  0.00    +0.000 A 
ATOM     32  C   UNL     1       3.153   7.420  18.125  0.00  0.00    +0.000 A 
ATOM     33  C   UNL     1       2.919   6.594  19.276  0.00  0.00    +0.000 A 
ENDBRANCH  23  24
ENDBRANCH   4  23
TORSDOF 5
ENDMDL
