MODEL 1
REMARK VINA RESULT:      -7.1      0.000      0.000
REMARK  Name = 
REMARK  5 active torsions:
REMARK  status: ('A' for Active; 'I' for Inactive)
REMARK    1  A    between atoms: C_1  and  C_2
REMARK    2  A    between atoms: C_6  and  N_7
REMARK    3  A    between atoms: C_8  and  O_10
REMARK    4  A    between atoms: O_10  and  C_11
REMARK    5  A    between atoms: C_11  and  C_12
REMARK                            x       y       z     vdW  Elec       q    Type
REMARK                         _______ _______ _______ _____ _____    ______ ____
ROOT
ATOM      1  N   UNL     1       4.865   3.999  16.604  0.00  0.00    +0.000 N 
ATOM      2  C   UNL     1       3.601   4.264  17.027  0.00  0.00    +0.000 C 
ATOM      3  O   UNL     1       3.258   5.358  17.461  0.00  0.00    +0.000 OA
ATOM      4  H   UNL     1       5.014   3.080  16.205  0.00  0.00    +0.000 HD
ENDROOT
BRANCH   1  10
ATOM      5  C   UNL     1       6.502   4.368  14.116  0.00  0.00    +0.000 C 
ATOM      6  C   UNL     1       6.839   5.124  15.385  0.00  0.00    +0.000 C 
ATOM      7  O   UNL     1       7.911   4.476  16.134  0.00  0.00    +0.000 OA
ATOM      8  C   UNL     1       7.252   4.630  17.316  0.00  0.00    +0.000 C 
ATOM      9  O   UNL     1       7.652   4.417  18.437  0.00  0.00    +0.000 OA
ATOM     10  C   UNL     1       5.919   5.039  16.622  0.00  0.00    +0.000 C 
ENDBRANCH   1  10
BRANCH   2  11
ATOM     11  O   UNL     1       2.814   3.179  16.879  0.00  0.00    +0.000 OA
BRANCH  11  12
ATOM     12  C   UNL     1       3.100   2.121  17.800  0.00  0.00    +0.000 C 
BRANCH  12  13
ATOM     13  C   UNL     1       2.539   2.471  19.154  0.00  0.00    +0.000 A 
ATOM     14  C   UNL     1       3.327   2.375  20.308  0.00  0.00    +0.000 A 
ATOM     15  C   UNL     1       2.779   2.654  21.561  0.00  0.00    +0.000 A 
ATOM     16  C   UNL     1       1.442   3.033  21.671  0.00  0.00    +0.000 A 
ATOM     17  C   UNL     1       0.656   3.152  20.527  0.00  0.00    +0.000 A 
ATOM     18  C   UNL     1       1.199   2.871  19.273  0.00  0.00    +0.000 A 
ENDBRANCH  12  13
ENDBRANCH  11  12
ENDBRANCH   2  11
TORSDOF 4
ENDMDL
MODEL 2
REMARK VINA RESULT:      -7.0      1.554      1.933
REMARK  Name = 
REMARK  5 active torsions:
REMARK  status: ('A' for Active; 'I' for Inactive)
REMARK    1  A    between atoms: C_1  and  C_2
REMARK    2  A    between atoms: C_6  and  N_7
REMARK    3  A    between atoms: C_8  and  O_10
REMARK    4  A    between atoms: O_10  and  C_11
REMARK    5  A    between atoms: C_11  and  C_12
REMARK                            x       y       z     vdW  Elec       q    Type
REMARK                         _______ _______ _______ _____ _____    ______ ____
ROOT
ATOM      1  N   UNL     1       5.147   5.467  17.552  0.00  0.00    +0.000 N 
ATOM      2  C   UNL     1       4.158   6.392  17.440  0.00  0.00    +0.000 C 
ATOM      3  O   UNL     1       4.361   7.546  17.080  0.00  0.00    +0.000 OA
ATOM      4  H   UNL     1       4.850   4.530  17.795  0.00  0.00    +0.000 HD
ENDROOT
BRANCH   1  10
ATOM      5  C   UNL     1       6.345   4.166  15.128  0.00  0.00    +0.000 C 
ATOM      6  C   UNL     1       7.194   5.016  16.050  0.00  0.00    +0.000 C 
ATOM      7  O   UNL     1       7.944   4.201  17.002  0.00  0.00    +0.000 OA
ATOM      8  C   UNL     1       7.632   5.028  18.038  0.00  0.00    +0.000 C 
ATOM      9  O   UNL     1       8.060   5.016  19.169  0.00  0.00    +0.000 OA
ATOM     10  C   UNL     1       6.552   5.795  17.218  0.00  0.00    +0.000 C 
ENDBRANCH   1  10
BRANCH   2  11
ATOM     11  O   UNL     1       2.964   5.852  17.758  0.00  0.00    +0.000 OA
BRANCH  11  12
ATOM     12  C   UNL     1       2.520   6.158  19.085  0.00  0.00    +0.000 C 
BRANCH  12  13
ATOM     13  C   UNL     1       2.077   4.891  19.769  0.00  0.00    +0.000 A 
ATOM     14  C   UNL     1       2.405   4.642  21.108  0.00  0.00    +0.000 A 
ATOM     15  C   UNL     1       2.033   3.442  21.713  0.00  0.00    +0.000 A 
ATOM     16  C   UNL     1       1.329   2.482  20.989  0.00  0.00    +0.000 A 
ATOM     17  C   UNL     1       0.979   2.729  19.663  0.00  0.00    +0.000 A 
ATOM     18  C   UNL     1       1.352   3.927  19.053  0.00  0.00    +0.000 A 
ENDBRANCH  12  13
ENDBRANCH  11  12
ENDBRANCH   2  11
TORSDOF 4
ENDMDL
MODEL 3
REMARK VINA RESULT:      -6.9      0.574      1.282
REMARK  Name = 
REMARK  5 active torsions:
REMARK  status: ('A' for Active; 'I' for Inactive)
REMARK    1  A    between atoms: C_1  and  C_2
REMARK    2  A    between atoms: C_6  and  N_7
REMARK    3  A    between atoms: C_8  and  O_10
REMARK    4  A    between atoms: O_10  and  C_11
REMARK    5  A    between atoms: C_11  and  C_12
REMARK                            x       y       z     vdW  Elec       q    Type
REMARK                         _______ _______ _______ _____ _____    ______ ____
ROOT
ATOM      1  N   UNL     1       5.135   3.467  17.002  0.00  0.00    +0.000 N 
ATOM      2  C   UNL     1       3.778   3.496  17.080  0.00  0.00    +0.000 C 
ATOM      3  O   UNL     1       3.134   4.538  17.102  0.00  0.00    +0.000 OA
ATOM      4  H   UNL     1       5.553   2.548  16.925  0.00  0.00    +0.000 HD
ENDROOT
BRANCH   1  10
ATOM      5  C   UNL     1       6.287   4.207  14.333  0.00  0.00    +0.000 C 
ATOM      6  C   UNL     1       6.627   5.008  15.572  0.00  0.00    +0.000 C 
ATOM      7  O   UNL     1       7.909   4.605  16.144  0.00  0.00    +0.000 OA
ATOM      8  C   UNL     1       7.405   4.600  17.409  0.00  0.00    +0.000 C 
ATOM      9  O   UNL     1       7.994   4.471  18.457  0.00  0.00    +0.000 OA
ATOM     10  C   UNL     1       5.930   4.712  16.918  0.00  0.00    +0.000 C 
ENDBRANCH   1  10
BRANCH   2  11
ATOM     11  O   UNL     1       3.277   2.245  17.106  0.00  0.00    +0.000 OA
BRANCH  11  12
ATOM     12  C   UNL     1       3.526   1.542  18.328  0.00  0.00    +0.000 C 
BRANCH  12  13
ATOM     13  C   UNL     1       2.705   2.153  19.433  0.00  0.00    +0.000 A 
ATOM     14  C   UNL     1       1.339   2.410  19.260  0.00  0.00    +0.000 A 
ATOM     15  C   UNL     1       0.603   3.024  20.274  0.00  0.00    +0.000 A 
ATOM     16  C   UNL     1       1.223   3.384  21.469  0.00  0.00    +0.000 A 
ATOM     17  C   UNL     1       2.576   3.113  21.660  0.00  0.00    +0.000 A 
ATOM     18  C   UNL     1       3.316   2.502  20.647  0.00  0.00    +0.000 A 
ENDBRANCH  12  13
ENDBRANCH  11  12
ENDBRANCH   2  11
TORSDOF 4
ENDMDL
MODEL 4
REMARK VINA RESULT:      -6.9      0.971      1.153
REMARK  Name = 
REMARK  5 active torsions:
REMARK  status: ('A' for Active; 'I' for Inactive)
REMARK    1  A    between atoms: C_1  and  C_2
REMARK    2  A    between atoms: C_6  and  N_7
REMARK    3  A    between atoms: C_8  and  O_10
REMARK    4  A    between atoms: O_10  and  C_11
REMARK    5  A    between atoms: C_11  and  C_12
REMARK                            x       y       z     vdW  Elec       q    Type
REMARK                         _______ _______ _______ _____ _____    ______ ____
ROOT
ATOM      1  N   UNL     1       4.931   5.206  16.981  0.00  0.00    +0.000 N 
ATOM      2  C   UNL     1       3.964   6.032  17.462  0.00  0.00    +0.000 C 
ATOM      3  O   UNL     1       4.169   7.206  17.747  0.00  0.00    +0.000 OA
ATOM      4  H   UNL     1       4.627   4.277  16.719  0.00  0.00    +0.000 HD
ENDROOT
BRANCH   1  10
ATOM      5  C   UNL     1       6.368   4.196  14.549  0.00  0.00    +0.000 C 
ATOM      6  C   UNL     1       7.083   5.057  15.570  0.00  0.00    +0.000 C 
ATOM      7  O   UNL     1       7.862   4.253  16.507  0.00  0.00    +0.000 OA
ATOM      8  C   UNL     1       7.419   4.972  17.576  0.00  0.00    +0.000 C 
ATOM      9  O   UNL     1       7.790   4.923  18.726  0.00  0.00    +0.000 OA
ATOM     10  C   UNL     1       6.311   5.688  16.748  0.00  0.00    +0.000 C 
ENDBRANCH   1  10
BRANCH   2  11
ATOM     11  O   UNL     1       2.786   5.382  17.551  0.00  0.00    +0.000 OA
BRANCH  11  12
ATOM     12  C   UNL     1       2.911   3.959  17.659  0.00  0.00    +0.000 C 
BRANCH  12  13
ATOM     13  C   UNL     1       2.522   3.528  19.049  0.00  0.00    +0.000 A 
ATOM     14  C   UNL     1       3.480   3.045  19.950  0.00  0.00    +0.000 A 
ATOM     15  C   UNL     1       3.097   2.601  21.216  0.00  0.00    +0.000 A 
ATOM     16  C   UNL     1       1.756   2.637  21.594  0.00  0.00    +0.000 A 
ATOM     17  C   UNL     1       0.798   3.135  20.713  0.00  0.00    +0.000 A 
ATOM     18  C   UNL     1       1.177   3.577  19.445  0.00  0.00    +0.000 A 
ENDBRANCH  12  13
ENDBRANCH  11  12
ENDBRANCH   2  11
TORSDOF 4
ENDMDL
MODEL 5
REMARK VINA RESULT:      -6.9      1.694      1.870
REMARK  Name = 
REMARK  5 active torsions:
REMARK  status: ('A' for Active; 'I' for Inactive)
REMARK    1  A    between atoms: C_1  and  C_2
REMARK    2  A    between atoms: C_6  and  N_7
REMARK    3  A    between atoms: C_8  and  O_10
REMARK    4  A    between atoms: O_10  and  C_11
REMARK    5  A    between atoms: C_11  and  C_12
REMARK                            x       y       z     vdW  Elec       q    Type
REMARK                         _______ _______ _______ _____ _____    ______ ____
ROOT
ATOM      1  N   UNL     1       5.727   4.293  17.725  0.00  0.00    +0.000 N 
ATOM      2  C   UNL     1       5.350   4.398  19.027  0.00  0.00    +0.000 C 
ATOM      3  O   UNL     1       5.005   5.457  19.538  0.00  0.00    +0.000 OA
ATOM      4  H   UNL     1       5.927   3.356  17.398  0.00  0.00    +0.000 HD
ENDROOT
BRANCH   1  10
ATOM      5  C   UNL     1       6.221   3.810  14.805  0.00  0.00    +0.000 C 
ATOM      6  C   UNL     1       6.114   5.220  15.350  0.00  0.00    +0.000 C 
ATOM      7  O   UNL     1       7.427   5.809  15.594  0.00  0.00    +0.000 OA
ATOM      8  C   UNL     1       7.042   6.300  16.804  0.00  0.00    +0.000 C 
ATOM      9  O   UNL     1       7.639   7.052  17.539  0.00  0.00    +0.000 OA
ATOM     10  C   UNL     1       5.725   5.468  16.824  0.00  0.00    +0.000 C 
ENDBRANCH   1  10
BRANCH   2  11
ATOM     11  O   UNL     1       5.395   3.194  19.633  0.00  0.00    +0.000 OA
BRANCH  11  12
ATOM     12  C   UNL     1       4.484   2.233  19.089  0.00  0.00    +0.000 C 
BRANCH  12  13
ATOM     13  C   UNL     1       3.079   2.584  19.505  0.00  0.00    +0.000 A 
ATOM     14  C   UNL     1       2.753   2.776  20.853  0.00  0.00    +0.000 A 
ATOM     15  C   UNL     1       1.437   3.050  21.228  0.00  0.00    +0.000 A 
ATOM     16  C   UNL     1       0.438   3.137  20.260  0.00  0.00    +0.000 A 
ATOM     17  C   UNL     1       0.756   2.968  18.914  0.00  0.00    +0.000 A 
ATOM     18  C   UNL     1       2.070   2.691  18.536  0.00  0.00    +0.000 A 
ENDBRANCH  12  13
ENDBRANCH  11  12
ENDBRANCH   2  11
TORSDOF 4
ENDMDL
MODEL 6
REMARK VINA RESULT:      -6.8      1.832      2.481
REMARK  Name = 
REMARK  5 active torsions:
REMARK  status: ('A' for Active; 'I' for Inactive)
REMARK    1  A    between atoms: C_1  and  C_2
REMARK    2  A    between atoms: C_6  and  N_7
REMARK    3  A    between atoms: C_8  and  O_10
REMARK    4  A    between atoms: O_10  and  C_11
REMARK    5  A    between atoms: C_11  and  C_12
REMARK                            x       y       z     vdW  Elec       q    Type
REMARK                         _______ _______ _______ _____ _____    ______ ____
ROOT
ATOM      1  N   UNL     1       5.467   6.088  17.798  0.00  0.00    +0.000 N 
ATOM      2  C   UNL     1       4.596   6.680  16.938  0.00  0.00    +0.000 C 
ATOM      3  O   UNL     1       4.942   7.168  15.868  0.00  0.00    +0.000 OA
ATOM      4  H   UNL     1       5.055   5.662  18.619  0.00  0.00    +0.000 HD
ENDROOT
BRANCH   1  10
ATOM      5  C   UNL     1       6.313   3.933  15.889  0.00  0.00    +0.000 C 
ATOM      6  C   UNL     1       7.343   4.781  16.606  0.00  0.00    +0.000 C 
ATOM      7  O   UNL     1       7.875   4.107  17.786  0.00  0.00    +0.000 OA
ATOM      8  C   UNL     1       7.772   5.234  18.544  0.00  0.00    +0.000 C 
ATOM      9  O   UNL     1       8.186   5.433  19.663  0.00  0.00    +0.000 OA
ATOM     10  C   UNL     1       6.909   5.977  17.481  0.00  0.00    +0.000 C 
ENDBRANCH   1  10
BRANCH   2  11
ATOM     11  O   UNL     1       3.339   6.626  17.423  0.00  0.00    +0.000 OA
BRANCH  11  12
ATOM     12  C   UNL     1       3.268   6.392  18.834  0.00  0.00    +0.000 C 
BRANCH  12  13
ATOM     13  C   UNL     1       2.381   5.204  19.100  0.00  0.00    +0.000 A 
ATOM     14  C   UNL     1       1.891   4.943  20.385  0.00  0.00    +0.000 A 
ATOM     15  C   UNL     1       1.113   3.810  20.626  0.00  0.00    +0.000 A 
ATOM     16  C   UNL     1       0.816   2.930  19.587  0.00  0.00    +0.000 A 
ATOM     17  C   UNL     1       1.281   3.192  18.300  0.00  0.00    +0.000 A 
ATOM     18  C   UNL     1       2.062   4.323  18.055  0.00  0.00    +0.000 A 
ENDBRANCH  12  13
ENDBRANCH  11  12
ENDBRANCH   2  11
TORSDOF 4
ENDMDL
MODEL 7
REMARK VINA RESULT:      -6.8      1.884      2.706
REMARK  Name = 
REMARK  5 active torsions:
REMARK  status: ('A' for Active; 'I' for Inactive)
REMARK    1  A    between atoms: C_1  and  C_2
REMARK    2  A    between atoms: C_6  and  N_7
REMARK    3  A    between atoms: C_8  and  O_10
REMARK    4  A    between atoms: O_10  and  C_11
REMARK    5  A    between atoms: C_11  and  C_12
REMARK                            x       y       z     vdW  Elec       q    Type
REMARK                         _______ _______ _______ _____ _____    ______ ____
ROOT
ATOM      1  N   UNL     1       4.975   5.691  17.508  0.00  0.00    +0.000 N 
ATOM      2  C   UNL     1       4.562   5.777  18.800  0.00  0.00    +0.000 C 
ATOM      3  O   UNL     1       5.180   5.279  19.733  0.00  0.00    +0.000 OA
ATOM      4  H   UNL     1       4.417   6.197  16.832  0.00  0.00    +0.000 HD
ENDROOT
BRANCH   1  10
ATOM      5  C   UNL     1       7.510   7.295  17.512  0.00  0.00    +0.000 C 
ATOM      6  C   UNL     1       7.500   5.863  17.020  0.00  0.00    +0.000 C 
ATOM      7  O   UNL     1       7.412   5.789  15.565  0.00  0.00    +0.000 OA
ATOM      8  C   UNL     1       6.472   4.805  15.617  0.00  0.00    +0.000 C 
ATOM      9  O   UNL     1       6.018   4.144  14.712  0.00  0.00    +0.000 OA
ATOM     10  C   UNL     1       6.229   4.995  17.144  0.00  0.00    +0.000 C 
ENDBRANCH   1  10
BRANCH   2  11
ATOM     11  O   UNL     1       3.419   6.489  18.887  0.00  0.00    +0.000 OA
BRANCH  11  12
ATOM     12  C   UNL     1       2.332   5.940  18.134  0.00  0.00    +0.000 C 
BRANCH  12  13
ATOM     13  C   UNL     1       1.837   4.688  18.811  0.00  0.00    +0.000 A 
ATOM     14  C   UNL     1       1.594   4.660  20.189  0.00  0.00    +0.000 A 
ATOM     15  C   UNL     1       1.185   3.479  20.810  0.00  0.00    +0.000 A 
ATOM     16  C   UNL     1       1.015   2.317  20.060  0.00  0.00    +0.000 A 
ATOM     17  C   UNL     1       1.234   2.339  18.684  0.00  0.00    +0.000 A 
ATOM     18  C   UNL     1       1.645   3.518  18.060  0.00  0.00    +0.000 A 
ENDBRANCH  12  13
ENDBRANCH  11  12
ENDBRANCH   2  11
TORSDOF 4
ENDMDL
MODEL 8
REMARK VINA RESULT:      -6.8      1.662      2.062
REMARK  Name = 
REMARK  5 active torsions:
REMARK  status: ('A' for Active; 'I' for Inactive)
REMARK    1  A    between atoms: C_1  and  C_2
REMARK    2  A    between atoms: C_6  and  N_7
REMARK    3  A    between atoms: C_8  and  O_10
REMARK    4  A    between atoms: O_10  and  C_11
REMARK    5  A    between atoms: C_11  and  C_12
REMARK                            x       y       z     vdW  Elec       q    Type
REMARK                         _______ _______ _______ _____ _____    ______ ____
ROOT
ATOM      1  N   UNL     1       5.705   4.258  17.513  0.00  0.00    +0.000 N 
ATOM      2  C   UNL     1       5.391   4.434  18.823  0.00  0.00    +0.000 C 
ATOM      3  O   UNL     1       5.118   5.528  19.304  0.00  0.00    +0.000 OA
ATOM      4  H   UNL     1       5.848   3.301  17.217  0.00  0.00    +0.000 HD
ENDROOT
BRANCH   1  10
ATOM      5  C   UNL     1       6.023   3.633  14.595  0.00  0.00    +0.000 C 
ATOM      6  C   UNL     1       6.016   5.067  15.084  0.00  0.00    +0.000 C 
ATOM      7  O   UNL     1       7.368   5.595  15.238  0.00  0.00    +0.000 OA
ATOM      8  C   UNL     1       7.071   6.154  16.444  0.00  0.00    +0.000 C 
ATOM      9  O   UNL     1       7.742   6.903  17.116  0.00  0.00    +0.000 OA
ATOM     10  C   UNL     1       5.716   5.394  16.563  0.00  0.00    +0.000 C 
ENDBRANCH   1  10
BRANCH   2  11
ATOM     11  O   UNL     1       5.408   3.255  19.478  0.00  0.00    +0.000 OA
BRANCH  11  12
ATOM     12  C   UNL     1       4.516   2.274  18.936  0.00  0.00    +0.000 C 
BRANCH  12  13
ATOM     13  C   UNL     1       3.116   2.551  19.419  0.00  0.00    +0.000 A 
ATOM     14  C   UNL     1       2.035   2.560  18.530  0.00  0.00    +0.000 A 
ATOM     15  C   UNL     1       0.751   2.868  18.983  0.00  0.00    +0.000 A 
ATOM     16  C   UNL     1       0.538   3.168  20.328  0.00  0.00    +0.000 A 
ATOM     17  C   UNL     1       1.604   3.141  21.225  0.00  0.00    +0.000 A 
ATOM     18  C   UNL     1       2.888   2.836  20.774  0.00  0.00    +0.000 A 
ENDBRANCH  12  13
ENDBRANCH  11  12
ENDBRANCH   2  11
TORSDOF 4
ENDMDL
MODEL 9
REMARK VINA RESULT:      -6.8      2.396      5.776
REMARK  Name = 
REMARK  5 active torsions:
REMARK  status: ('A' for Active; 'I' for Inactive)
REMARK    1  A    between atoms: C_1  and  C_2
REMARK    2  A    between atoms: C_6  and  N_7
REMARK    3  A    between atoms: C_8  and  O_10
REMARK    4  A    between atoms: O_10  and  C_11
REMARK    5  A    between atoms: C_11  and  C_12
REMARK                            x       y       z     vdW  Elec       q    Type
REMARK                         _______ _______ _______ _____ _____    ______ ____
ROOT
ATOM      1  N   UNL     1       3.420   3.373  18.936  0.00  0.00    +0.000 N 
ATOM      2  C   UNL     1       3.342   3.306  17.581  0.00  0.00    +0.000 C 
ATOM      3  O   UNL     1       2.277   3.273  16.975  0.00  0.00    +0.000 OA
ATOM      4  H   UNL     1       4.352   3.462  19.321  0.00  0.00    +0.000 HD
ENDROOT
BRANCH   1  10
ATOM      5  C   UNL     1       2.332   6.081  19.631  0.00  0.00    +0.000 C 
ATOM      6  C   UNL     1       1.735   4.828  20.237  0.00  0.00    +0.000 C 
ATOM      7  O   UNL     1       2.262   4.568  21.574  0.00  0.00    +0.000 OA
ATOM      8  C   UNL     1       2.436   3.244  21.306  0.00  0.00    +0.000 C 
ATOM      9  O   UNL     1       2.739   2.353  22.066  0.00  0.00    +0.000 OA
ATOM     10  C   UNL     1       2.203   3.430  19.777  0.00  0.00    +0.000 C 
ENDBRANCH   1  10
BRANCH   2  11
ATOM     11  O   UNL     1       4.574   3.305  17.034  0.00  0.00    +0.000 OA
BRANCH  11  12
ATOM     12  C   UNL     1       4.872   4.474  16.262  0.00  0.00    +0.000 C 
BRANCH  12  13
ATOM     13  C   UNL     1       5.930   5.282  16.967  0.00  0.00    +0.000 A 
ATOM     14  C   UNL     1       6.794   4.687  17.894  0.00  0.00    +0.000 A 
ATOM     15  C   UNL     1       7.735   5.458  18.577  0.00  0.00    +0.000 A 
ATOM     16  C   UNL     1       7.823   6.828  18.338  0.00  0.00    +0.000 A 
ATOM     17  C   UNL     1       6.982   7.427  17.402  0.00  0.00    +0.000 A 
ATOM     18  C   UNL     1       6.038   6.659  16.720  0.00  0.00    +0.000 A 
ENDBRANCH  12  13
ENDBRANCH  11  12
ENDBRANCH   2  11
TORSDOF 4
ENDMDL
