MODEL 1
REMARK VINA RESULT:      -8.5      0.000      0.000
REMARK  Name = 
REMARK  7 active torsions:
REMARK  status: ('A' for Active; 'I' for Inactive)
REMARK    1  A    between atoms: C_1  and  C_2
REMARK    2  A    between atoms: C_2  and  O_3
REMARK    3  A    between atoms: O_3  and  C_4
REMARK    4  A    between atoms: C_11  and  C_12
REMARK    5  A    between atoms: C_12  and  N_13
REMARK    6  A    between atoms: C_19  and  O_20
REMARK    7  A    between atoms: C_19  and  C_21
REMARK                            x       y       z     vdW  Elec       q    Type
REMARK                         _______ _______ _______ _____ _____    ______ ____
ROOT
ATOM      1  N   UNL     1       2.194   5.190  19.571  0.00  0.00    +0.000 NA
ATOM      2  C   UNL     1       2.842   4.156  20.381  0.00  0.00    +0.000 C 
ATOM      3  C   UNL     1       1.676   3.204  20.661  0.00  0.00    +0.000 C 
ATOM      4  C   UNL     1       0.799   3.311  19.426  0.00  0.00    +0.000 C 
ATOM      5  C   UNL     1       1.500   4.369  18.564  0.00  0.00    +0.000 C 
ATOM      6  C   UNL     1       2.441   3.689  17.550  0.00  0.00    +0.000 C 
ATOM      7  C   UNL     1       3.846   3.258  18.079  0.00  0.00    +0.000 C 
ATOM      8  C   UNL     1       3.993   3.459  19.630  0.00  0.00    +0.000 C 
ENDROOT
BRANCH   7   9
ATOM      9  C   UNL     1       5.010   3.868  17.238  0.00  0.00    +0.000 A 
ATOM     10  C   UNL     1       4.938   3.969  15.840  0.00  0.00    +0.000 A 
ATOM     11  C   UNL     1       6.023   4.387  15.053  0.00  0.00    +0.000 A 
ATOM     12  C   UNL     1       7.199   4.804  15.655  0.00  0.00    +0.000 A 
ATOM     13  C   UNL     1       7.263   4.835  17.041  0.00  0.00    +0.000 A 
ATOM     14  C   UNL     1       6.184   4.384  17.817  0.00  0.00    +0.000 A 
ENDBRANCH   7   9
BRANCH   7  15
ATOM     15  O   UNL     1       3.996   1.849  17.818  0.00  0.00    +0.000 OA
ATOM     16  H   UNL     1       3.165   1.519  17.441  0.00  0.00    +0.000 HD
ENDBRANCH   7  15
BRANCH   1  17
ATOM     17  C   UNL     1       3.064   6.248  19.019  0.00  0.00    +0.000 C 
BRANCH  17  25
ATOM     18  C   UNL     1      -0.072   9.592  20.690  0.00  0.00    +0.000 A 
ATOM     19  C   UNL     1      -0.702  10.830  20.526  0.00  0.00    +0.000 A 
ATOM     20  C   UNL     1      -0.380  11.661  19.457  0.00  0.00    +0.000 A 
ATOM     21  C   UNL     1       0.566  11.248  18.521  0.00  0.00    +0.000 A 
ATOM     22  C   UNL     1       1.163   9.987  18.642  0.00  0.00    +0.000 A 
ATOM     23  C   UNL     1       0.858   9.147  19.724  0.00  0.00    +0.000 A 
ATOM     24  O   UNL     1       1.414   7.898  19.839  0.00  0.00    +0.000 OA
ATOM     25  C   UNL     1       2.578   7.724  19.010  0.00  0.00    +0.000 C 
ATOM     26  C   UNL     1       2.321   8.250  17.610  0.00  0.00    +0.000 C 
ATOM     27  O   UNL     1       2.043   9.654  17.644  0.00  0.00    +0.000 OA
BRANCH  18  28
ATOM     28  O   UNL     1      -0.496   8.949  21.821  0.00  0.00    +0.000 OA
BRANCH  28  30
ATOM     29  C   UNL     1       1.469   9.292  23.165  0.00  0.00    +0.000 C 
ATOM     30  C   UNL     1      -0.039   9.441  23.070  0.00  0.00    +0.000 C 
ENDBRANCH  28  30
ENDBRANCH  18  28
ENDBRANCH  17  25
ENDBRANCH   1  17
TORSDOF 6
ENDMDL
MODEL 2
REMARK VINA RESULT:      -8.4      2.715      7.936
REMARK  Name = 
REMARK  7 active torsions:
REMARK  status: ('A' for Active; 'I' for Inactive)
REMARK    1  A    between atoms: C_1  and  C_2
REMARK    2  A    between atoms: C_2  and  O_3
REMARK    3  A    between atoms: O_3  and  C_4
REMARK    4  A    between atoms: C_11  and  C_12
REMARK    5  A    between atoms: C_12  and  N_13
REMARK    6  A    between atoms: C_19  and  O_20
REMARK    7  A    between atoms: C_19  and  C_21
REMARK                            x       y       z     vdW  Elec       q    Type
REMARK                         _______ _______ _______ _____ _____    ______ ____
ROOT
ATOM      1  N   UNL     1       4.307   3.679  17.862  0.00  0.00    +0.000 NA
ATOM      2  C   UNL     1       2.969   3.191  17.522  0.00  0.00    +0.000 C 
ATOM      3  C   UNL     1       2.966   1.807  18.179  0.00  0.00    +0.000 C 
ATOM      4  C   UNL     1       3.850   1.971  19.402  0.00  0.00    +0.000 C 
ATOM      5  C   UNL     1       4.344   3.420  19.312  0.00  0.00    +0.000 C 
ATOM      6  C   UNL     1       3.430   4.346  20.139  0.00  0.00    +0.000 C 
ATOM      7  C   UNL     1       2.101   4.806  19.459  0.00  0.00    +0.000 C 
ATOM      8  C   UNL     1       1.855   4.099  18.078  0.00  0.00    +0.000 C 
ENDROOT
BRANCH   7   9
ATOM      9  C   UNL     1       1.960   6.359  19.421  0.00  0.00    +0.000 A 
ATOM     10  C   UNL     1       1.619   7.100  20.563  0.00  0.00    +0.000 A 
ATOM     11  C   UNL     1       1.355   8.477  20.523  0.00  0.00    +0.000 A 
ATOM     12  C   UNL     1       1.510   9.182  19.339  0.00  0.00    +0.000 A 
ATOM     13  C   UNL     1       1.965   8.505  18.217  0.00  0.00    +0.000 A 
ATOM     14  C   UNL     1       2.195   7.121  18.260  0.00  0.00    +0.000 A 
ENDBRANCH   7   9
BRANCH   7  15
ATOM     15  O   UNL     1       1.014   4.430  20.327  0.00  0.00    +0.000 OA
ATOM     16  H   UNL     1       1.181   4.809  21.204  0.00  0.00    +0.000 HD
ENDBRANCH   7  15
BRANCH   1  17
ATOM     17  C   UNL     1       4.631   5.065  17.468  0.00  0.00    +0.000 C 
BRANCH  17  25
ATOM     18  C   UNL     1       5.655   3.886  12.845  0.00  0.00    +0.000 A 
ATOM     19  C   UNL     1       6.556   3.908  11.775  0.00  0.00    +0.000 A 
ATOM     20  C   UNL     1       7.775   4.570  11.880  0.00  0.00    +0.000 A 
ATOM     21  C   UNL     1       8.119   5.200  13.075  0.00  0.00    +0.000 A 
ATOM     22  C   UNL     1       7.252   5.136  14.172  0.00  0.00    +0.000 A 
ATOM     23  C   UNL     1       6.013   4.486  14.073  0.00  0.00    +0.000 A 
ATOM     24  O   UNL     1       5.166   4.392  15.149  0.00  0.00    +0.000 OA
ATOM     25  C   UNL     1       5.483   5.328  16.195  0.00  0.00    +0.000 C 
ATOM     26  C   UNL     1       6.974   5.331  16.476  0.00  0.00    +0.000 C 
ATOM     27  O   UNL     1       7.703   5.746  15.315  0.00  0.00    +0.000 OA
BRANCH  18  28
ATOM     28  O   UNL     1       4.501   3.223  12.528  0.00  0.00    +0.000 OA
BRANCH  28  30
ATOM     29  C   UNL     1       3.270   3.565  10.490  0.00  0.00    +0.000 C 
ATOM     30  C   UNL     1       4.350   2.764  11.194  0.00  0.00    +0.000 C 
ENDBRANCH  28  30
ENDBRANCH  18  28
ENDBRANCH  17  25
ENDBRANCH   1  17
TORSDOF 6
ENDMDL
MODEL 3
REMARK VINA RESULT:      -8.0      0.675      1.176
REMARK  Name = 
REMARK  7 active torsions:
REMARK  status: ('A' for Active; 'I' for Inactive)
REMARK    1  A    between atoms: C_1  and  C_2
REMARK    2  A    between atoms: C_2  and  O_3
REMARK    3  A    between atoms: O_3  and  C_4
REMARK    4  A    between atoms: C_11  and  C_12
REMARK    5  A    between atoms: C_12  and  N_13
REMARK    6  A    between atoms: C_19  and  O_20
REMARK    7  A    between atoms: C_19  and  C_21
REMARK                            x       y       z     vdW  Elec       q    Type
REMARK                         _______ _______ _______ _____ _____    ______ ____
ROOT
ATOM      1  N   UNL     1       2.188   5.383  19.447  0.00  0.00    +0.000 NA
ATOM      2  C   UNL     1       2.876   4.471  20.363  0.00  0.00    +0.000 C 
ATOM      3  C   UNL     1       1.742   3.526  20.772  0.00  0.00    +0.000 C 
ATOM      4  C   UNL     1       0.848   3.462  19.547  0.00  0.00    +0.000 C 
ATOM      5  C   UNL     1       1.507   4.429  18.555  0.00  0.00    +0.000 C 
ATOM      6  C   UNL     1       2.455   3.661  17.614  0.00  0.00    +0.000 C 
ATOM      7  C   UNL     1       3.878   3.334  18.168  0.00  0.00    +0.000 C 
ATOM      8  C   UNL     1       4.038   3.722  19.683  0.00  0.00    +0.000 C 
ENDROOT
BRANCH   7   9
ATOM      9  C   UNL     1       5.014   3.872  17.244  0.00  0.00    +0.000 A 
ATOM     10  C   UNL     1       6.183   4.445  17.766  0.00  0.00    +0.000 A 
ATOM     11  C   UNL     1       7.154   5.057  16.958  0.00  0.00    +0.000 A 
ATOM     12  C   UNL     1       7.025   5.037  15.578  0.00  0.00    +0.000 A 
ATOM     13  C   UNL     1       5.943   4.370  15.021  0.00  0.00    +0.000 A 
ATOM     14  C   UNL     1       4.961   3.790  15.839  0.00  0.00    +0.000 A 
ENDBRANCH   7   9
BRANCH   7  15
ATOM     15  O   UNL     1       4.067   1.909  18.074  0.00  0.00    +0.000 OA
ATOM     16  H   UNL     1       4.209   1.683  17.141  0.00  0.00    +0.000 HD
ENDBRANCH   7  15
BRANCH   1  17
ATOM     17  C   UNL     1       3.021   6.392  18.761  0.00  0.00    +0.000 C 
BRANCH  17  25
ATOM     18  C   UNL     1       1.068  10.184  21.131  0.00  0.00    +0.000 A 
ATOM     19  C   UNL     1       0.417  11.420  21.080  0.00  0.00    +0.000 A 
ATOM     20  C   UNL     1       0.149  12.039  19.863  0.00  0.00    +0.000 A 
ATOM     21  C   UNL     1       0.513  11.410  18.674  0.00  0.00    +0.000 A 
ATOM     22  C   UNL     1       1.114  10.146  18.708  0.00  0.00    +0.000 A 
ATOM     23  C   UNL     1       1.403   9.520  19.929  0.00  0.00    +0.000 A 
ATOM     24  O   UNL     1       1.966   8.270  19.977  0.00  0.00    +0.000 OA
ATOM     25  C   UNL     1       2.567   7.877  18.730  0.00  0.00    +0.000 C 
ATOM     26  C   UNL     1       1.638   8.184  17.569  0.00  0.00    +0.000 C 
ATOM     27  O   UNL     1       1.388   9.592  17.484  0.00  0.00    +0.000 OA
BRANCH  18  28
ATOM     28  O   UNL     1       1.275   9.768  22.418  0.00  0.00    +0.000 OA
BRANCH  28  30
ATOM     29  C   UNL     1      -0.767   8.495  22.421  0.00  0.00    +0.000 C 
ATOM     30  C   UNL     1       0.134   9.441  23.195  0.00  0.00    +0.000 C 
ENDBRANCH  28  30
ENDBRANCH  18  28
ENDBRANCH  17  25
ENDBRANCH   1  17
TORSDOF 6
ENDMDL
MODEL 4
REMARK VINA RESULT:      -7.7      1.725      2.826
REMARK  Name = 
REMARK  7 active torsions:
REMARK  status: ('A' for Active; 'I' for Inactive)
REMARK    1  A    between atoms: C_1  and  C_2
REMARK    2  A    between atoms: C_2  and  O_3
REMARK    3  A    between atoms: O_3  and  C_4
REMARK    4  A    between atoms: C_11  and  C_12
REMARK    5  A    between atoms: C_12  and  N_13
REMARK    6  A    between atoms: C_19  and  O_20
REMARK    7  A    between atoms: C_19  and  C_21
REMARK                            x       y       z     vdW  Elec       q    Type
REMARK                         _______ _______ _______ _____ _____    ______ ____
ROOT
ATOM      1  N   UNL     1       1.483   5.085  20.480  0.00  0.00    +0.000 NA
ATOM      2  C   UNL     1       2.309   4.116  21.204  0.00  0.00    +0.000 C 
ATOM      3  C   UNL     1       1.466   2.843  21.089  0.00  0.00    +0.000 C 
ATOM      4  C   UNL     1       0.765   2.977  19.749  0.00  0.00    +0.000 C 
ATOM      5  C   UNL     1       1.211   4.350  19.233  0.00  0.00    +0.000 C 
ATOM      6  C   UNL     1       2.437   4.199  18.311  0.00  0.00    +0.000 C 
ATOM      7  C   UNL     1       3.826   4.064  19.012  0.00  0.00    +0.000 C 
ATOM      8  C   UNL     1       3.704   3.948  20.574  0.00  0.00    +0.000 C 
ENDROOT
BRANCH   7   9
ATOM      9  C   UNL     1       4.844   5.142  18.525  0.00  0.00    +0.000 A 
ATOM     10  C   UNL     1       4.500   6.103  17.562  0.00  0.00    +0.000 A 
ATOM     11  C   UNL     1       5.435   6.993  17.011  0.00  0.00    +0.000 A 
ATOM     12  C   UNL     1       6.740   7.007  17.476  0.00  0.00    +0.000 A 
ATOM     13  C   UNL     1       7.086   6.155  18.515  0.00  0.00    +0.000 A 
ATOM     14  C   UNL     1       6.152   5.246  19.036  0.00  0.00    +0.000 A 
ENDBRANCH   7   9
BRANCH   7  15
ATOM     15  O   UNL     1       4.435   2.846  18.542  0.00  0.00    +0.000 OA
ATOM     16  H   UNL     1       5.371   2.856  18.798  0.00  0.00    +0.000 HD
ENDBRANCH   7  15
BRANCH   1  17
ATOM     17  C   UNL     1       2.049   6.437  20.295  0.00  0.00    +0.000 C 
BRANCH  17  25
ATOM     18  C   UNL     1      -0.447  10.480  19.184  0.00  0.00    +0.000 A 
ATOM     19  C   UNL     1      -0.935  11.731  19.575  0.00  0.00    +0.000 A 
ATOM     20  C   UNL     1      -0.756  12.194  20.875  0.00  0.00    +0.000 A 
ATOM     21  C   UNL     1      -0.059  11.415  21.796  0.00  0.00    +0.000 A 
ATOM     22  C   UNL     1       0.485  10.187  21.402  0.00  0.00    +0.000 A 
ATOM     23  C   UNL     1       0.297   9.702  20.099  0.00  0.00    +0.000 A 
ATOM     24  O   UNL     1       0.848   8.513  19.692  0.00  0.00    +0.000 OA
ATOM     25  C   UNL     1       1.260   7.680  20.790  0.00  0.00    +0.000 C 
ATOM     26  C   UNL     1       2.026   8.491  21.819  0.00  0.00    +0.000 C 
ATOM     27  O   UNL     1       1.194   9.520  22.368  0.00  0.00    +0.000 OA
BRANCH  18  28
ATOM     28  O   UNL     1      -0.763  10.192  17.884  0.00  0.00    +0.000 OA
BRANCH  28  30
ATOM     29  C   UNL     1      -3.059   9.713  17.353  0.00  0.00    +0.000 C 
ATOM     30  C   UNL     1      -1.953  10.753  17.355  0.00  0.00    +0.000 C 
ENDBRANCH  28  30
ENDBRANCH  18  28
ENDBRANCH  17  25
ENDBRANCH   1  17
TORSDOF 6
ENDMDL
MODEL 5
REMARK VINA RESULT:      -7.5      1.116      1.637
REMARK  Name = 
REMARK  7 active torsions:
REMARK  status: ('A' for Active; 'I' for Inactive)
REMARK    1  A    between atoms: C_1  and  C_2
REMARK    2  A    between atoms: C_2  and  O_3
REMARK    3  A    between atoms: O_3  and  C_4
REMARK    4  A    between atoms: C_11  and  C_12
REMARK    5  A    between atoms: C_12  and  N_13
REMARK    6  A    between atoms: C_19  and  O_20
REMARK    7  A    between atoms: C_19  and  C_21
REMARK                            x       y       z     vdW  Elec       q    Type
REMARK                         _______ _______ _______ _____ _____    ______ ____
ROOT
ATOM      1  N   UNL     1       2.029   5.445  19.455  0.00  0.00    +0.000 NA
ATOM      2  C   UNL     1       2.443   4.189  20.084  0.00  0.00    +0.000 C 
ATOM      3  C   UNL     1       1.419   3.203  19.514  0.00  0.00    +0.000 C 
ATOM      4  C   UNL     1       1.109   3.745  18.129  0.00  0.00    +0.000 C 
ATOM      5  C   UNL     1       1.931   5.036  18.043  0.00  0.00    +0.000 C 
ATOM      6  C   UNL     1       3.291   4.758  17.373  0.00  0.00    +0.000 C 
ATOM      7  C   UNL     1       4.411   4.162  18.284  0.00  0.00    +0.000 C 
ATOM      8  C   UNL     1       3.888   3.800  19.721  0.00  0.00    +0.000 C 
ENDROOT
BRANCH   7   9
ATOM      9  C   UNL     1       5.709   5.026  18.271  0.00  0.00    +0.000 A 
ATOM     10  C   UNL     1       6.604   5.033  19.352  0.00  0.00    +0.000 A 
ATOM     11  C   UNL     1       7.704   5.902  19.421  0.00  0.00    +0.000 A 
ATOM     12  C   UNL     1       7.996   6.741  18.357  0.00  0.00    +0.000 A 
ATOM     13  C   UNL     1       7.204   6.673  17.219  0.00  0.00    +0.000 A 
ATOM     14  C   UNL     1       6.088   5.824  17.174  0.00  0.00    +0.000 A 
ENDBRANCH   7   9
BRANCH   7  15
ATOM     15  O   UNL     1       4.862   2.937  17.676  0.00  0.00    +0.000 OA
ATOM     16  H   UNL     1       5.158   3.136  16.774  0.00  0.00    +0.000 HD
ENDBRANCH   7  15
BRANCH   1  17
ATOM     17  C   UNL     1       2.879   6.627  19.703  0.00  0.00    +0.000 C 
BRANCH  17  25
ATOM     18  C   UNL     1      -0.478  10.079  20.492  0.00  0.00    +0.000 A 
ATOM     19  C   UNL     1      -1.139  11.230  20.050  0.00  0.00    +0.000 A 
ATOM     20  C   UNL     1      -0.774  11.852  18.860  0.00  0.00    +0.000 A 
ATOM     21  C   UNL     1       0.248  11.310  18.082  0.00  0.00    +0.000 A 
ATOM     22  C   UNL     1       0.879  10.127  18.484  0.00  0.00    +0.000 A 
ATOM     23  C   UNL     1       0.530   9.500  19.690  0.00  0.00    +0.000 A 
ATOM     24  O   UNL     1       1.121   8.325  20.082  0.00  0.00    +0.000 OA
ATOM     25  C   UNL     1       2.343   8.048  19.375  0.00  0.00    +0.000 C 
ATOM     26  C   UNL     1       2.165   8.279  17.886  0.00  0.00    +0.000 C 
ATOM     27  O   UNL     1       1.836   9.649  17.626  0.00  0.00    +0.000 OA
BRANCH  18  28
ATOM     28  O   UNL     1      -0.956   9.648  21.700  0.00  0.00    +0.000 OA
BRANCH  28  30
ATOM     29  C   UNL     1       0.333   9.404  23.715  0.00  0.00    +0.000 C 
ATOM     30  C   UNL     1      -0.517  10.329  22.863  0.00  0.00    +0.000 C 
ENDBRANCH  28  30
ENDBRANCH  18  28
ENDBRANCH  17  25
ENDBRANCH   1  17
TORSDOF 6
ENDMDL
MODEL 6
REMARK VINA RESULT:      -7.4      1.191      3.682
REMARK  Name = 
REMARK  7 active torsions:
REMARK  status: ('A' for Active; 'I' for Inactive)
REMARK    1  A    between atoms: C_1  and  C_2
REMARK    2  A    between atoms: C_2  and  O_3
REMARK    3  A    between atoms: O_3  and  C_4
REMARK    4  A    between atoms: C_11  and  C_12
REMARK    5  A    between atoms: C_12  and  N_13
REMARK    6  A    between atoms: C_19  and  O_20
REMARK    7  A    between atoms: C_19  and  C_21
REMARK                            x       y       z     vdW  Elec       q    Type
REMARK                         _______ _______ _______ _____ _____    ______ ____
ROOT
ATOM      1  N   UNL     1       4.453   6.601  17.634  0.00  0.00    +0.000 NA
ATOM      2  C   UNL     1       4.466   5.544  16.620  0.00  0.00    +0.000 C 
ATOM      3  C   UNL     1       5.931   5.558  16.174  0.00  0.00    +0.000 C 
ATOM      4  C   UNL     1       6.699   5.960  17.421  0.00  0.00    +0.000 C 
ATOM      5  C   UNL     1       5.604   6.210  18.466  0.00  0.00    +0.000 C 
ATOM      6  C   UNL     1       5.370   4.938  19.305  0.00  0.00    +0.000 C 
ATOM      7  C   UNL     1       4.452   3.843  18.674  0.00  0.00    +0.000 C 
ATOM      8  C   UNL     1       4.047   4.177  17.193  0.00  0.00    +0.000 C 
ENDROOT
BRANCH   7   9
ATOM      9  C   UNL     1       3.254   3.467  19.599  0.00  0.00    +0.000 A 
ATOM     10  C   UNL     1       1.928   3.773  19.253  0.00  0.00    +0.000 A 
ATOM     11  C   UNL     1       0.850   3.568  20.128  0.00  0.00    +0.000 A 
ATOM     12  C   UNL     1       1.056   2.963  21.358  0.00  0.00    +0.000 A 
ATOM     13  C   UNL     1       2.335   2.535  21.683  0.00  0.00    +0.000 A 
ATOM     14  C   UNL     1       3.412   2.774  20.815  0.00  0.00    +0.000 A 
ENDBRANCH   7   9
BRANCH   7  15
ATOM     15  O   UNL     1       5.200   2.612  18.641  0.00  0.00    +0.000 OA
ATOM     16  H   UNL     1       4.579   1.876  18.756  0.00  0.00    +0.000 HD
ENDBRANCH   7  15
BRANCH   1  17
ATOM     17  C   UNL     1       3.190   6.801  18.373  0.00  0.00    +0.000 C 
BRANCH  17  25
ATOM     18  C   UNL     1      -0.055   9.707  20.572  0.00  0.00    +0.000 A 
ATOM     19  C   UNL     1      -0.727  10.933  20.616  0.00  0.00    +0.000 A 
ATOM     20  C   UNL     1      -0.435  11.943  19.704  0.00  0.00    +0.000 A 
ATOM     21  C   UNL     1       0.523  11.726  18.716  0.00  0.00    +0.000 A 
ATOM     22  C   UNL     1       1.162  10.483  18.624  0.00  0.00    +0.000 A 
ATOM     23  C   UNL     1       0.888   9.464  19.548  0.00  0.00    +0.000 A 
ATOM     24  O   UNL     1       1.486   8.233  19.453  0.00  0.00    +0.000 OA
ATOM     25  C   UNL     1       2.654   8.240  18.611  0.00  0.00    +0.000 C 
ATOM     26  C   UNL     1       2.377   8.985  17.319  0.00  0.00    +0.000 C 
ATOM     27  O   UNL     1       2.051  10.354  17.588  0.00  0.00    +0.000 OA
BRANCH  18  28
ATOM     28  O   UNL     1      -0.455   8.869  21.576  0.00  0.00    +0.000 OA
BRANCH  28  30
ATOM     29  C   UNL     1       1.339   9.261  23.130  0.00  0.00    +0.000 C 
ATOM     30  C   UNL     1      -0.163   9.252  22.910  0.00  0.00    +0.000 C 
ENDBRANCH  28  30
ENDBRANCH  18  28
ENDBRANCH  17  25
ENDBRANCH   1  17
TORSDOF 6
ENDMDL
MODEL 7
REMARK VINA RESULT:      -7.4      2.235      3.054
REMARK  Name = 
REMARK  7 active torsions:
REMARK  status: ('A' for Active; 'I' for Inactive)
REMARK    1  A    between atoms: C_1  and  C_2
REMARK    2  A    between atoms: C_2  and  O_3
REMARK    3  A    between atoms: O_3  and  C_4
REMARK    4  A    between atoms: C_11  and  C_12
REMARK    5  A    between atoms: C_12  and  N_13
REMARK    6  A    between atoms: C_19  and  O_20
REMARK    7  A    between atoms: C_19  and  C_21
REMARK                            x       y       z     vdW  Elec       q    Type
REMARK                         _______ _______ _______ _____ _____    ______ ____
ROOT
ATOM      1  N   UNL     1       1.749   5.891  18.479  0.00  0.00    +0.000 NA
ATOM      2  C   UNL     1       2.077   5.414  19.825  0.00  0.00    +0.000 C 
ATOM      3  C   UNL     1       1.273   4.113  19.898  0.00  0.00    +0.000 C 
ATOM      4  C   UNL     1       1.262   3.598  18.470  0.00  0.00    +0.000 C 
ATOM      5  C   UNL     1       2.005   4.682  17.679  0.00  0.00    +0.000 C 
ATOM      6  C   UNL     1       3.497   4.317  17.550  0.00  0.00    +0.000 C 
ATOM      7  C   UNL     1       4.407   4.652  18.774  0.00  0.00    +0.000 C 
ATOM      8  C   UNL     1       3.588   5.174  20.009  0.00  0.00    +0.000 C 
ENDROOT
BRANCH   7   9
ATOM      9  C   UNL     1       5.621   5.551  18.382  0.00  0.00    +0.000 A 
ATOM     10  C   UNL     1       6.831   5.511  19.093  0.00  0.00    +0.000 A 
ATOM     11  C   UNL     1       7.886   6.402  18.845  0.00  0.00    +0.000 A 
ATOM     12  C   UNL     1       7.795   7.318  17.809  0.00  0.00    +0.000 A 
ATOM     13  C   UNL     1       6.663   7.304  17.006  0.00  0.00    +0.000 A 
ATOM     14  C   UNL     1       5.601   6.430  17.283  0.00  0.00    +0.000 A 
ENDBRANCH   7   9
BRANCH   7  15
ATOM     15  O   UNL     1       5.058   3.434  19.181  0.00  0.00    +0.000 OA
ATOM     16  H   UNL     1       5.810   3.666  19.748  0.00  0.00    +0.000 HD
ENDBRANCH   7  15
BRANCH   1  17
ATOM     17  C   UNL     1       2.448   7.106  18.014  0.00  0.00    +0.000 C 
BRANCH  17  25
ATOM     18  C   UNL     1      -1.203  10.344  18.051  0.00  0.00    +0.000 A 
ATOM     19  C   UNL     1      -1.624  11.671  18.183  0.00  0.00    +0.000 A 
ATOM     20  C   UNL     1      -0.719  12.683  18.488  0.00  0.00    +0.000 A 
ATOM     21  C   UNL     1       0.632  12.378  18.641  0.00  0.00    +0.000 A 
ATOM     22  C   UNL     1       1.077  11.063  18.456  0.00  0.00    +0.000 A 
ATOM     23  C   UNL     1       0.171  10.032  18.165  0.00  0.00    +0.000 A 
ATOM     24  O   UNL     1       0.596   8.745  17.953  0.00  0.00    +0.000 OA
ATOM     25  C   UNL     1       1.930   8.508  18.439  0.00  0.00    +0.000 C 
ATOM     26  C   UNL     1       2.860   9.631  18.020  0.00  0.00    +0.000 C 
ATOM     27  O   UNL     1       2.429  10.876  18.581  0.00  0.00    +0.000 OA
BRANCH  18  28
ATOM     28  O   UNL     1      -2.247   9.499  17.793  0.00  0.00    +0.000 OA
BRANCH  28  30
ATOM     29  C   UNL     1      -2.946   9.721  15.502  0.00  0.00    +0.000 C 
ATOM     30  C   UNL     1      -3.290   9.976  16.959  0.00  0.00    +0.000 C 
ENDBRANCH  28  30
ENDBRANCH  18  28
ENDBRANCH  17  25
ENDBRANCH   1  17
TORSDOF 6
ENDMDL
MODEL 8
REMARK VINA RESULT:      -7.3      1.552      1.773
REMARK  Name = 
REMARK  7 active torsions:
REMARK  status: ('A' for Active; 'I' for Inactive)
REMARK    1  A    between atoms: C_1  and  C_2
REMARK    2  A    between atoms: C_2  and  O_3
REMARK    3  A    between atoms: O_3  and  C_4
REMARK    4  A    between atoms: C_11  and  C_12
REMARK    5  A    between atoms: C_12  and  N_13
REMARK    6  A    between atoms: C_19  and  O_20
REMARK    7  A    between atoms: C_19  and  C_21
REMARK                            x       y       z     vdW  Elec       q    Type
REMARK                         _______ _______ _______ _____ _____    ______ ____
ROOT
ATOM      1  N   UNL     1       1.923   5.871  19.307  0.00  0.00    +0.000 NA
ATOM      2  C   UNL     1       2.391   4.839  20.236  0.00  0.00    +0.000 C 
ATOM      3  C   UNL     1       1.493   3.656  19.865  0.00  0.00    +0.000 C 
ATOM      4  C   UNL     1       1.239   3.830  18.378  0.00  0.00    +0.000 C 
ATOM      5  C   UNL     1       1.959   5.138  18.029  0.00  0.00    +0.000 C 
ATOM      6  C   UNL     1       3.381   4.842  17.514  0.00  0.00    +0.000 C 
ATOM      7  C   UNL     1       4.478   4.582  18.595  0.00  0.00    +0.000 C 
ATOM      8  C   UNL     1       3.885   4.515  20.049  0.00  0.00    +0.000 C 
ENDROOT
BRANCH   7   9
ATOM      9  C   UNL     1       5.700   5.539  18.443  0.00  0.00    +0.000 A 
ATOM     10  C   UNL     1       5.715   6.575  17.496  0.00  0.00    +0.000 A 
ATOM     11  C   UNL     1       6.852   7.360  17.249  0.00  0.00    +0.000 A 
ATOM     12  C   UNL     1       7.997   7.187  18.010  0.00  0.00    +0.000 A 
ATOM     13  C   UNL     1       7.978   6.255  19.038  0.00  0.00    +0.000 A 
ATOM     14  C   UNL     1       6.846   5.453  19.256  0.00  0.00    +0.000 A 
ENDBRANCH   7   9
BRANCH   7  15
ATOM     15  O   UNL     1       5.068   3.298  18.319  0.00  0.00    +0.000 OA
ATOM     16  H   UNL     1       5.707   3.406  17.596  0.00  0.00    +0.000 HD
ENDBRANCH   7  15
BRANCH   1  17
ATOM     17  C   UNL     1       2.656   7.153  19.310  0.00  0.00    +0.000 C 
BRANCH  17  25
ATOM     18  C   UNL     1       0.047  11.006  20.778  0.00  0.00    +0.000 A 
ATOM     19  C   UNL     1      -0.838  12.043  20.464  0.00  0.00    +0.000 A 
ATOM     20  C   UNL     1      -1.250  12.259  19.152  0.00  0.00    +0.000 A 
ATOM     21  C   UNL     1      -0.797  11.417  18.138  0.00  0.00    +0.000 A 
ATOM     22  C   UNL     1       0.043  10.341  18.447  0.00  0.00    +0.000 A 
ATOM     23  C   UNL     1       0.479  10.123  19.763  0.00  0.00    +0.000 A 
ATOM     24  O   UNL     1       1.279   9.056  20.085  0.00  0.00    +0.000 OA
ATOM     25  C   UNL     1       1.917   8.467  18.937  0.00  0.00    +0.000 C 
ATOM     26  C   UNL     1       0.920   8.280  17.808  0.00  0.00    +0.000 C 
ATOM     27  O   UNL     1       0.394   9.544  17.388  0.00  0.00    +0.000 OA
BRANCH  18  28
ATOM     28  O   UNL     1       0.361  10.989  22.110  0.00  0.00    +0.000 OA
BRANCH  28  30
ATOM     29  C   UNL     1       0.116   9.149  23.640  0.00  0.00    +0.000 C 
ATOM     30  C   UNL     1      -0.548  10.351  22.993  0.00  0.00    +0.000 C 
ENDBRANCH  28  30
ENDBRANCH  18  28
ENDBRANCH  17  25
ENDBRANCH   1  17
TORSDOF 6
ENDMDL
MODEL 9
REMARK VINA RESULT:      -7.3      1.704      2.975
REMARK  Name = 
REMARK  7 active torsions:
REMARK  status: ('A' for Active; 'I' for Inactive)
REMARK    1  A    between atoms: C_1  and  C_2
REMARK    2  A    between atoms: C_2  and  O_3
REMARK    3  A    between atoms: O_3  and  C_4
REMARK    4  A    between atoms: C_11  and  C_12
REMARK    5  A    between atoms: C_12  and  N_13
REMARK    6  A    between atoms: C_19  and  O_20
REMARK    7  A    between atoms: C_19  and  C_21
REMARK                            x       y       z     vdW  Elec       q    Type
REMARK                         _______ _______ _______ _____ _____    ______ ____
ROOT
ATOM      1  N   UNL     1       1.587   5.096  20.860  0.00  0.00    +0.000 NA
ATOM      2  C   UNL     1       2.673   4.215  21.297  0.00  0.00    +0.000 C 
ATOM      3  C   UNL     1       1.912   2.931  21.639  0.00  0.00    +0.000 C 
ATOM      4  C   UNL     1       0.744   2.917  20.669  0.00  0.00    +0.000 C 
ATOM      5  C   UNL     1       0.892   4.231  19.892  0.00  0.00    +0.000 C 
ATOM      6  C   UNL     1       1.675   3.992  18.586  0.00  0.00    +0.000 C 
ATOM      7  C   UNL     1       3.232   3.940  18.703  0.00  0.00    +0.000 C 
ATOM      8  C   UNL     1       3.725   3.990  20.194  0.00  0.00    +0.000 C 
ENDROOT
BRANCH   7   9
ATOM      9  C   UNL     1       3.932   4.967  17.760  0.00  0.00    +0.000 A 
ATOM     10  C   UNL     1       3.838   6.351  17.973  0.00  0.00    +0.000 A 
ATOM     11  C   UNL     1       4.344   7.294  17.065  0.00  0.00    +0.000 A 
ATOM     12  C   UNL     1       5.044   6.876  15.945  0.00  0.00    +0.000 A 
ATOM     13  C   UNL     1       5.263   5.518  15.765  0.00  0.00    +0.000 A 
ATOM     14  C   UNL     1       4.725   4.582  16.662  0.00  0.00    +0.000 A 
ENDBRANCH   7   9
BRANCH   7  15
ATOM     15  O   UNL     1       3.670   2.683  18.153  0.00  0.00    +0.000 OA
ATOM     16  H   UNL     1       3.348   2.623  17.240  0.00  0.00    +0.000 HD
ENDBRANCH   7  15
BRANCH   1  17
ATOM     17  C   UNL     1       1.975   6.425  20.342  0.00  0.00    +0.000 C 
BRANCH  17  25
ATOM     18  C   UNL     1      -0.468  10.454  19.075  0.00  0.00    +0.000 A 
ATOM     19  C   UNL     1      -0.952  11.719  19.423  0.00  0.00    +0.000 A 
ATOM     20  C   UNL     1      -0.790  12.218  20.711  0.00  0.00    +0.000 A 
ATOM     21  C   UNL     1      -0.116  11.460  21.667  0.00  0.00    +0.000 A 
ATOM     22  C   UNL     1       0.424  10.217  21.316  0.00  0.00    +0.000 A 
ATOM     23  C   UNL     1       0.253   9.697  20.025  0.00  0.00    +0.000 A 
ATOM     24  O   UNL     1       0.801   8.492  19.660  0.00  0.00    +0.000 OA
ATOM     25  C   UNL     1       1.188   7.688  20.789  0.00  0.00    +0.000 C 
ATOM     26  C   UNL     1       1.943   8.521  21.807  0.00  0.00    +0.000 C 
ATOM     27  O   UNL     1       1.111   9.572  22.313  0.00  0.00    +0.000 OA
BRANCH  18  28
ATOM     28  O   UNL     1      -0.764  10.132  17.779  0.00  0.00    +0.000 OA
BRANCH  28  30
ATOM     29  C   UNL     1      -2.479  10.545  16.143  0.00  0.00    +0.000 C 
ATOM     30  C   UNL     1      -2.122   9.875  17.458  0.00  0.00    +0.000 C 
ENDBRANCH  28  30
ENDBRANCH  18  28
ENDBRANCH  17  25
ENDBRANCH   1  17
TORSDOF 6
ENDMDL
