MODEL 1
REMARK VINA RESULT:      -8.2      0.000      0.000
REMARK  Name = 
REMARK  5 active torsions:
REMARK  status: ('A' for Active; 'I' for Inactive)
REMARK    1  A    between atoms: C_1  and  C_2
REMARK    2  A    between atoms: C_5  and  C_6
REMARK    3  A    between atoms: C_6  and  N_7
REMARK    4  A    between atoms: C_9  and  C_10
REMARK    5  A    between atoms: C_15  and  C_16
REMARK                            x       y       z     vdW  Elec       q    Type
REMARK                         _______ _______ _______ _____ _____    ______ ____
ROOT
ATOM      1  N   UNL     1       4.265   3.828  17.991  0.00  0.00    +0.000 N 
ATOM      2  C   UNL     1       3.082   4.583  17.658  0.00  0.00    +0.000 C 
ATOM      3  C   UNL     1       2.132   4.348  18.835  0.00  0.00    +0.000 C 
ATOM      4  C   UNL     1       2.569   2.983  19.368  0.00  0.00    +0.000 C 
ATOM      5  C   UNL     1       4.036   2.922  19.010  0.00  0.00    +0.000 C 
ATOM      6  O   UNL     1       4.844   2.155  19.507  0.00  0.00    +0.000 OA
ENDROOT
BRANCH   3   7
ATOM      7  C   UNL     1       2.264   5.408  19.941  0.00  0.00    +0.000 C 
ATOM      8  O   UNL     1       2.711   5.112  21.048  0.00  0.00    +0.000 OA
ATOM      9  N   UNL     1       1.791   6.696  19.683  0.00  0.00    +0.000 N 
ATOM     10  C   UNL     1       1.644   7.599  20.837  0.00  0.00    +0.000 C 
ATOM     11  C   UNL     1       0.990   8.907  20.460  0.00  0.00    +0.000 C 
ATOM     12  C   UNL     1       1.275   9.514  19.291  0.00  0.00    +0.000 C 
ATOM     13  C   UNL     1       2.197   8.763  18.366  0.00  0.00    +0.000 C 
ATOM     14  C   UNL     1       1.732   7.300  18.344  0.00  0.00    +0.000 C 
BRANCH  12  15
ATOM     15  C   UNL     1       0.709  10.802  18.850  0.00  0.00    +0.000 A 
ATOM     16  C   UNL     1      -0.662  10.914  18.549  0.00  0.00    +0.000 A 
ATOM     17  C   UNL     1      -1.218  12.150  18.211  0.00  0.00    +0.000 A 
ATOM     18  C   UNL     1      -0.425  13.292  18.171  0.00  0.00    +0.000 A 
ATOM     19  C   UNL     1       0.934  13.195  18.461  0.00  0.00    +0.000 A 
ATOM     20  C   UNL     1       1.495  11.961  18.796  0.00  0.00    +0.000 A 
ENDBRANCH  12  15
ENDBRANCH   3   7
BRANCH   1  21
ATOM     21  C   UNL     1       5.535   4.016  17.313  0.00  0.00    +0.000 C 
BRANCH  21  26
ATOM     22  C   UNL     1       8.508   8.971  18.163  0.00  0.00    +0.000 C 
ATOM     23  C   UNL     1       7.707   7.714  18.012  0.00  0.00    +0.000 A 
ATOM     24  C   UNL     1       8.003   6.564  18.746  0.00  0.00    +0.000 A 
ATOM     25  C   UNL     1       7.278   5.382  18.553  0.00  0.00    +0.000 A 
ATOM     26  C   UNL     1       6.234   5.323  17.616  0.00  0.00    +0.000 A 
ATOM     27  C   UNL     1       5.926   6.487  16.891  0.00  0.00    +0.000 A 
ATOM     28  C   UNL     1       6.654   7.662  17.094  0.00  0.00    +0.000 A 
ENDBRANCH  21  26
ENDBRANCH   1  21
TORSDOF 4
ENDMDL
MODEL 2
REMARK VINA RESULT:      -8.1      0.539      1.095
REMARK  Name = 
REMARK  5 active torsions:
REMARK  status: ('A' for Active; 'I' for Inactive)
REMARK    1  A    between atoms: C_1  and  C_2
REMARK    2  A    between atoms: C_5  and  C_6
REMARK    3  A    between atoms: C_6  and  N_7
REMARK    4  A    between atoms: C_9  and  C_10
REMARK    5  A    between atoms: C_15  and  C_16
REMARK                            x       y       z     vdW  Elec       q    Type
REMARK                         _______ _______ _______ _____ _____    ______ ____
ROOT
ATOM      1  N   UNL     1       3.646   3.424  17.766  0.00  0.00    +0.000 N 
ATOM      2  C   UNL     1       2.505   4.281  17.563  0.00  0.00    +0.000 C 
ATOM      3  C   UNL     1       1.721   4.196  18.875  0.00  0.00    +0.000 C 
ATOM      4  C   UNL     1       2.101   2.817  19.417  0.00  0.00    +0.000 C 
ATOM      5  C   UNL     1       3.486   2.591  18.857  0.00  0.00    +0.000 C 
ATOM      6  O   UNL     1       4.282   1.767  19.278  0.00  0.00    +0.000 OA
ENDROOT
BRANCH   3   7
ATOM      7  C   UNL     1       2.116   5.283  19.888  0.00  0.00    +0.000 C 
ATOM      8  O   UNL     1       2.733   4.996  20.912  0.00  0.00    +0.000 OA
ATOM      9  N   UNL     1       1.687   6.591  19.655  0.00  0.00    +0.000 N 
ATOM     10  C   UNL     1       1.806   7.544  20.771  0.00  0.00    +0.000 C 
ATOM     11  C   UNL     1       1.180   8.881  20.452  0.00  0.00    +0.000 C 
ATOM     12  C   UNL     1       1.291   9.423  19.222  0.00  0.00    +0.000 C 
ATOM     13  C   UNL     1       1.984   8.574  18.188  0.00  0.00    +0.000 C 
ATOM     14  C   UNL     1       1.429   7.149  18.319  0.00  0.00    +0.000 C 
BRANCH  12  15
ATOM     15  C   UNL     1       0.738  10.731  18.825  0.00  0.00    +0.000 A 
ATOM     16  C   UNL     1      -0.617  10.854  18.465  0.00  0.00    +0.000 A 
ATOM     17  C   UNL     1      -1.164  12.105  18.169  0.00  0.00    +0.000 A 
ATOM     18  C   UNL     1      -0.378  13.250  18.230  0.00  0.00    +0.000 A 
ATOM     19  C   UNL     1       0.966  13.142  18.580  0.00  0.00    +0.000 A 
ATOM     20  C   UNL     1       1.518  11.894  18.874  0.00  0.00    +0.000 A 
ENDBRANCH  12  15
ENDBRANCH   3   7
BRANCH   1  21
ATOM     21  C   UNL     1       4.814   3.451  16.904  0.00  0.00    +0.000 C 
BRANCH  21  26
ATOM     22  C   UNL     1       8.057   8.194  17.956  0.00  0.00    +0.000 C 
ATOM     23  C   UNL     1       7.264   6.969  17.619  0.00  0.00    +0.000 A 
ATOM     24  C   UNL     1       6.210   7.008  16.702  0.00  0.00    +0.000 A 
ATOM     25  C   UNL     1       5.446   5.865  16.439  0.00  0.00    +0.000 A 
ATOM     26  C   UNL     1       5.718   4.651  17.089  0.00  0.00    +0.000 A 
ATOM     27  C   UNL     1       6.790   4.610  17.997  0.00  0.00    +0.000 A 
ATOM     28  C   UNL     1       7.549   5.755  18.251  0.00  0.00    +0.000 A 
ENDBRANCH  21  26
ENDBRANCH   1  21
TORSDOF 4
ENDMDL
MODEL 3
REMARK VINA RESULT:      -8.0      0.734      1.171
REMARK  Name = 
REMARK  5 active torsions:
REMARK  status: ('A' for Active; 'I' for Inactive)
REMARK    1  A    between atoms: C_1  and  C_2
REMARK    2  A    between atoms: C_5  and  C_6
REMARK    3  A    between atoms: C_6  and  N_7
REMARK    4  A    between atoms: C_9  and  C_10
REMARK    5  A    between atoms: C_15  and  C_16
REMARK                            x       y       z     vdW  Elec       q    Type
REMARK                         _______ _______ _______ _____ _____    ______ ____
ROOT
ATOM      1  N   UNL     1       4.582   4.139  17.703  0.00  0.00    +0.000 N 
ATOM      2  C   UNL     1       3.784   5.229  17.199  0.00  0.00    +0.000 C 
ATOM      3  C   UNL     1       2.474   5.144  17.986  0.00  0.00    +0.000 C 
ATOM      4  C   UNL     1       2.382   3.661  18.348  0.00  0.00    +0.000 C 
ATOM      5  C   UNL     1       3.828   3.229  18.420  0.00  0.00    +0.000 C 
ATOM      6  O   UNL     1       4.226   2.214  18.970  0.00  0.00    +0.000 OA
ENDROOT
BRANCH   3   7
ATOM      7  C   UNL     1       2.481   5.995  19.266  0.00  0.00    +0.000 C 
ATOM      8  O   UNL     1       2.894   5.533  20.329  0.00  0.00    +0.000 OA
ATOM      9  N   UNL     1       1.935   7.279  19.210  0.00  0.00    +0.000 N 
ATOM     10  C   UNL     1       1.673   7.952  20.493  0.00  0.00    +0.000 C 
ATOM     11  C   UNL     1       0.950   9.267  20.313  0.00  0.00    +0.000 C 
ATOM     12  C   UNL     1       1.251  10.088  19.286  0.00  0.00    +0.000 C 
ATOM     13  C   UNL     1       2.265   9.568  18.301  0.00  0.00    +0.000 C 
ATOM     14  C   UNL     1       1.900   8.108  17.996  0.00  0.00    +0.000 C 
BRANCH  12  15
ATOM     15  C   UNL     1       0.621  11.398  19.045  0.00  0.00    +0.000 A 
ATOM     16  C   UNL     1      -0.764  11.570  19.231  0.00  0.00    +0.000 A 
ATOM     17  C   UNL     1      -1.351  12.829  19.083  0.00  0.00    +0.000 A 
ATOM     18  C   UNL     1      -0.574  13.935  18.754  0.00  0.00    +0.000 A 
ATOM     19  C   UNL     1       0.797  13.778  18.562  0.00  0.00    +0.000 A 
ATOM     20  C   UNL     1       1.387  12.521  18.705  0.00  0.00    +0.000 A 
ENDBRANCH  12  15
ENDBRANCH   3   7
BRANCH   1  21
ATOM     21  C   UNL     1       6.011   4.034  17.466  0.00  0.00    +0.000 C 
BRANCH  21  26
ATOM     22  C   UNL     1       8.678   9.132  18.472  0.00  0.00    +0.000 C 
ATOM     23  C   UNL     1       8.050   7.808  18.162  0.00  0.00    +0.000 A 
ATOM     24  C   UNL     1       7.295   7.608  17.003  0.00  0.00    +0.000 A 
ATOM     25  C   UNL     1       6.672   6.380  16.756  0.00  0.00    +0.000 A 
ATOM     26  C   UNL     1       6.788   5.317  17.667  0.00  0.00    +0.000 A 
ATOM     27  C   UNL     1       7.562   5.515  18.822  0.00  0.00    +0.000 A 
ATOM     28  C   UNL     1       8.184   6.744  19.059  0.00  0.00    +0.000 A 
ENDBRANCH  21  26
ENDBRANCH   1  21
TORSDOF 4
ENDMDL
MODEL 4
REMARK VINA RESULT:      -7.9      0.604      1.071
REMARK  Name = 
REMARK  5 active torsions:
REMARK  status: ('A' for Active; 'I' for Inactive)
REMARK    1  A    between atoms: C_1  and  C_2
REMARK    2  A    between atoms: C_5  and  C_6
REMARK    3  A    between atoms: C_6  and  N_7
REMARK    4  A    between atoms: C_9  and  C_10
REMARK    5  A    between atoms: C_15  and  C_16
REMARK                            x       y       z     vdW  Elec       q    Type
REMARK                         _______ _______ _______ _____ _____    ______ ____
ROOT
ATOM      1  N   UNL     1       3.637   3.489  17.969  0.00  0.00    +0.000 N 
ATOM      2  C   UNL     1       2.484   4.329  17.755  0.00  0.00    +0.000 C 
ATOM      3  C   UNL     1       1.621   4.122  19.002  0.00  0.00    +0.000 C 
ATOM      4  C   UNL     1       2.008   2.717  19.464  0.00  0.00    +0.000 C 
ATOM      5  C   UNL     1       3.433   2.571  18.982  0.00  0.00    +0.000 C 
ATOM      6  O   UNL     1       4.225   1.739  19.392  0.00  0.00    +0.000 OA
ENDROOT
BRANCH   3   7
ATOM      7  C   UNL     1       1.915   5.139  20.117  0.00  0.00    +0.000 C 
ATOM      8  O   UNL     1       2.392   4.777  21.191  0.00  0.00    +0.000 OA
ATOM      9  N   UNL     1       1.554   6.472  19.909  0.00  0.00    +0.000 N 
ATOM     10  C   UNL     1       1.558   7.358  21.084  0.00  0.00    +0.000 C 
ATOM     11  C   UNL     1       1.013   8.731  20.769  0.00  0.00    +0.000 C 
ATOM     12  C   UNL     1       1.291   9.335  19.595  0.00  0.00    +0.000 C 
ATOM     13  C   UNL     1       2.084   8.520  18.607  0.00  0.00    +0.000 C 
ATOM     14  C   UNL     1       1.480   7.110  18.586  0.00  0.00    +0.000 C 
BRANCH  12  15
ATOM     15  C   UNL     1       0.827  10.680  19.210  0.00  0.00    +0.000 A 
ATOM     16  C   UNL     1       1.743  11.647  18.753  0.00  0.00    +0.000 A 
ATOM     17  C   UNL     1       1.297  12.894  18.308  0.00  0.00    +0.000 A 
ATOM     18  C   UNL     1      -0.060  13.199  18.307  0.00  0.00    +0.000 A 
ATOM     19  C   UNL     1      -0.976  12.253  18.761  0.00  0.00    +0.000 A 
ATOM     20  C   UNL     1      -0.536  11.006  19.209  0.00  0.00    +0.000 A 
ENDBRANCH  12  15
ENDBRANCH   3   7
BRANCH   1  21
ATOM     21  C   UNL     1       4.856   3.613  17.191  0.00  0.00    +0.000 C 
BRANCH  21  26
ATOM     22  C   UNL     1       8.144   8.400  17.816  0.00  0.00    +0.000 C 
ATOM     23  C   UNL     1       7.275   7.183  17.729  0.00  0.00    +0.000 A 
ATOM     24  C   UNL     1       7.644   5.975  18.327  0.00  0.00    +0.000 A 
ATOM     25  C   UNL     1       6.845   4.834  18.190  0.00  0.00    +0.000 A 
ATOM     26  C   UNL     1       5.653   4.873  17.448  0.00  0.00    +0.000 A 
ATOM     27  C   UNL     1       5.276   6.094  16.863  0.00  0.00    +0.000 A 
ATOM     28  C   UNL     1       6.078   7.229  17.008  0.00  0.00    +0.000 A 
ENDBRANCH  21  26
ENDBRANCH   1  21
TORSDOF 4
ENDMDL
MODEL 5
REMARK VINA RESULT:      -7.9      3.124      8.780
REMARK  Name = 
REMARK  5 active torsions:
REMARK  status: ('A' for Active; 'I' for Inactive)
REMARK    1  A    between atoms: C_1  and  C_2
REMARK    2  A    between atoms: C_5  and  C_6
REMARK    3  A    between atoms: C_6  and  N_7
REMARK    4  A    between atoms: C_9  and  C_10
REMARK    5  A    between atoms: C_15  and  C_16
REMARK                            x       y       z     vdW  Elec       q    Type
REMARK                         _______ _______ _______ _____ _____    ______ ____
ROOT
ATOM      1  N   UNL     1      -1.689  11.883  20.096  0.00  0.00    +0.000 N 
ATOM      2  C   UNL     1      -0.497  11.531  19.365  0.00  0.00    +0.000 C 
ATOM      3  C   UNL     1       0.513  11.133  20.443  0.00  0.00    +0.000 C 
ATOM      4  C   UNL     1       0.050  11.929  21.665  0.00  0.00    +0.000 C 
ATOM      5  C   UNL     1      -1.438  12.075  21.442  0.00  0.00    +0.000 C 
ATOM      6  O   UNL     1      -2.246  12.371  22.307  0.00  0.00    +0.000 OA
ENDROOT
BRANCH   3   7
ATOM      7  C   UNL     1       0.497   9.629  20.762  0.00  0.00    +0.000 C 
ATOM      8  O   UNL     1      -0.199   9.185  21.675  0.00  0.00    +0.000 OA
ATOM      9  N   UNL     1       1.350   8.790  20.041  0.00  0.00    +0.000 N 
ATOM     10  C   UNL     1       1.544   7.427  20.561  0.00  0.00    +0.000 C 
ATOM     11  C   UNL     1       2.594   6.664  19.788  0.00  0.00    +0.000 C 
ATOM     12  C   UNL     1       2.695   6.787  18.449  0.00  0.00    +0.000 C 
ATOM     13  C   UNL     1       1.772   7.789  17.807  0.00  0.00    +0.000 C 
ATOM     14  C   UNL     1       1.805   9.059  18.669  0.00  0.00    +0.000 C 
BRANCH  12  15
ATOM     15  C   UNL     1       3.668   6.065  17.609  0.00  0.00    +0.000 A 
ATOM     16  C   UNL     1       3.609   4.663  17.492  0.00  0.00    +0.000 A 
ATOM     17  C   UNL     1       4.475   3.983  16.632  0.00  0.00    +0.000 A 
ATOM     18  C   UNL     1       5.408   4.683  15.874  0.00  0.00    +0.000 A 
ATOM     19  C   UNL     1       5.480   6.070  15.983  0.00  0.00    +0.000 A 
ATOM     20  C   UNL     1       4.619   6.753  16.843  0.00  0.00    +0.000 A 
ENDBRANCH  12  15
ENDBRANCH   3   7
BRANCH   1  21
ATOM     21  C   UNL     1      -2.989  12.018  19.464  0.00  0.00    +0.000 C 
BRANCH  21  26
ATOM     22  C   UNL     1      -3.210   9.648  14.131  0.00  0.00    +0.000 C 
ATOM     23  C   UNL     1      -3.215  10.213  15.518  0.00  0.00    +0.000 A 
ATOM     24  C   UNL     1      -4.120  11.206  15.901  0.00  0.00    +0.000 A 
ATOM     25  C   UNL     1      -4.076  11.760  17.185  0.00  0.00    +0.000 A 
ATOM     26  C   UNL     1      -3.122  11.332  18.122  0.00  0.00    +0.000 A 
ATOM     27  C   UNL     1      -2.225  10.320  17.740  0.00  0.00    +0.000 A 
ATOM     28  C   UNL     1      -2.279   9.771  16.457  0.00  0.00    +0.000 A 
ENDBRANCH  21  26
ENDBRANCH   1  21
TORSDOF 4
ENDMDL
MODEL 6
REMARK VINA RESULT:      -7.8      3.152      8.747
REMARK  Name = 
REMARK  5 active torsions:
REMARK  status: ('A' for Active; 'I' for Inactive)
REMARK    1  A    between atoms: C_1  and  C_2
REMARK    2  A    between atoms: C_5  and  C_6
REMARK    3  A    between atoms: C_6  and  N_7
REMARK    4  A    between atoms: C_9  and  C_10
REMARK    5  A    between atoms: C_15  and  C_16
REMARK                            x       y       z     vdW  Elec       q    Type
REMARK                         _______ _______ _______ _____ _____    ______ ____
ROOT
ATOM      1  N   UNL     1      -1.737  11.991  20.563  0.00  0.00    +0.000 N 
ATOM      2  C   UNL     1      -0.442  11.700  20.000  0.00  0.00    +0.000 C 
ATOM      3  C   UNL     1       0.345  11.068  21.150  0.00  0.00    +0.000 C 
ATOM      4  C   UNL     1      -0.311  11.671  22.393  0.00  0.00    +0.000 C 
ATOM      5  C   UNL     1      -1.729  11.937  21.944  0.00  0.00    +0.000 C 
ATOM      6  O   UNL     1      -2.672  12.129  22.694  0.00  0.00    +0.000 OA
ENDROOT
BRANCH   3   7
ATOM      7  C   UNL     1       0.232   9.535  21.190  0.00  0.00    +0.000 C 
ATOM      8  O   UNL     1      -0.562   8.981  21.949  0.00  0.00    +0.000 OA
ATOM      9  N   UNL     1       1.108   8.786  20.402  0.00  0.00    +0.000 N 
ATOM     10  C   UNL     1       1.193   7.343  20.682  0.00  0.00    +0.000 C 
ATOM     11  C   UNL     1       2.273   6.665  19.871  0.00  0.00    +0.000 C 
ATOM     12  C   UNL     1       2.500   7.015  18.589  0.00  0.00    +0.000 C 
ATOM     13  C   UNL     1       1.684   8.168  18.066  0.00  0.00    +0.000 C 
ATOM     14  C   UNL     1       1.696   9.263  19.142  0.00  0.00    +0.000 C 
BRANCH  12  15
ATOM     15  C   UNL     1       3.510   6.394  17.713  0.00  0.00    +0.000 A 
ATOM     16  C   UNL     1       4.512   7.178  17.111  0.00  0.00    +0.000 A 
ATOM     17  C   UNL     1       5.520   6.582  16.348  0.00  0.00    +0.000 A 
ATOM     18  C   UNL     1       5.551   5.202  16.175  0.00  0.00    +0.000 A 
ATOM     19  C   UNL     1       4.562   4.415  16.761  0.00  0.00    +0.000 A 
ATOM     20  C   UNL     1       3.551   5.006  17.522  0.00  0.00    +0.000 A 
ENDBRANCH  12  15
ENDBRANCH   3   7
BRANCH   1  21
ATOM     21  C   UNL     1      -2.897  12.305  19.749  0.00  0.00    +0.000 C 
BRANCH  21  26
ATOM     22  C   UNL     1      -3.053   9.630  14.559  0.00  0.00    +0.000 C 
ATOM     23  C   UNL     1      -3.066  10.264  15.916  0.00  0.00    +0.000 A 
ATOM     24  C   UNL     1      -4.101  11.111  16.319  0.00  0.00    +0.000 A 
ATOM     25  C   UNL     1      -4.070  11.737  17.571  0.00  0.00    +0.000 A 
ATOM     26  C   UNL     1      -2.997  11.531  18.453  0.00  0.00    +0.000 A 
ATOM     27  C   UNL     1      -1.966  10.664  18.052  0.00  0.00    +0.000 A 
ATOM     28  C   UNL     1      -2.008  10.041  16.802  0.00  0.00    +0.000 A 
ENDBRANCH  21  26
ENDBRANCH   1  21
TORSDOF 4
ENDMDL
MODEL 7
REMARK VINA RESULT:      -7.8      4.195      9.824
REMARK  Name = 
REMARK  5 active torsions:
REMARK  status: ('A' for Active; 'I' for Inactive)
REMARK    1  A    between atoms: C_1  and  C_2
REMARK    2  A    between atoms: C_5  and  C_6
REMARK    3  A    between atoms: C_6  and  N_7
REMARK    4  A    between atoms: C_9  and  C_10
REMARK    5  A    between atoms: C_15  and  C_16
REMARK                            x       y       z     vdW  Elec       q    Type
REMARK                         _______ _______ _______ _____ _____    ______ ____
ROOT
ATOM      1  N   UNL     1      -0.066  14.209  20.638  0.00  0.00    +0.000 N 
ATOM      2  C   UNL     1      -0.178  13.516  19.379  0.00  0.00    +0.000 C 
ATOM      3  C   UNL     1       0.992  12.529  19.377  0.00  0.00    +0.000 C 
ATOM      4  C   UNL     1       2.021  13.207  20.282  0.00  0.00    +0.000 C 
ATOM      5  C   UNL     1       1.170  14.023  21.228  0.00  0.00    +0.000 C 
ATOM      6  O   UNL     1       1.553  14.476  22.295  0.00  0.00    +0.000 OA
ENDROOT
BRANCH   3   7
ATOM      7  C   UNL     1       0.621  11.151  19.949  0.00  0.00    +0.000 C 
ATOM      8  O   UNL     1      -0.233  11.042  20.829  0.00  0.00    +0.000 OA
ATOM      9  N   UNL     1       1.332  10.035  19.502  0.00  0.00    +0.000 N 
ATOM     10  C   UNL     1       1.178   8.790  20.272  0.00  0.00    +0.000 C 
ATOM     11  C   UNL     1       2.101   7.698  19.785  0.00  0.00    +0.000 C 
ATOM     12  C   UNL     1       2.345   7.531  18.470  0.00  0.00    +0.000 C 
ATOM     13  C   UNL     1       1.722   8.549  17.550  0.00  0.00    +0.000 C 
ATOM     14  C   UNL     1       1.954   9.932  18.173  0.00  0.00    +0.000 C 
BRANCH  12  15
ATOM     15  C   UNL     1       3.208   6.481  17.900  0.00  0.00    +0.000 A 
ATOM     16  C   UNL     1       2.804   5.132  17.927  0.00  0.00    +0.000 A 
ATOM     17  C   UNL     1       3.579   4.145  17.315  0.00  0.00    +0.000 A 
ATOM     18  C   UNL     1       4.762   4.479  16.663  0.00  0.00    +0.000 A 
ATOM     19  C   UNL     1       5.176   5.809  16.633  0.00  0.00    +0.000 A 
ATOM     20  C   UNL     1       4.406   6.799  17.247  0.00  0.00    +0.000 A 
ENDBRANCH  12  15
ENDBRANCH   3   7
BRANCH   1  21
ATOM     21  C   UNL     1      -1.142  15.008  21.195  0.00  0.00    +0.000 C 
BRANCH  21  26
ATOM     22  C   UNL     1      -4.746  12.417  24.992  0.00  0.00    +0.000 C 
ATOM     23  C   UNL     1      -3.764  13.070  24.069  0.00  0.00    +0.000 A 
ATOM     24  C   UNL     1      -3.317  14.377  24.279  0.00  0.00    +0.000 A 
ATOM     25  C   UNL     1      -2.440  14.989  23.377  0.00  0.00    +0.000 A 
ATOM     26  C   UNL     1      -1.986  14.306  22.237  0.00  0.00    +0.000 A 
ATOM     27  C   UNL     1      -2.422  12.985  22.038  0.00  0.00    +0.000 A 
ATOM     28  C   UNL     1      -3.296  12.382  22.946  0.00  0.00    +0.000 A 
ENDBRANCH  21  26
ENDBRANCH   1  21
TORSDOF 4
ENDMDL
MODEL 8
REMARK VINA RESULT:      -7.7      2.700      3.514
REMARK  Name = 
REMARK  5 active torsions:
REMARK  status: ('A' for Active; 'I' for Inactive)
REMARK    1  A    between atoms: C_1  and  C_2
REMARK    2  A    between atoms: C_5  and  C_6
REMARK    3  A    between atoms: C_6  and  N_7
REMARK    4  A    between atoms: C_9  and  C_10
REMARK    5  A    between atoms: C_15  and  C_16
REMARK                            x       y       z     vdW  Elec       q    Type
REMARK                         _______ _______ _______ _____ _____    ______ ____
ROOT
ATOM      1  N   UNL     1       4.084   5.264  17.691  0.00  0.00    +0.000 N 
ATOM      2  C   UNL     1       3.819   6.680  17.636  0.00  0.00    +0.000 C 
ATOM      3  C   UNL     1       2.384   6.823  18.148  0.00  0.00    +0.000 C 
ATOM      4  C   UNL     1       1.754   5.473  17.802  0.00  0.00    +0.000 C 
ATOM      5  C   UNL     1       2.927   4.522  17.838  0.00  0.00    +0.000 C 
ATOM      6  O   UNL     1       2.837   3.308  17.922  0.00  0.00    +0.000 OA
ENDROOT
BRANCH   3   7
ATOM      7  C   UNL     1       2.304   7.064  19.665  0.00  0.00    +0.000 C 
ATOM      8  O   UNL     1       2.944   6.363  20.449  0.00  0.00    +0.000 OA
ATOM      9  N   UNL     1       1.428   8.044  20.135  0.00  0.00    +0.000 N 
ATOM     10  C   UNL     1       1.140   8.048  21.578  0.00  0.00    +0.000 C 
ATOM     11  C   UNL     1       0.073   9.052  21.946  0.00  0.00    +0.000 C 
ATOM     12  C   UNL     1       0.021  10.259  21.348  0.00  0.00    +0.000 C 
ATOM     13  C   UNL     1       1.019  10.492  20.244  0.00  0.00    +0.000 C 
ATOM     14  C   UNL     1       1.032   9.233  19.366  0.00  0.00    +0.000 C 
BRANCH  12  15
ATOM     15  C   UNL     1      -0.964  11.311  21.659  0.00  0.00    +0.000 A 
ATOM     16  C   UNL     1      -1.435  12.170  20.648  0.00  0.00    +0.000 A 
ATOM     17  C   UNL     1      -2.429  13.113  20.921  0.00  0.00    +0.000 A 
ATOM     18  C   UNL     1      -2.973  13.215  22.197  0.00  0.00    +0.000 A 
ATOM     19  C   UNL     1      -2.513  12.375  23.209  0.00  0.00    +0.000 A 
ATOM     20  C   UNL     1      -1.517  11.433  22.941  0.00  0.00    +0.000 A 
ENDBRANCH  12  15
ENDBRANCH   3   7
BRANCH   1  21
ATOM     21  C   UNL     1       5.422   4.709  17.596  0.00  0.00    +0.000 C 
BRANCH  21  26
ATOM     22  C   UNL     1       7.240   4.448  12.052  0.00  0.00    +0.000 C 
ATOM     23  C   UNL     1       6.803   4.443  13.485  0.00  0.00    +0.000 A 
ATOM     24  C   UNL     1       5.664   3.750  13.900  0.00  0.00    +0.000 A 
ATOM     25  C   UNL     1       5.240   3.800  15.233  0.00  0.00    +0.000 A 
ATOM     26  C   UNL     1       5.949   4.549  16.187  0.00  0.00    +0.000 A 
ATOM     27  C   UNL     1       7.105   5.230  15.769  0.00  0.00    +0.000 A 
ATOM     28  C   UNL     1       7.521   5.171  14.437  0.00  0.00    +0.000 A 
ENDBRANCH  21  26
ENDBRANCH   1  21
TORSDOF 4
ENDMDL
MODEL 9
REMARK VINA RESULT:      -7.7      1.635      2.574
REMARK  Name = 
REMARK  5 active torsions:
REMARK  status: ('A' for Active; 'I' for Inactive)
REMARK    1  A    between atoms: C_1  and  C_2
REMARK    2  A    between atoms: C_5  and  C_6
REMARK    3  A    between atoms: C_6  and  N_7
REMARK    4  A    between atoms: C_9  and  C_10
REMARK    5  A    between atoms: C_15  and  C_16
REMARK                            x       y       z     vdW  Elec       q    Type
REMARK                         _______ _______ _______ _____ _____    ______ ____
ROOT
ATOM      1  N   UNL     1       4.583   4.207  18.353  0.00  0.00    +0.000 N 
ATOM      2  C   UNL     1       3.457   4.972  17.877  0.00  0.00    +0.000 C 
ATOM      3  C   UNL     1       2.325   4.638  18.851  0.00  0.00    +0.000 C 
ATOM      4  C   UNL     1       2.697   3.240  19.350  0.00  0.00    +0.000 C 
ATOM      5  C   UNL     1       4.204   3.223  19.247  0.00  0.00    +0.000 C 
ATOM      6  O   UNL     1       4.933   2.428  19.819  0.00  0.00    +0.000 OA
ENDROOT
BRANCH   3   7
ATOM      7  C   UNL     1       2.240   5.611  20.038  0.00  0.00    +0.000 C 
ATOM      8  O   UNL     1       2.544   5.249  21.174  0.00  0.00    +0.000 OA
ATOM      9  N   UNL     1       1.734   6.892  19.809  0.00  0.00    +0.000 N 
ATOM     10  C   UNL     1       1.376   7.692  20.991  0.00  0.00    +0.000 C 
ATOM     11  C   UNL     1       0.706   8.995  20.620  0.00  0.00    +0.000 C 
ATOM     12  C   UNL     1       1.117   9.705  19.550  0.00  0.00    +0.000 C 
ATOM     13  C   UNL     1       2.202   9.074  18.716  0.00  0.00    +0.000 C 
ATOM     14  C   UNL     1       1.828   7.598  18.522  0.00  0.00    +0.000 C 
BRANCH  12  15
ATOM     15  C   UNL     1       0.545  10.996  19.126  0.00  0.00    +0.000 A 
ATOM     16  C   UNL     1       1.346  12.153  19.085  0.00  0.00    +0.000 A 
ATOM     17  C   UNL     1       0.829  13.359  18.605  0.00  0.00    +0.000 A 
ATOM     18  C   UNL     1      -0.485  13.435  18.156  0.00  0.00    +0.000 A 
ATOM     19  C   UNL     1      -1.290  12.298  18.196  0.00  0.00    +0.000 A 
ATOM     20  C   UNL     1      -0.780  11.091  18.678  0.00  0.00    +0.000 A 
ENDBRANCH  12  15
ENDBRANCH   3   7
BRANCH   1  21
ATOM     21  C   UNL     1       5.945   4.459  17.920  0.00  0.00    +0.000 C 
BRANCH  21  26
ATOM     22  C   UNL     1       7.006   4.191  12.183  0.00  0.00    +0.000 C 
ATOM     23  C   UNL     1       6.695   4.327  13.642  0.00  0.00    +0.000 A 
ATOM     24  C   UNL     1       7.400   5.211  14.462  0.00  0.00    +0.000 A 
ATOM     25  C   UNL     1       7.131   5.286  15.834  0.00  0.00    +0.000 A 
ATOM     26  C   UNL     1       6.148   4.474  16.421  0.00  0.00    +0.000 A 
ATOM     27  C   UNL     1       5.428   3.598  15.590  0.00  0.00    +0.000 A 
ATOM     28  C   UNL     1       5.701   3.533  14.221  0.00  0.00    +0.000 A 
ENDBRANCH  21  26
ENDBRANCH   1  21
TORSDOF 4
ENDMDL
