MODEL 1
REMARK VINA RESULT:      -7.7      0.000      0.000
REMARK  Name = 
REMARK  7 active torsions:
REMARK  status: ('A' for Active; 'I' for Inactive)
REMARK    1  A    between atoms: C_2  and  O_3
REMARK    2  A    between atoms: C_2  and  C_4
REMARK    3  A    between atoms: N_6  and  C_7
REMARK    4  A    between atoms: C_7  and  C_8
REMARK    5  A    between atoms: C_15  and  C_16
REMARK    6  A    between atoms: C_16  and  O_18
REMARK    7  A    between atoms: C_19  and  C_20
REMARK                            x       y       z     vdW  Elec       q    Type
REMARK                         _______ _______ _______ _____ _____    ______ ____
ROOT
ATOM      1  C   UNL     1       0.655   9.139  21.578  0.00  0.00    +0.000 C 
ATOM      2  C   UNL     1       1.197   7.947  21.239  0.00  0.00    +0.000 C 
ATOM      3  N   UNL     1       1.873   7.705  20.051  0.00  0.00    +0.000 N 
ATOM      4  C   UNL     1       1.924   8.726  19.111  0.00  0.00    +0.000 C 
ATOM      5  C   UNL     1       1.470   9.982  19.321  0.00  0.00    +0.000 C 
ATOM      6  C   UNL     1       0.900  10.389  20.689  0.00  0.00    +0.000 C 
ENDROOT
BRANCH   6   7
ATOM      7  C   UNL     1      -0.275  11.372  20.662  0.00  0.00    +0.000 A 
ATOM      8  C   UNL     1      -1.400  11.248  19.861  0.00  0.00    +0.000 A 
ATOM      9  N   UNL     1      -2.452  12.113  19.865  0.00  0.00    +0.000 NA
ATOM     10  C   UNL     1      -2.505  13.048  20.835  0.00  0.00    +0.000 A 
ATOM     11  C   UNL     1      -3.624  13.864  20.981  0.00  0.00    +0.000 A 
ATOM     12  C   UNL     1      -3.837  14.616  22.143  0.00  0.00    +0.000 A 
ATOM     13  C   UNL     1      -2.890  14.593  23.158  0.00  0.00    +0.000 A 
ATOM     14  C   UNL     1      -1.681  13.934  22.947  0.00  0.00    +0.000 A 
ATOM     15  C   UNL     1      -1.477  13.177  21.778  0.00  0.00    +0.000 A 
ATOM     16  C   UNL     1      -0.302  12.442  21.569  0.00  0.00    +0.000 A 
ENDBRANCH   6   7
BRANCH   1  18
ATOM     17  O   UNL     1       0.594   9.736  23.880  0.00  0.00    +0.000 OA
ATOM     18  C   UNL     1       0.035   9.246  22.914  0.00  0.00    +0.000 C 
BRANCH  18  19
ATOM     19  O   UNL     1      -1.208   8.722  23.007  0.00  0.00    +0.000 OA
ATOM     20  H   UNL     1      -1.814   9.156  23.636  0.00  0.00    +0.000 HD
ENDBRANCH  18  19
ENDBRANCH   1  18
BRANCH   5  21
ATOM     21  C   UNL     1       1.794  10.969  18.286  0.00  0.00    +0.000 C 
ATOM     22  O   UNL     1       1.775  12.173  18.420  0.00  0.00    +0.000 OA
BRANCH  21  23
ATOM     23  O   UNL     1       2.199  10.406  17.122  0.00  0.00    +0.000 OA
ATOM     24  H   UNL     1       2.637   9.570  17.385  0.00  0.00    +0.000 HD
ENDBRANCH  21  23
ENDBRANCH   5  21
BRANCH   3  25
ATOM     25  C   UNL     1       2.745   6.519  19.886  0.00  0.00    +0.000 C 
BRANCH  25  26
ATOM     26  C   UNL     1       2.022   5.248  19.502  0.00  0.00    +0.000 A 
ATOM     27  C   UNL     1       1.991   4.752  18.193  0.00  0.00    +0.000 A 
ATOM     28  C   UNL     1       1.413   3.512  17.911  0.00  0.00    +0.000 A 
ATOM     29  C   UNL     1       0.871   2.742  18.941  0.00  0.00    +0.000 A 
ATOM     30  C   UNL     1       0.889   3.218  20.246  0.00  0.00    +0.000 A 
ATOM     31  C   UNL     1       1.460   4.462  20.526  0.00  0.00    +0.000 A 
ENDBRANCH  25  26
ENDBRANCH   3  25
TORSDOF 7
ENDMDL
MODEL 2
REMARK VINA RESULT:      -7.5      5.147      7.932
REMARK  Name = 
REMARK  7 active torsions:
REMARK  status: ('A' for Active; 'I' for Inactive)
REMARK    1  A    between atoms: C_2  and  O_3
REMARK    2  A    between atoms: C_2  and  C_4
REMARK    3  A    between atoms: N_6  and  C_7
REMARK    4  A    between atoms: C_7  and  C_8
REMARK    5  A    between atoms: C_15  and  C_16
REMARK    6  A    between atoms: C_16  and  O_18
REMARK    7  A    between atoms: C_19  and  C_20
REMARK                            x       y       z     vdW  Elec       q    Type
REMARK                         _______ _______ _______ _____ _____    ______ ____
ROOT
ATOM      1  C   UNL     1       4.480   4.011  16.578  0.00  0.00    +0.000 C 
ATOM      2  C   UNL     1       5.067   3.770  15.383  0.00  0.00    +0.000 C 
ATOM      3  N   UNL     1       6.092   4.537  14.847  0.00  0.00    +0.000 N 
ATOM      4  C   UNL     1       6.485   5.675  15.539  0.00  0.00    +0.000 C 
ATOM      5  C   UNL     1       6.026   6.023  16.762  0.00  0.00    +0.000 C 
ATOM      6  C   UNL     1       5.046   5.111  17.518  0.00  0.00    +0.000 C 
ENDROOT
BRANCH   6   7
ATOM      7  C   UNL     1       3.978   5.823  18.356  0.00  0.00    +0.000 A 
ATOM      8  C   UNL     1       3.768   5.627  19.712  0.00  0.00    +0.000 A 
ATOM      9  N   UNL     1       2.834   6.285  20.453  0.00  0.00    +0.000 NA
ATOM     10  C   UNL     1       2.194   7.330  19.891  0.00  0.00    +0.000 A 
ATOM     11  C   UNL     1       1.338   8.133  20.641  0.00  0.00    +0.000 A 
ATOM     12  C   UNL     1       0.908   9.382  20.176  0.00  0.00    +0.000 A 
ATOM     13  C   UNL     1       1.299   9.817  18.916  0.00  0.00    +0.000 A 
ATOM     14  C   UNL     1       1.996   8.947  18.081  0.00  0.00    +0.000 A 
ATOM     15  C   UNL     1       2.428   7.695  18.558  0.00  0.00    +0.000 A 
ATOM     16  C   UNL     1       3.195   6.827  17.768  0.00  0.00    +0.000 A 
ENDBRANCH   6   7
BRANCH   1  18
ATOM     17  O   UNL     1       2.264   3.174  16.798  0.00  0.00    +0.000 OA
ATOM     18  C   UNL     1       3.454   3.053  17.035  0.00  0.00    +0.000 C 
BRANCH  18  19
ATOM     19  O   UNL     1       3.925   2.029  17.781  0.00  0.00    +0.000 OA
ATOM     20  H   UNL     1       3.305   1.644  18.427  0.00  0.00    +0.000 HD
ENDBRANCH  18  19
ENDBRANCH   1  18
BRANCH   5  21
ATOM     21  C   UNL     1       6.707   7.147  17.413  0.00  0.00    +0.000 C 
ATOM     22  O   UNL     1       6.587   8.317  17.122  0.00  0.00    +0.000 OA
BRANCH  21  23
ATOM     23  O   UNL     1       7.474   6.767  18.463  0.00  0.00    +0.000 OA
ATOM     24  H   UNL     1       8.304   7.279  18.369  0.00  0.00    +0.000 HD
ENDBRANCH  21  23
ENDBRANCH   5  21
BRANCH   3  25
ATOM     25  C   UNL     1       6.932   4.035  13.735  0.00  0.00    +0.000 C 
BRANCH  25  26
ATOM     26  C   UNL     1       6.168   3.374  12.610  0.00  0.00    +0.000 A 
ATOM     27  C   UNL     1       6.586   2.185  11.998  0.00  0.00    +0.000 A 
ATOM     28  C   UNL     1       5.785   1.551  11.046  0.00  0.00    +0.000 A 
ATOM     29  C   UNL     1       4.543   2.089  10.705  0.00  0.00    +0.000 A 
ATOM     30  C   UNL     1       4.112   3.268  11.299  0.00  0.00    +0.000 A 
ATOM     31  C   UNL     1       4.918   3.908  12.245  0.00  0.00    +0.000 A 
ENDBRANCH  25  26
ENDBRANCH   3  25
TORSDOF 7
ENDMDL
MODEL 3
REMARK VINA RESULT:      -7.5      0.817      1.260
REMARK  Name = 
REMARK  7 active torsions:
REMARK  status: ('A' for Active; 'I' for Inactive)
REMARK    1  A    between atoms: C_2  and  O_3
REMARK    2  A    between atoms: C_2  and  C_4
REMARK    3  A    between atoms: N_6  and  C_7
REMARK    4  A    between atoms: C_7  and  C_8
REMARK    5  A    between atoms: C_15  and  C_16
REMARK    6  A    between atoms: C_16  and  O_18
REMARK    7  A    between atoms: C_19  and  C_20
REMARK                            x       y       z     vdW  Elec       q    Type
REMARK                         _______ _______ _______ _____ _____    ______ ____
ROOT
ATOM      1  C   UNL     1       0.699   9.463  21.243  0.00  0.00    +0.000 C 
ATOM      2  C   UNL     1       1.237   8.399  20.604  0.00  0.00    +0.000 C 
ATOM      3  N   UNL     1       1.800   8.453  19.336  0.00  0.00    +0.000 N 
ATOM      4  C   UNL     1       1.731   9.654  18.642  0.00  0.00    +0.000 C 
ATOM      5  C   UNL     1       1.266  10.812  19.163  0.00  0.00    +0.000 C 
ATOM      6  C   UNL     1       0.822  10.886  20.632  0.00  0.00    +0.000 C 
ENDROOT
BRANCH   6   7
ATOM      7  C   UNL     1      -0.376  11.795  20.926  0.00  0.00    +0.000 A 
ATOM      8  C   UNL     1      -1.634  11.666  20.358  0.00  0.00    +0.000 A 
ATOM      9  N   UNL     1      -2.700  12.462  20.648  0.00  0.00    +0.000 NA
ATOM     10  C   UNL     1      -2.596  13.314  21.687  0.00  0.00    +0.000 A 
ATOM     11  C   UNL     1      -3.696  14.047  22.126  0.00  0.00    +0.000 A 
ATOM     12  C   UNL     1      -3.701  14.691  23.368  0.00  0.00    +0.000 A 
ATOM     13  C   UNL     1      -2.567  14.647  24.169  0.00  0.00    +0.000 A 
ATOM     14  C   UNL     1      -1.399  14.081  23.664  0.00  0.00    +0.000 A 
ATOM     15  C   UNL     1      -1.404  13.431  22.416  0.00  0.00    +0.000 A 
ATOM     16  C   UNL     1      -0.265  12.787  21.912  0.00  0.00    +0.000 A 
ENDBRANCH   6   7
BRANCH   1  18
ATOM     17  O   UNL     1       0.772   9.682  23.611  0.00  0.00    +0.000 OA
ATOM     18  C   UNL     1       0.209   9.250  22.620  0.00  0.00    +0.000 C 
BRANCH  18  19
ATOM     19  O   UNL     1      -0.910   8.497  22.714  0.00  0.00    +0.000 OA
ATOM     20  H   UNL     1      -1.293   8.402  23.606  0.00  0.00    +0.000 HD
ENDBRANCH  18  19
ENDBRANCH   1  18
BRANCH   5  21
ATOM     21  C   UNL     1       1.461  12.014  18.345  0.00  0.00    +0.000 C 
ATOM     22  O   UNL     1       0.781  13.016  18.379  0.00  0.00    +0.000 OA
BRANCH  21  23
ATOM     23  O   UNL     1       2.555  11.943  17.549  0.00  0.00    +0.000 OA
ATOM     24  H   UNL     1       2.483  11.078  17.095  0.00  0.00    +0.000 HD
ENDBRANCH  21  23
ENDBRANCH   5  21
BRANCH   3  25
ATOM     25  C   UNL     1       2.683   7.374  18.837  0.00  0.00    +0.000 C 
BRANCH  25  26
ATOM     26  C   UNL     1       2.202   5.971  19.133  0.00  0.00    +0.000 A 
ATOM     27  C   UNL     1       1.881   5.529  20.422  0.00  0.00    +0.000 A 
ATOM     28  C   UNL     1       1.328   4.264  20.628  0.00  0.00    +0.000 A 
ATOM     29  C   UNL     1       1.071   3.426  19.541  0.00  0.00    +0.000 A 
ATOM     30  C   UNL     1       1.385   3.845  18.254  0.00  0.00    +0.000 A 
ATOM     31  C   UNL     1       1.947   5.108  18.050  0.00  0.00    +0.000 A 
ENDBRANCH  25  26
ENDBRANCH   3  25
TORSDOF 7
ENDMDL
MODEL 4
REMARK VINA RESULT:      -7.4      0.913      1.034
REMARK  Name = 
REMARK  7 active torsions:
REMARK  status: ('A' for Active; 'I' for Inactive)
REMARK    1  A    between atoms: C_2  and  O_3
REMARK    2  A    between atoms: C_2  and  C_4
REMARK    3  A    between atoms: N_6  and  C_7
REMARK    4  A    between atoms: C_7  and  C_8
REMARK    5  A    between atoms: C_15  and  C_16
REMARK    6  A    between atoms: C_16  and  O_18
REMARK    7  A    between atoms: C_19  and  C_20
REMARK                            x       y       z     vdW  Elec       q    Type
REMARK                         _______ _______ _______ _____ _____    ______ ____
ROOT
ATOM      1  C   UNL     1       0.617   9.496  21.427  0.00  0.00    +0.000 C 
ATOM      2  C   UNL     1       1.150   8.430  20.789  0.00  0.00    +0.000 C 
ATOM      3  N   UNL     1       1.722   8.481  19.525  0.00  0.00    +0.000 N 
ATOM      4  C   UNL     1       1.668   9.685  18.834  0.00  0.00    +0.000 C 
ATOM      5  C   UNL     1       1.209  10.845  19.354  0.00  0.00    +0.000 C 
ATOM      6  C   UNL     1       0.756  10.920  20.820  0.00  0.00    +0.000 C 
ENDROOT
BRANCH   6   7
ATOM      7  C   UNL     1      -0.437  11.838  21.108  0.00  0.00    +0.000 A 
ATOM      8  C   UNL     1      -1.701  11.701  20.555  0.00  0.00    +0.000 A 
ATOM      9  N   UNL     1      -2.762  12.506  20.840  0.00  0.00    +0.000 NA
ATOM     10  C   UNL     1      -2.645  13.377  21.861  0.00  0.00    +0.000 A 
ATOM     11  C   UNL     1      -3.739  14.122  22.296  0.00  0.00    +0.000 A 
ATOM     12  C   UNL     1      -3.730  14.791  23.526  0.00  0.00    +0.000 A 
ATOM     13  C   UNL     1      -2.588  14.759  24.316  0.00  0.00    +0.000 A 
ATOM     14  C   UNL     1      -1.426  14.180  23.810  0.00  0.00    +0.000 A 
ATOM     15  C   UNL     1      -1.446  13.505  22.575  0.00  0.00    +0.000 A 
ATOM     16  C   UNL     1      -0.313  12.849  22.074  0.00  0.00    +0.000 A 
ENDBRANCH   6   7
BRANCH   1  18
ATOM     17  O   UNL     1       0.669   9.719  23.795  0.00  0.00    +0.000 OA
ATOM     18  C   UNL     1       0.115   9.284  22.800  0.00  0.00    +0.000 C 
BRANCH  18  19
ATOM     19  O   UNL     1      -1.002   8.529  22.886  0.00  0.00    +0.000 OA
ATOM     20  H   UNL     1      -0.924   7.604  22.586  0.00  0.00    +0.000 HD
ENDBRANCH  18  19
ENDBRANCH   1  18
BRANCH   5  21
ATOM     21  C   UNL     1       1.420  12.047  18.540  0.00  0.00    +0.000 C 
ATOM     22  O   UNL     1       2.469  12.636  18.399  0.00  0.00    +0.000 OA
BRANCH  21  23
ATOM     23  O   UNL     1       0.309  12.436  17.869  0.00  0.00    +0.000 OA
ATOM     24  H   UNL     1       0.079  11.676  17.297  0.00  0.00    +0.000 HD
ENDBRANCH  21  23
ENDBRANCH   5  21
BRANCH   3  25
ATOM     25  C   UNL     1       2.600   7.396  19.030  0.00  0.00    +0.000 C 
BRANCH  25  26
ATOM     26  C   UNL     1       2.027   6.003  19.168  0.00  0.00    +0.000 A 
ATOM     27  C   UNL     1       1.832   5.145  18.078  0.00  0.00    +0.000 A 
ATOM     28  C   UNL     1       1.414   3.827  18.271  0.00  0.00    +0.000 A 
ATOM     29  C   UNL     1       1.200   3.343  19.562  0.00  0.00    +0.000 A 
ATOM     30  C   UNL     1       1.386   4.178  20.656  0.00  0.00    +0.000 A 
ATOM     31  C   UNL     1       1.796   5.500  20.462  0.00  0.00    +0.000 A 
ENDBRANCH  25  26
ENDBRANCH   3  25
TORSDOF 7
ENDMDL
MODEL 5
REMARK VINA RESULT:      -7.3      2.451      8.448
REMARK  Name = 
REMARK  7 active torsions:
REMARK  status: ('A' for Active; 'I' for Inactive)
REMARK    1  A    between atoms: C_2  and  O_3
REMARK    2  A    between atoms: C_2  and  C_4
REMARK    3  A    between atoms: N_6  and  C_7
REMARK    4  A    between atoms: C_7  and  C_8
REMARK    5  A    between atoms: C_15  and  C_16
REMARK    6  A    between atoms: C_16  and  O_18
REMARK    7  A    between atoms: C_19  and  C_20
REMARK                            x       y       z     vdW  Elec       q    Type
REMARK                         _______ _______ _______ _____ _____    ______ ____
ROOT
ATOM      1  C   UNL     1      -2.405  11.576  18.989  0.00  0.00    +0.000 C 
ATOM      2  C   UNL     1      -3.595  12.153  19.268  0.00  0.00    +0.000 C 
ATOM      3  N   UNL     1      -3.860  12.878  20.422  0.00  0.00    +0.000 N 
ATOM      4  C   UNL     1      -2.868  12.945  21.392  0.00  0.00    +0.000 C 
ATOM      5  C   UNL     1      -1.616  12.458  21.240  0.00  0.00    +0.000 C 
ATOM      6  C   UNL     1      -1.178  11.830  19.907  0.00  0.00    +0.000 C 
ENDROOT
BRANCH   6   7
ATOM      7  C   UNL     1      -0.221  10.637  20.011  0.00  0.00    +0.000 A 
ATOM      8  C   UNL     1      -0.331   9.603  20.927  0.00  0.00    +0.000 A 
ATOM      9  N   UNL     1       0.510   8.534  20.991  0.00  0.00    +0.000 NA
ATOM     10  C   UNL     1       1.396   8.358  19.991  0.00  0.00    +0.000 A 
ATOM     11  C   UNL     1       2.180   7.208  19.922  0.00  0.00    +0.000 A 
ATOM     12  C   UNL     1       2.871   6.859  18.756  0.00  0.00    +0.000 A 
ATOM     13  C   UNL     1       2.820   7.700  17.651  0.00  0.00    +0.000 A 
ATOM     14  C   UNL     1       2.198   8.941  17.767  0.00  0.00    +0.000 A 
ATOM     15  C   UNL     1       1.502   9.281  18.942  0.00  0.00    +0.000 A 
ATOM     16  C   UNL     1       0.804  10.491  19.063  0.00  0.00    +0.000 A 
ENDBRANCH   6   7
BRANCH   1  18
ATOM     17  O   UNL     1      -2.420   9.704  17.520  0.00  0.00    +0.000 OA
ATOM     18  C   UNL     1      -2.268  10.903  17.681  0.00  0.00    +0.000 C 
BRANCH  18  19
ATOM     19  O   UNL     1      -1.921  11.715  16.658  0.00  0.00    +0.000 OA
ATOM     20  H   UNL     1      -1.657  12.623  16.897  0.00  0.00    +0.000 HD
ENDBRANCH  18  19
ENDBRANCH   1  18
BRANCH   5  21
ATOM     21  C   UNL     1      -0.656  12.803  22.294  0.00  0.00    +0.000 C 
ATOM     22  O   UNL     1       0.089  13.759  22.293  0.00  0.00    +0.000 OA
BRANCH  21  23
ATOM     23  O   UNL     1      -0.708  11.963  23.356  0.00  0.00    +0.000 OA
ATOM     24  H   UNL     1      -1.277  12.418  24.011  0.00  0.00    +0.000 HD
ENDBRANCH  21  23
ENDBRANCH   5  21
BRANCH   3  25
ATOM     25  C   UNL     1      -5.033  13.778  20.517  0.00  0.00    +0.000 C 
BRANCH  25  26
ATOM     26  C   UNL     1      -5.865  13.609  21.768  0.00  0.00    +0.000 A 
ATOM     27  C   UNL     1      -5.913  14.565  22.790  0.00  0.00    +0.000 A 
ATOM     28  C   UNL     1      -6.788  14.418  23.868  0.00  0.00    +0.000 A 
ATOM     29  C   UNL     1      -7.641  13.315  23.930  0.00  0.00    +0.000 A 
ATOM     30  C   UNL     1      -7.607  12.354  22.929  0.00  0.00    +0.000 A 
ATOM     31  C   UNL     1      -6.725  12.498  21.854  0.00  0.00    +0.000 A 
ENDBRANCH  25  26
ENDBRANCH   3  25
TORSDOF 7
ENDMDL
MODEL 6
REMARK VINA RESULT:      -7.2      1.147      1.496
REMARK  Name = 
REMARK  7 active torsions:
REMARK  status: ('A' for Active; 'I' for Inactive)
REMARK    1  A    between atoms: C_2  and  O_3
REMARK    2  A    between atoms: C_2  and  C_4
REMARK    3  A    between atoms: N_6  and  C_7
REMARK    4  A    between atoms: C_7  and  C_8
REMARK    5  A    between atoms: C_15  and  C_16
REMARK    6  A    between atoms: C_16  and  O_18
REMARK    7  A    between atoms: C_19  and  C_20
REMARK                            x       y       z     vdW  Elec       q    Type
REMARK                         _______ _______ _______ _____ _____    ______ ____
ROOT
ATOM      1  C   UNL     1       0.777   9.432  20.633  0.00  0.00    +0.000 C 
ATOM      2  C   UNL     1       1.349   8.476  19.866  0.00  0.00    +0.000 C 
ATOM      3  N   UNL     1       1.958   8.716  18.642  0.00  0.00    +0.000 N 
ATOM      4  C   UNL     1       1.903  10.006  18.129  0.00  0.00    +0.000 C 
ATOM      5  C   UNL     1       1.408  11.073  18.795  0.00  0.00    +0.000 C 
ATOM      6  C   UNL     1       0.910  10.930  20.241  0.00  0.00    +0.000 C 
ENDROOT
BRANCH   6   7
ATOM      7  C   UNL     1      -0.308  11.781  20.619  0.00  0.00    +0.000 A 
ATOM      8  C   UNL     1      -1.567  11.670  20.049  0.00  0.00    +0.000 A 
ATOM      9  N   UNL     1      -2.649  12.412  20.412  0.00  0.00    +0.000 NA
ATOM     10  C   UNL     1      -2.557  13.175  21.520  0.00  0.00    +0.000 A 
ATOM     11  C   UNL     1      -3.671  13.841  22.026  0.00  0.00    +0.000 A 
ATOM     12  C   UNL     1      -3.681  14.377  23.319  0.00  0.00    +0.000 A 
ATOM     13  C   UNL     1      -2.539  14.293  24.106  0.00  0.00    +0.000 A 
ATOM     14  C   UNL     1      -1.362  13.801  23.547  0.00  0.00    +0.000 A 
ATOM     15  C   UNL     1      -1.362  13.259  22.248  0.00  0.00    +0.000 A 
ATOM     16  C   UNL     1      -0.212  12.689  21.685  0.00  0.00    +0.000 A 
ENDBRANCH   6   7
BRANCH   1  18
ATOM     17  O   UNL     1      -0.751   8.319  22.077  0.00  0.00    +0.000 OA
ATOM     18  C   UNL     1       0.239   9.018  21.944  0.00  0.00    +0.000 C 
BRANCH  18  19
ATOM     19  O   UNL     1       0.909   9.505  23.013  0.00  0.00    +0.000 OA
ATOM     20  H   UNL     1       1.325  10.379  22.900  0.00  0.00    +0.000 HD
ENDBRANCH  18  19
ENDBRANCH   1  18
BRANCH   5  21
ATOM     21  C   UNL     1       1.622  12.382  18.168  0.00  0.00    +0.000 C 
ATOM     22  O   UNL     1       0.958  13.378  18.359  0.00  0.00    +0.000 OA
BRANCH  21  23
ATOM     23  O   UNL     1       2.712  12.416  17.366  0.00  0.00    +0.000 OA
ATOM     24  H   UNL     1       2.671  13.287  16.919  0.00  0.00    +0.000 HD
ENDBRANCH  21  23
ENDBRANCH   5  21
BRANCH   3  25
ATOM     25  C   UNL     1       2.869   7.725  18.025  0.00  0.00    +0.000 C 
BRANCH  25  26
ATOM     26  C   UNL     1       2.637   6.294  18.454  0.00  0.00    +0.000 A 
ATOM     27  C   UNL     1       1.717   5.446  17.825  0.00  0.00    +0.000 A 
ATOM     28  C   UNL     1       1.625   4.099  18.181  0.00  0.00    +0.000 A 
ATOM     29  C   UNL     1       2.467   3.576  19.163  0.00  0.00    +0.000 A 
ATOM     30  C   UNL     1       3.384   4.401  19.801  0.00  0.00    +0.000 A 
ATOM     31  C   UNL     1       3.470   5.751  19.451  0.00  0.00    +0.000 A 
ENDBRANCH  25  26
ENDBRANCH   3  25
TORSDOF 7
ENDMDL
MODEL 7
REMARK VINA RESULT:      -7.1      1.195      1.969
REMARK  Name = 
REMARK  7 active torsions:
REMARK  status: ('A' for Active; 'I' for Inactive)
REMARK    1  A    between atoms: C_2  and  O_3
REMARK    2  A    between atoms: C_2  and  C_4
REMARK    3  A    between atoms: N_6  and  C_7
REMARK    4  A    between atoms: C_7  and  C_8
REMARK    5  A    between atoms: C_15  and  C_16
REMARK    6  A    between atoms: C_16  and  O_18
REMARK    7  A    between atoms: C_19  and  C_20
REMARK                            x       y       z     vdW  Elec       q    Type
REMARK                         _______ _______ _______ _____ _____    ______ ____
ROOT
ATOM      1  C   UNL     1       0.658   9.593  21.349  0.00  0.00    +0.000 C 
ATOM      2  C   UNL     1       1.161   8.576  20.612  0.00  0.00    +0.000 C 
ATOM      3  N   UNL     1       1.650   8.715  19.320  0.00  0.00    +0.000 N 
ATOM      4  C   UNL     1       1.538   9.958  18.711  0.00  0.00    +0.000 C 
ATOM      5  C   UNL     1       1.100  11.077  19.331  0.00  0.00    +0.000 C 
ATOM      6  C   UNL     1       0.742  11.053  20.825  0.00  0.00    +0.000 C 
ENDROOT
BRANCH   6   7
ATOM      7  C   UNL     1      -0.441  11.933  21.246  0.00  0.00    +0.000 A 
ATOM      8  C   UNL     1      -0.347  13.073  22.030  0.00  0.00    +0.000 A 
ATOM      9  N   UNL     1      -1.401  13.863  22.374  0.00  0.00    +0.000 NA
ATOM     10  C   UNL     1      -2.586  13.645  21.770  0.00  0.00    +0.000 A 
ATOM     11  C   UNL     1      -3.661  14.509  21.969  0.00  0.00    +0.000 A 
ATOM     12  C   UNL     1      -4.784  14.487  21.134  0.00  0.00    +0.000 A 
ATOM     13  C   UNL     1      -4.861  13.551  20.110  0.00  0.00    +0.000 A 
ATOM     14  C   UNL     1      -3.885  12.561  20.019  0.00  0.00    +0.000 A 
ATOM     15  C   UNL     1      -2.756  12.594  20.860  0.00  0.00    +0.000 A 
ATOM     16  C   UNL     1      -1.721  11.656  20.744  0.00  0.00    +0.000 A 
ENDBRANCH   6   7
BRANCH   1  18
ATOM     17  O   UNL     1       0.881   9.638  23.717  0.00  0.00    +0.000 OA
ATOM     18  C   UNL     1       0.249   9.288  22.735  0.00  0.00    +0.000 C 
BRANCH  18  19
ATOM     19  O   UNL     1      -0.877   8.549  22.845  0.00  0.00    +0.000 OA
ATOM     20  H   UNL     1      -1.656   8.873  22.357  0.00  0.00    +0.000 HD
ENDBRANCH  18  19
ENDBRANCH   1  18
BRANCH   5  21
ATOM     21  C   UNL     1       1.244  12.330  18.582  0.00  0.00    +0.000 C 
ATOM     22  O   UNL     1       2.250  13.000  18.504  0.00  0.00    +0.000 OA
BRANCH  21  23
ATOM     23  O   UNL     1       0.126  12.671  17.896  0.00  0.00    +0.000 OA
ATOM     24  H   UNL     1      -0.026  11.929  17.275  0.00  0.00    +0.000 HD
ENDBRANCH  21  23
ENDBRANCH   5  21
BRANCH   3  25
ATOM     25  C   UNL     1       2.505   7.677  18.701  0.00  0.00    +0.000 C 
BRANCH  25  26
ATOM     26  C   UNL     1       2.139   6.254  19.062  0.00  0.00    +0.000 A 
ATOM     27  C   UNL     1       1.858   5.846  20.372  0.00  0.00    +0.000 A 
ATOM     28  C   UNL     1       1.408   4.551  20.637  0.00  0.00    +0.000 A 
ATOM     29  C   UNL     1       1.219   3.648  19.589  0.00  0.00    +0.000 A 
ATOM     30  C   UNL     1       1.495   4.033  18.283  0.00  0.00    +0.000 A 
ATOM     31  C   UNL     1       1.953   5.327  18.020  0.00  0.00    +0.000 A 
ENDBRANCH  25  26
ENDBRANCH   3  25
TORSDOF 7
ENDMDL
MODEL 8
REMARK VINA RESULT:      -7.1      2.161      3.806
REMARK  Name = 
REMARK  7 active torsions:
REMARK  status: ('A' for Active; 'I' for Inactive)
REMARK    1  A    between atoms: C_2  and  O_3
REMARK    2  A    between atoms: C_2  and  C_4
REMARK    3  A    between atoms: N_6  and  C_7
REMARK    4  A    between atoms: C_7  and  C_8
REMARK    5  A    between atoms: C_15  and  C_16
REMARK    6  A    between atoms: C_16  and  O_18
REMARK    7  A    between atoms: C_19  and  C_20
REMARK                            x       y       z     vdW  Elec       q    Type
REMARK                         _______ _______ _______ _____ _____    ______ ____
ROOT
ATOM      1  C   UNL     1      -0.539  11.189  19.301  0.00  0.00    +0.000 C 
ATOM      2  C   UNL     1       0.180  10.469  18.410  0.00  0.00    +0.000 C 
ATOM      3  N   UNL     1       1.082   9.473  18.758  0.00  0.00    +0.000 N 
ATOM      4  C   UNL     1       1.328   9.258  20.108  0.00  0.00    +0.000 C 
ATOM      5  C   UNL     1       0.658   9.864  21.113  0.00  0.00    +0.000 C 
ATOM      6  C   UNL     1      -0.505  10.823  20.811  0.00  0.00    +0.000 C 
ENDROOT
BRANCH   6   7
ATOM      7  C   UNL     1      -0.641  12.030  21.746  0.00  0.00    +0.000 A 
ATOM      8  C   UNL     1       0.148  13.169  21.698  0.00  0.00    +0.000 A 
ATOM      9  N   UNL     1      -0.000  14.247  22.516  0.00  0.00    +0.000 NA
ATOM     10  C   UNL     1      -1.093  14.307  23.302  0.00  0.00    +0.000 A 
ATOM     11  C   UNL     1      -1.376  15.447  24.050  0.00  0.00    +0.000 A 
ATOM     12  C   UNL     1      -2.637  15.656  24.622  0.00  0.00    +0.000 A 
ATOM     13  C   UNL     1      -3.621  14.684  24.489  0.00  0.00    +0.000 A 
ATOM     14  C   UNL     1      -3.294  13.460  23.909  0.00  0.00    +0.000 A 
ATOM     15  C   UNL     1      -2.026  13.261  23.332  0.00  0.00    +0.000 A 
ATOM     16  C   UNL     1      -1.691  12.068  22.676  0.00  0.00    +0.000 A 
ENDBRANCH   6   7
BRANCH   1  18
ATOM     17  O   UNL     1      -2.673  12.228  19.126  0.00  0.00    +0.000 OA
ATOM     18  C   UNL     1      -1.511  12.161  18.761  0.00  0.00    +0.000 C 
BRANCH  18  19
ATOM     19  O   UNL     1      -1.029  12.965  17.788  0.00  0.00    +0.000 OA
ATOM     20  H   UNL     1      -1.660  13.598  17.397  0.00  0.00    +0.000 HD
ENDBRANCH  18  19
ENDBRANCH   1  18
BRANCH   5  21
ATOM     21  C   UNL     1       0.921   9.358  22.464  0.00  0.00    +0.000 C 
ATOM     22  O   UNL     1       0.084   9.092  23.299  0.00  0.00    +0.000 OA
BRANCH  21  23
ATOM     23  O   UNL     1       2.236   9.138  22.702  0.00  0.00    +0.000 OA
ATOM     24  H   UNL     1       2.297   8.187  22.929  0.00  0.00    +0.000 HD
ENDBRANCH  21  23
ENDBRANCH   5  21
BRANCH   3  25
ATOM     25  C   UNL     1       1.563   8.486  17.764  0.00  0.00    +0.000 C 
BRANCH  25  26
ATOM     26  C   UNL     1       2.547   7.470  18.301  0.00  0.00    +0.000 A 
ATOM     27  C   UNL     1       2.261   6.627  19.382  0.00  0.00    +0.000 A 
ATOM     28  C   UNL     1       3.155   5.625  19.764  0.00  0.00    +0.000 A 
ATOM     29  C   UNL     1       4.345   5.442  19.056  0.00  0.00    +0.000 A 
ATOM     30  C   UNL     1       4.648   6.270  17.983  0.00  0.00    +0.000 A 
ATOM     31  C   UNL     1       3.756   7.278  17.607  0.00  0.00    +0.000 A 
ENDBRANCH  25  26
ENDBRANCH   3  25
TORSDOF 7
ENDMDL
MODEL 9
REMARK VINA RESULT:      -7.0      2.580      8.440
REMARK  Name = 
REMARK  7 active torsions:
REMARK  status: ('A' for Active; 'I' for Inactive)
REMARK    1  A    between atoms: C_2  and  O_3
REMARK    2  A    between atoms: C_2  and  C_4
REMARK    3  A    between atoms: N_6  and  C_7
REMARK    4  A    between atoms: C_7  and  C_8
REMARK    5  A    between atoms: C_15  and  C_16
REMARK    6  A    between atoms: C_16  and  O_18
REMARK    7  A    between atoms: C_19  and  C_20
REMARK                            x       y       z     vdW  Elec       q    Type
REMARK                         _______ _______ _______ _____ _____    ______ ____
ROOT
ATOM      1  C   UNL     1      -2.668  11.538  18.982  0.00  0.00    +0.000 C 
ATOM      2  C   UNL     1      -3.858  12.112  19.269  0.00  0.00    +0.000 C 
ATOM      3  N   UNL     1      -4.083  12.940  20.361  0.00  0.00    +0.000 N 
ATOM      4  C   UNL     1      -3.045  13.123  21.265  0.00  0.00    +0.000 C 
ATOM      5  C   UNL     1      -1.789  12.653  21.093  0.00  0.00    +0.000 C 
ATOM      6  C   UNL     1      -1.403  11.909  19.805  0.00  0.00    +0.000 C 
ENDROOT
BRANCH   6   7
ATOM      7  C   UNL     1      -0.408  10.754  19.970  0.00  0.00    +0.000 A 
ATOM      8  C   UNL     1      -0.469   9.784  20.958  0.00  0.00    +0.000 A 
ATOM      9  N   UNL     1       0.404   8.746  21.078  0.00  0.00    +0.000 NA
ATOM     10  C   UNL     1       1.275   8.525  20.073  0.00  0.00    +0.000 A 
ATOM     11  C   UNL     1       2.092   7.397  20.068  0.00  0.00    +0.000 A 
ATOM     12  C   UNL     1       2.769   6.987  18.913  0.00  0.00    +0.000 A 
ATOM     13  C   UNL     1       2.671   7.745  17.754  0.00  0.00    +0.000 A 
ATOM     14  C   UNL     1       2.015   8.974  17.797  0.00  0.00    +0.000 A 
ATOM     15  C   UNL     1       1.333   9.376  18.960  0.00  0.00    +0.000 A 
ATOM     16  C   UNL     1       0.601  10.570  19.012  0.00  0.00    +0.000 A 
ENDBRANCH   6   7
BRANCH   1  18
ATOM     17  O   UNL     1      -2.122  11.176  16.695  0.00  0.00    +0.000 OA
ATOM     18  C   UNL     1      -2.580  10.745  17.739  0.00  0.00    +0.000 C 
BRANCH  18  19
ATOM     19  O   UNL     1      -3.084   9.494  17.827  0.00  0.00    +0.000 OA
ATOM     20  H   UNL     1      -3.865   9.304  17.276  0.00  0.00    +0.000 HD
ENDBRANCH  18  19
ENDBRANCH   1  18
BRANCH   5  21
ATOM     21  C   UNL     1      -0.786  13.120  22.055  0.00  0.00    +0.000 C 
ATOM     22  O   UNL     1       0.198  13.777  21.795  0.00  0.00    +0.000 OA
BRANCH  21  23
ATOM     23  O   UNL     1      -1.088  12.798  23.336  0.00  0.00    +0.000 OA
ATOM     24  H   UNL     1      -2.024  12.510  23.311  0.00  0.00    +0.000 HD
ENDBRANCH  21  23
ENDBRANCH   5  21
BRANCH   3  25
ATOM     25  C   UNL     1      -5.274  13.818  20.433  0.00  0.00    +0.000 C 
BRANCH  25  26
ATOM     26  C   UNL     1      -6.123  13.637  21.671  0.00  0.00    +0.000 A 
ATOM     27  C   UNL     1      -6.817  12.455  21.956  0.00  0.00    +0.000 A 
ATOM     28  C   UNL     1      -7.490  12.295  23.169  0.00  0.00    +0.000 A 
ATOM     29  C   UNL     1      -7.464  13.314  24.123  0.00  0.00    +0.000 A 
ATOM     30  C   UNL     1      -6.784  14.495  23.858  0.00  0.00    +0.000 A 
ATOM     31  C   UNL     1      -6.118  14.658  22.640  0.00  0.00    +0.000 A 
ENDBRANCH  25  26
ENDBRANCH   3  25
TORSDOF 7
ENDMDL
