MODEL 1
REMARK VINA RESULT:      -7.3      0.000      0.000
REMARK  Name = 
REMARK  4 active torsions:
REMARK  status: ('A' for Active; 'I' for Inactive)
REMARK    1  A    between atoms: C_1  and  O_2
REMARK    2  A    between atoms: O_2  and  C_3
REMARK    3  A    between atoms: C_9  and  N_10
REMARK    4  A    between atoms: N_13  and  C_14
REMARK                            x       y       z     vdW  Elec       q    Type
REMARK                         _______ _______ _______ _____ _____    ______ ____
ROOT
ATOM      1  N   UNL     1       4.662   4.206  18.677  0.00  0.00    +0.000 N 
ATOM      2  C   UNL     1       4.868   4.567  17.360  0.00  0.00    +0.000 C 
ATOM      3  O   UNL     1       4.111   5.268  16.692  0.00  0.00    +0.000 OA
ATOM      4  N   UNL     1       6.015   4.020  16.813  0.00  0.00    +0.000 N 
ATOM      5  H   UNL     1       5.458   3.901  19.225  0.00  0.00    +0.000 HD
ATOM      6  H   UNL     1       6.278   3.109  17.181  0.00  0.00    +0.000 HD
ENDROOT
BRANCH   4   7
ATOM      7  C   UNL     1       6.350   4.201  15.471  0.00  0.00    +0.000 A 
ATOM      8  C   UNL     1       5.979   3.404  14.455  0.00  0.00    +0.000 A 
ATOM      9  N   UNL     1       6.416   3.611  13.173  0.00  0.00    +0.000 N 
ATOM     10  C   UNL     1       7.279   4.610  12.819  0.00  0.00    +0.000 A 
ATOM     11  O   UNL     1       7.693   4.741  11.675  0.00  0.00    +0.000 OA
ATOM     12  N   UNL     1       7.650   5.452  13.831  0.00  0.00    +0.000 N 
ATOM     13  C   UNL     1       7.257   5.342  15.139  0.00  0.00    +0.000 A 
ATOM     14  O   UNL     1       7.650   6.107  16.017  0.00  0.00    +0.000 OA
ATOM     15  H   UNL     1       6.150   2.975  12.430  0.00  0.00    +0.000 HD
ATOM     16  H   UNL     1       8.304   6.183  13.597  0.00  0.00    +0.000 HD
ENDBRANCH   4   7
BRANCH   1  23
ATOM     17  C   UNL     1       2.605   3.338  19.712  0.00  0.00    +0.000 A 
ATOM     18  C   UNL     1       1.434   3.558  20.460  0.00  0.00    +0.000 A 
ATOM     19  C   UNL     1       1.072   4.841  20.865  0.00  0.00    +0.000 A 
ATOM     20  C   UNL     1       1.890   5.912  20.540  0.00  0.00    +0.000 A 
ATOM     21 CL   UNL     1       1.437   7.503  21.011  0.00  0.00    +0.000 Cl
ATOM     22  C   UNL     1       3.072   5.707  19.832  0.00  0.00    +0.000 A 
ATOM     23  C   UNL     1       3.460   4.425  19.419  0.00  0.00    +0.000 A 
BRANCH  17  25
ATOM     24  C   UNL     1       2.506   1.784  17.924  0.00  0.00    +0.000 C 
ATOM     25  O   UNL     1       2.970   2.096  19.241  0.00  0.00    +0.000 OA
ENDBRANCH  17  25
ENDBRANCH   1  23
TORSDOF 3
ENDMDL
MODEL 2
REMARK VINA RESULT:      -7.2      3.266      7.593
REMARK  Name = 
REMARK  4 active torsions:
REMARK  status: ('A' for Active; 'I' for Inactive)
REMARK    1  A    between atoms: C_1  and  O_2
REMARK    2  A    between atoms: O_2  and  C_3
REMARK    3  A    between atoms: C_9  and  N_10
REMARK    4  A    between atoms: N_13  and  C_14
REMARK                            x       y       z     vdW  Elec       q    Type
REMARK                         _______ _______ _______ _____ _____    ______ ____
ROOT
ATOM      1  N   UNL     1       4.358   5.437  16.485  0.00  0.00    +0.000 N 
ATOM      2  C   UNL     1       4.060   4.712  17.622  0.00  0.00    +0.000 C 
ATOM      3  O   UNL     1       4.709   3.756  18.042  0.00  0.00    +0.000 OA
ATOM      4  N   UNL     1       2.901   5.130  18.253  0.00  0.00    +0.000 N 
ATOM      5  H   UNL     1       3.968   6.367  16.388  0.00  0.00    +0.000 HD
ATOM      6  H   UNL     1       2.185   5.507  17.636  0.00  0.00    +0.000 HD
ENDROOT
BRANCH   4   7
ATOM      7  C   UNL     1       2.391   4.469  19.369  0.00  0.00    +0.000 A 
ATOM      8  C   UNL     1       2.752   4.688  20.645  0.00  0.00    +0.000 A 
ATOM      9  N   UNL     1       2.256   3.939  21.679  0.00  0.00    +0.000 N 
ATOM     10  C   UNL     1       1.388   2.897  21.510  0.00  0.00    +0.000 A 
ATOM     11  O   UNL     1       1.000   2.211  22.448  0.00  0.00    +0.000 OA
ATOM     12  N   UNL     1       0.984   2.670  20.223  0.00  0.00    +0.000 N 
ATOM     13  C   UNL     1       1.406   3.371  19.124  0.00  0.00    +0.000 A 
ATOM     14  O   UNL     1       1.038   3.102  17.983  0.00  0.00    +0.000 OA
ATOM     15  H   UNL     1       2.570   4.102  22.628  0.00  0.00    +0.000 HD
ATOM     16  H   UNL     1       0.360   1.892  20.073  0.00  0.00    +0.000 HD
ENDBRANCH   4   7
BRANCH   1  23
ATOM     17  C   UNL     1       6.657   5.612  15.623  0.00  0.00    +0.000 A 
ATOM     18  C   UNL     1       7.632   5.249  14.675  0.00  0.00    +0.000 A 
ATOM     19  C   UNL     1       7.310   4.429  13.595  0.00  0.00    +0.000 A 
ATOM     20  C   UNL     1       6.016   3.952  13.466  0.00  0.00    +0.000 A 
ATOM     21 CL   UNL     1       5.603   2.962  12.120  0.00  0.00    +0.000 Cl
ATOM     22  C   UNL     1       5.048   4.271  14.416  0.00  0.00    +0.000 A 
ATOM     23  C   UNL     1       5.348   5.088  15.514  0.00  0.00    +0.000 A 
BRANCH  17  25
ATOM     24  C   UNL     1       7.558   5.869  17.802  0.00  0.00    +0.000 C 
ATOM     25  O   UNL     1       6.915   6.467  16.672  0.00  0.00    +0.000 OA
ENDBRANCH  17  25
ENDBRANCH   1  23
TORSDOF 3
ENDMDL
MODEL 3
REMARK VINA RESULT:      -6.7      6.027      9.196
REMARK  Name = 
REMARK  4 active torsions:
REMARK  status: ('A' for Active; 'I' for Inactive)
REMARK    1  A    between atoms: C_1  and  O_2
REMARK    2  A    between atoms: O_2  and  C_3
REMARK    3  A    between atoms: C_9  and  N_10
REMARK    4  A    between atoms: N_13  and  C_14
REMARK                            x       y       z     vdW  Elec       q    Type
REMARK                         _______ _______ _______ _____ _____    ______ ____
ROOT
ATOM      1  N   UNL     1       2.035   7.568  20.603  0.00  0.00    +0.000 N 
ATOM      2  C   UNL     1       0.881   8.206  21.012  0.00  0.00    +0.000 C 
ATOM      3  O   UNL     1      -0.202   7.656  21.204  0.00  0.00    +0.000 OA
ATOM      4  N   UNL     1       1.029   9.575  21.150  0.00  0.00    +0.000 N 
ATOM      5  H   UNL     1       2.924   8.025  20.767  0.00  0.00    +0.000 HD
ATOM      6  H   UNL     1       1.700  10.003  20.517  0.00  0.00    +0.000 HD
ENDROOT
BRANCH   4   7
ATOM      7  C   UNL     1      -0.046  10.403  21.474  0.00  0.00    +0.000 A 
ATOM      8  C   UNL     1      -0.719  11.188  20.615  0.00  0.00    +0.000 A 
ATOM      9  N   UNL     1      -1.716  12.030  21.031  0.00  0.00    +0.000 N 
ATOM     10  C   UNL     1      -2.091  12.173  22.337  0.00  0.00    +0.000 A 
ATOM     11  O   UNL     1      -2.951  12.972  22.687  0.00  0.00    +0.000 OA
ATOM     12  N   UNL     1      -1.439  11.366  23.228  0.00  0.00    +0.000 N 
ATOM     13  C   UNL     1      -0.443  10.479  22.913  0.00  0.00    +0.000 A 
ATOM     14  O   UNL     1       0.136   9.802  23.760  0.00  0.00    +0.000 OA
ATOM     15  H   UNL     1      -2.185  12.638  20.369  0.00  0.00    +0.000 HD
ATOM     16  H   UNL     1      -1.684  11.470  24.201  0.00  0.00    +0.000 HD
ENDBRANCH   4   7
BRANCH   1  23
ATOM     17  C   UNL     1       2.464   5.931  18.815  0.00  0.00    +0.000 A 
ATOM     18  C   UNL     1       2.566   4.594  18.389  0.00  0.00    +0.000 A 
ATOM     19  C   UNL     1       2.274   3.542  19.256  0.00  0.00    +0.000 A 
ATOM     20  C   UNL     1       1.895   3.820  20.559  0.00  0.00    +0.000 A 
ATOM     21 CL   UNL     1       1.504   2.529  21.627  0.00  0.00    +0.000 Cl
ATOM     22  C   UNL     1       1.825   5.137  21.008  0.00  0.00    +0.000 A 
ATOM     23  C   UNL     1       2.121   6.212  20.158  0.00  0.00    +0.000 A 
BRANCH  17  25
ATOM     24  C   UNL     1       4.008   7.091  17.439  0.00  0.00    +0.000 C 
ATOM     25  O   UNL     1       2.686   7.002  17.978  0.00  0.00    +0.000 OA
ENDBRANCH  17  25
ENDBRANCH   1  23
TORSDOF 3
ENDMDL
MODEL 4
REMARK VINA RESULT:      -6.6      6.559      8.397
REMARK  Name = 
REMARK  4 active torsions:
REMARK  status: ('A' for Active; 'I' for Inactive)
REMARK    1  A    between atoms: C_1  and  O_2
REMARK    2  A    between atoms: O_2  and  C_3
REMARK    3  A    between atoms: C_9  and  N_10
REMARK    4  A    between atoms: N_13  and  C_14
REMARK                            x       y       z     vdW  Elec       q    Type
REMARK                         _______ _______ _______ _____ _____    ______ ____
ROOT
ATOM      1  N   UNL     1       9.572   9.595  19.289  0.00  0.00    +0.000 N 
ATOM      2  C   UNL     1       8.618   8.881  18.590  0.00  0.00    +0.000 C 
ATOM      3  O   UNL     1       7.843   9.357  17.763  0.00  0.00    +0.000 OA
ATOM      4  N   UNL     1       8.567   7.543  18.940  0.00  0.00    +0.000 N 
ATOM      5  H   UNL     1      10.348   9.091  19.701  0.00  0.00    +0.000 HD
ATOM      6  H   UNL     1       8.809   7.340  19.907  0.00  0.00    +0.000 HD
ENDROOT
BRANCH   4   7
ATOM      7  C   UNL     1       7.614   6.678  18.405  0.00  0.00    +0.000 A 
ATOM      8  C   UNL     1       7.015   6.813  17.209  0.00  0.00    +0.000 A 
ATOM      9  N   UNL     1       6.030   5.958  16.791  0.00  0.00    +0.000 N 
ATOM     10  C   UNL     1       5.551   4.926  17.548  0.00  0.00    +0.000 A 
ATOM     11  O   UNL     1       4.634   4.208  17.169  0.00  0.00    +0.000 OA
ATOM     12  N   UNL     1       6.163   4.751  18.759  0.00  0.00    +0.000 N 
ATOM     13  C   UNL     1       7.166   5.538  19.261  0.00  0.00    +0.000 A 
ATOM     14  O   UNL     1       7.657   5.358  20.373  0.00  0.00    +0.000 OA
ATOM     15  H   UNL     1       5.569   6.101  15.899  0.00  0.00    +0.000 HD
ATOM     16  H   UNL     1       5.810   4.009  19.343  0.00  0.00    +0.000 HD
ENDBRANCH   4   7
BRANCH   1  23
ATOM     17  C   UNL     1       9.254  11.749  20.438  0.00  0.00    +0.000 A 
ATOM     18  C   UNL     1       9.395  13.148  20.459  0.00  0.00    +0.000 A 
ATOM     19  C   UNL     1       9.904  13.834  19.358  0.00  0.00    +0.000 A 
ATOM     20  C   UNL     1      10.293  13.121  18.235  0.00  0.00    +0.000 A 
ATOM     21 CL   UNL     1      10.896  13.962  16.859  0.00  0.00    +0.000 Cl
ATOM     22  C   UNL     1      10.196  11.732  18.211  0.00  0.00    +0.000 A 
ATOM     23  C   UNL     1       9.693  11.019  19.308  0.00  0.00    +0.000 A 
BRANCH  17  25
ATOM     24  C   UNL     1       8.255  11.824  22.587  0.00  0.00    +0.000 C 
ATOM     25  O   UNL     1       8.702  11.036  21.479  0.00  0.00    +0.000 OA
ENDBRANCH  17  25
ENDBRANCH   1  23
TORSDOF 3
ENDMDL
MODEL 5
REMARK VINA RESULT:      -6.5      3.103      3.989
REMARK  Name = 
REMARK  4 active torsions:
REMARK  status: ('A' for Active; 'I' for Inactive)
REMARK    1  A    between atoms: C_1  and  O_2
REMARK    2  A    between atoms: O_2  and  C_3
REMARK    3  A    between atoms: C_9  and  N_10
REMARK    4  A    between atoms: N_13  and  C_14
REMARK                            x       y       z     vdW  Elec       q    Type
REMARK                         _______ _______ _______ _____ _____    ______ ____
ROOT
ATOM      1  N   UNL     1       4.895   3.187  19.067  0.00  0.00    +0.000 N 
ATOM      2  C   UNL     1       5.388   4.477  19.077  0.00  0.00    +0.000 C 
ATOM      3  O   UNL     1       4.774   5.466  19.473  0.00  0.00    +0.000 OA
ATOM      4  N   UNL     1       6.660   4.584  18.544  0.00  0.00    +0.000 N 
ATOM      5  H   UNL     1       5.553   2.418  19.021  0.00  0.00    +0.000 HD
ATOM      6  H   UNL     1       6.877   3.918  17.807  0.00  0.00    +0.000 HD
ENDROOT
BRANCH   4   7
ATOM      7  C   UNL     1       7.293   5.817  18.391  0.00  0.00    +0.000 A 
ATOM      8  C   UNL     1       8.100   6.402  19.293  0.00  0.00    +0.000 A 
ATOM      9  N   UNL     1       8.622   7.653  19.096  0.00  0.00    +0.000 N 
ATOM     10  C   UNL     1       8.352   8.422  17.999  0.00  0.00    +0.000 A 
ATOM     11  O   UNL     1       8.791   9.558  17.873  0.00  0.00    +0.000 OA
ATOM     12  N   UNL     1       7.554   7.839  17.054  0.00  0.00    +0.000 N 
ATOM     13  C   UNL     1       6.997   6.590  17.146  0.00  0.00    +0.000 A 
ATOM     14  O   UNL     1       6.257   6.127  16.282  0.00  0.00    +0.000 OA
ATOM     15  H   UNL     1       9.199   8.087  19.807  0.00  0.00    +0.000 HD
ATOM     16  H   UNL     1       7.323   8.396  16.246  0.00  0.00    +0.000 HD
ENDBRANCH   4   7
BRANCH   1  23
ATOM     17  C   UNL     1       2.658   2.547  18.260  0.00  0.00    +0.000 A 
ATOM     18  C   UNL     1       1.333   2.161  18.530  0.00  0.00    +0.000 A 
ATOM     19  C   UNL     1       0.858   2.096  19.839  0.00  0.00    +0.000 A 
ATOM     20  C   UNL     1       1.712   2.400  20.887  0.00  0.00    +0.000 A 
ATOM     21 CL   UNL     1       1.126   2.351  22.505  0.00  0.00    +0.000 Cl
ATOM     22  C   UNL     1       3.037   2.748  20.640  0.00  0.00    +0.000 A 
ATOM     23  C   UNL     1       3.541   2.814  19.333  0.00  0.00    +0.000 A 
BRANCH  17  25
ATOM     24  C   UNL     1       3.195   4.021  16.483  0.00  0.00    +0.000 C 
ATOM     25  O   UNL     1       3.153   2.681  16.982  0.00  0.00    +0.000 OA
ENDBRANCH  17  25
ENDBRANCH   1  23
TORSDOF 3
ENDMDL
MODEL 6
REMARK VINA RESULT:      -6.5      3.262      7.533
REMARK  Name = 
REMARK  4 active torsions:
REMARK  status: ('A' for Active; 'I' for Inactive)
REMARK    1  A    between atoms: C_1  and  O_2
REMARK    2  A    between atoms: O_2  and  C_3
REMARK    3  A    between atoms: C_9  and  N_10
REMARK    4  A    between atoms: N_13  and  C_14
REMARK                            x       y       z     vdW  Elec       q    Type
REMARK                         _______ _______ _______ _____ _____    ______ ____
ROOT
ATOM      1  N   UNL     1       4.290   5.064  16.068  0.00  0.00    +0.000 N 
ATOM      2  C   UNL     1       4.114   4.373  17.250  0.00  0.00    +0.000 C 
ATOM      3  O   UNL     1       4.911   3.563  17.721  0.00  0.00    +0.000 OA
ATOM      4  N   UNL     1       2.904   4.636  17.867  0.00  0.00    +0.000 N 
ATOM      5  H   UNL     1       3.754   5.911  15.919  0.00  0.00    +0.000 HD
ATOM      6  H   UNL     1       2.136   4.852  17.237  0.00  0.00    +0.000 HD
ENDROOT
BRANCH   4   7
ATOM      7  C   UNL     1       2.509   3.972  19.028  0.00  0.00    +0.000 A 
ATOM      8  C   UNL     1       1.971   2.742  19.084  0.00  0.00    +0.000 A 
ATOM      9  N   UNL     1       1.539   2.191  20.261  0.00  0.00    +0.000 N 
ATOM     10  C   UNL     1       1.585   2.841  21.463  0.00  0.00    +0.000 A 
ATOM     11  O   UNL     1       1.144   2.345  22.492  0.00  0.00    +0.000 OA
ATOM     12  N   UNL     1       2.152   4.085  21.437  0.00  0.00    +0.000 N 
ATOM     13  C   UNL     1       2.630   4.716  20.319  0.00  0.00    +0.000 A 
ATOM     14  O   UNL     1       3.099   5.852  20.346  0.00  0.00    +0.000 OA
ATOM     15  H   UNL     1       1.105   1.276  20.272  0.00  0.00    +0.000 HD
ATOM     16  H   UNL     1       2.177   4.592  22.308  0.00  0.00    +0.000 HD
ENDBRANCH   4   7
BRANCH   1  23
ATOM     17  C   UNL     1       6.543   5.529  15.193  0.00  0.00    +0.000 A 
ATOM     18  C   UNL     1       7.562   5.270  14.258  0.00  0.00    +0.000 A 
ATOM     19  C   UNL     1       7.364   4.369  13.213  0.00  0.00    +0.000 A 
ATOM     20  C   UNL     1       6.151   3.708  13.108  0.00  0.00    +0.000 A 
ATOM     21 CL   UNL     1       5.887   2.615  11.804  0.00  0.00    +0.000 Cl
ATOM     22  C   UNL     1       5.145   3.924  14.046  0.00  0.00    +0.000 A 
ATOM     23  C   UNL     1       5.322   4.821  15.109  0.00  0.00    +0.000 A 
BRANCH  17  25
ATOM     24  C   UNL     1       7.421   6.012  17.342  0.00  0.00    +0.000 C 
ATOM     25  O   UNL     1       6.673   6.454  16.205  0.00  0.00    +0.000 OA
ENDBRANCH  17  25
ENDBRANCH   1  23
TORSDOF 3
ENDMDL
MODEL 7
REMARK VINA RESULT:      -6.5      6.248      9.454
REMARK  Name = 
REMARK  4 active torsions:
REMARK  status: ('A' for Active; 'I' for Inactive)
REMARK    1  A    between atoms: C_1  and  O_2
REMARK    2  A    between atoms: O_2  and  C_3
REMARK    3  A    between atoms: C_9  and  N_10
REMARK    4  A    between atoms: N_13  and  C_14
REMARK                            x       y       z     vdW  Elec       q    Type
REMARK                         _______ _______ _______ _____ _____    ______ ____
ROOT
ATOM      1  N   UNL     1       1.870   7.799  21.093  0.00  0.00    +0.000 N 
ATOM      2  C   UNL     1       0.716   8.528  21.301  0.00  0.00    +0.000 C 
ATOM      3  O   UNL     1      -0.406   8.202  20.917  0.00  0.00    +0.000 OA
ATOM      4  N   UNL     1       0.933   9.725  21.961  0.00  0.00    +0.000 N 
ATOM      5  H   UNL     1       2.668   7.976  21.691  0.00  0.00    +0.000 HD
ATOM      6  H   UNL     1       1.834  10.161  21.781  0.00  0.00    +0.000 HD
ENDROOT
BRANCH   4   7
ATOM      7  C   UNL     1      -0.097  10.637  22.188  0.00  0.00    +0.000 A 
ATOM      8  C   UNL     1      -0.997  10.573  23.184  0.00  0.00    +0.000 A 
ATOM      9  N   UNL     1      -2.026  11.471  23.292  0.00  0.00    +0.000 N 
ATOM     10  C   UNL     1      -2.249  12.478  22.396  0.00  0.00    +0.000 A 
ATOM     11  O   UNL     1      -3.207  13.235  22.488  0.00  0.00    +0.000 OA
ATOM     12  N   UNL     1      -1.332  12.581  21.386  0.00  0.00    +0.000 N 
ATOM     13  C   UNL     1      -0.260  11.747  21.201  0.00  0.00    +0.000 A 
ATOM     14  O   UNL     1       0.515  11.863  20.254  0.00  0.00    +0.000 OA
ATOM     15  H   UNL     1      -2.712  11.380  24.033  0.00  0.00    +0.000 HD
ATOM     16  H   UNL     1      -1.489  13.303  20.701  0.00  0.00    +0.000 HD
ENDBRANCH   4   7
BRANCH   1  23
ATOM     17  C   UNL     1       2.453   6.802  18.919  0.00  0.00    +0.000 A 
ATOM     18  C   UNL     1       2.584   5.667  18.098  0.00  0.00    +0.000 A 
ATOM     19  C   UNL     1       2.204   4.406  18.552  0.00  0.00    +0.000 A 
ATOM     20  C   UNL     1       1.706   4.269  19.838  0.00  0.00    +0.000 A 
ATOM     21 CL   UNL     1       1.207   2.720  20.398  0.00  0.00    +0.000 Cl
ATOM     22  C   UNL     1       1.605   5.375  20.677  0.00  0.00    +0.000 A 
ATOM     23  C   UNL     1       1.987   6.653  20.246  0.00  0.00    +0.000 A 
BRANCH  17  25
ATOM     24  C   UNL     1       1.753   8.712  17.701  0.00  0.00    +0.000 C 
ATOM     25  O   UNL     1       2.761   8.075  18.492  0.00  0.00    +0.000 OA
ENDBRANCH  17  25
ENDBRANCH   1  23
TORSDOF 3
ENDMDL
MODEL 8
REMARK VINA RESULT:      -6.4      5.533      7.812
REMARK  Name = 
REMARK  4 active torsions:
REMARK  status: ('A' for Active; 'I' for Inactive)
REMARK    1  A    between atoms: C_1  and  O_2
REMARK    2  A    between atoms: O_2  and  C_3
REMARK    3  A    between atoms: C_9  and  N_10
REMARK    4  A    between atoms: N_13  and  C_14
REMARK                            x       y       z     vdW  Elec       q    Type
REMARK                         _______ _______ _______ _____ _____    ______ ____
ROOT
ATOM      1  N   UNL     1       2.474   7.176  18.757  0.00  0.00    +0.000 N 
ATOM      2  C   UNL     1       2.068   8.392  18.245  0.00  0.00    +0.000 C 
ATOM      3  O   UNL     1       2.241   8.766  17.087  0.00  0.00    +0.000 OA
ATOM      4  N   UNL     1       1.468   9.212  19.185  0.00  0.00    +0.000 N 
ATOM      5  H   UNL     1       2.030   6.834  19.601  0.00  0.00    +0.000 HD
ATOM      6  H   UNL     1       1.810   9.101  20.136  0.00  0.00    +0.000 HD
ENDROOT
BRANCH   4   7
ATOM      7  C   UNL     1       1.066  10.511  18.879  0.00  0.00    +0.000 A 
ATOM      8  C   UNL     1       1.883  11.536  18.583  0.00  0.00    +0.000 A 
ATOM      9  N   UNL     1       1.409  12.804  18.369  0.00  0.00    +0.000 N 
ATOM     10  C   UNL     1       0.089  13.146  18.467  0.00  0.00    +0.000 A 
ATOM     11  O   UNL     1      -0.300  14.297  18.321  0.00  0.00    +0.000 OA
ATOM     12  N   UNL     1      -0.766  12.114  18.742  0.00  0.00    +0.000 N 
ATOM     13  C   UNL     1      -0.397  10.812  18.954  0.00  0.00    +0.000 A 
ATOM     14  O   UNL     1      -1.205   9.930  19.234  0.00  0.00    +0.000 OA
ATOM     15  H   UNL     1       2.049  13.567  18.181  0.00  0.00    +0.000 HD
ATOM     16  H   UNL     1      -1.742  12.347  18.840  0.00  0.00    +0.000 HD
ENDBRANCH   4   7
BRANCH   1  23
ATOM     17  C   UNL     1       2.834   4.939  17.793  0.00  0.00    +0.000 A 
ATOM     18  C   UNL     1       3.664   4.025  17.119  0.00  0.00    +0.000 A 
ATOM     19  C   UNL     1       4.978   4.356  16.792  0.00  0.00    +0.000 A 
ATOM     20  C   UNL     1       5.464   5.611  17.121  0.00  0.00    +0.000 A 
ATOM     21 CL   UNL     1       7.093   6.018  16.746  0.00  0.00    +0.000 Cl
ATOM     22  C   UNL     1       4.645   6.541  17.755  0.00  0.00    +0.000 A 
ATOM     23  C   UNL     1       3.318   6.235  18.089  0.00  0.00    +0.000 A 
BRANCH  17  25
ATOM     24  C   UNL     1       1.365   3.304  18.682  0.00  0.00    +0.000 C 
ATOM     25  O   UNL     1       1.551   4.634  18.189  0.00  0.00    +0.000 OA
ENDBRANCH  17  25
ENDBRANCH   1  23
TORSDOF 3
ENDMDL
MODEL 9
REMARK VINA RESULT:      -6.4      1.637      2.291
REMARK  Name = 
REMARK  4 active torsions:
REMARK  status: ('A' for Active; 'I' for Inactive)
REMARK    1  A    between atoms: C_1  and  O_2
REMARK    2  A    between atoms: O_2  and  C_3
REMARK    3  A    between atoms: C_9  and  N_10
REMARK    4  A    between atoms: N_13  and  C_14
REMARK                            x       y       z     vdW  Elec       q    Type
REMARK                         _______ _______ _______ _____ _____    ______ ____
ROOT
ATOM      1  N   UNL     1       4.840   4.388  18.784  0.00  0.00    +0.000 N 
ATOM      2  C   UNL     1       4.932   4.588  17.420  0.00  0.00    +0.000 C 
ATOM      3  O   UNL     1       4.034   5.034  16.709  0.00  0.00    +0.000 OA
ATOM      4  N   UNL     1       6.144   4.188  16.887  0.00  0.00    +0.000 N 
ATOM      5  H   UNL     1       5.696   4.317  19.321  0.00  0.00    +0.000 HD
ATOM      6  H   UNL     1       6.587   3.404  17.359  0.00  0.00    +0.000 HD
ENDROOT
BRANCH   4   7
ATOM      7  C   UNL     1       6.395   4.233  15.516  0.00  0.00    +0.000 A 
ATOM      8  C   UNL     1       5.954   3.346  14.608  0.00  0.00    +0.000 A 
ATOM      9  N   UNL     1       6.312   3.421  13.287  0.00  0.00    +0.000 N 
ATOM     10  C   UNL     1       7.159   4.368  12.785  0.00  0.00    +0.000 A 
ATOM     11  O   UNL     1       7.503   4.381  11.609  0.00  0.00    +0.000 OA
ATOM     12  N   UNL     1       7.602   5.299  13.684  0.00  0.00    +0.000 N 
ATOM     13  C   UNL     1       7.290   5.322  15.018  0.00  0.00    +0.000 A 
ATOM     14  O   UNL     1       7.745   6.163  15.792  0.00  0.00    +0.000 OA
ATOM     15  H   UNL     1       5.994   2.720  12.628  0.00  0.00    +0.000 HD
ATOM     16  H   UNL     1       8.246   5.994  13.340  0.00  0.00    +0.000 HD
ENDBRANCH   4   7
BRANCH   1  23
ATOM     17  C   UNL     1       2.971   5.728  19.664  0.00  0.00    +0.000 A 
ATOM     18  C   UNL     1       1.782   5.813  20.411  0.00  0.00    +0.000 A 
ATOM     19  C   UNL     1       1.288   4.707  21.101  0.00  0.00    +0.000 A 
ATOM     20  C   UNL     1       1.971   3.503  21.032  0.00  0.00    +0.000 A 
ATOM     21 CL   UNL     1       1.384   2.140  21.903  0.00  0.00    +0.000 Cl
ATOM     22  C   UNL     1       3.129   3.391  20.266  0.00  0.00    +0.000 A 
ATOM     23  C   UNL     1       3.642   4.487  19.558  0.00  0.00    +0.000 A 
BRANCH  17  25
ATOM     24  C   UNL     1       2.598   7.650  18.327  0.00  0.00    +0.000 C 
ATOM     25  O   UNL     1       3.527   6.808  19.016  0.00  0.00    +0.000 OA
ENDBRANCH  17  25
ENDBRANCH   1  23
TORSDOF 3
ENDMDL
