MODEL 1
REMARK VINA RESULT:      -8.5      0.000      0.000
REMARK  Name = 
REMARK  4 active torsions:
REMARK  status: ('A' for Active; 'I' for Inactive)
REMARK    1  A    between atoms: C_1  and  N_2
REMARK    2  A    between atoms: C_3  and  C_4
REMARK    3  A    between atoms: C_11  and  O_12
REMARK    4  A    between atoms: O_12  and  C_13
REMARK                            x       y       z     vdW  Elec       q    Type
REMARK                         _______ _______ _______ _____ _____    ______ ____
ROOT
ATOM      1  C   UNL     1       0.221  11.966  19.537  0.00  0.00    +0.000 C 
ATOM      2  N   UNL     1       0.229  10.710  20.267  0.00  0.00    +0.000 N 
ATOM      3  C   UNL     1      -0.319  10.437  21.512  0.00  0.00    +0.000 A 
ATOM      4  N   UNL     1      -0.004   9.185  21.872  0.00  0.00    +0.000 NA
ATOM      5  C   UNL     1       0.760   8.664  20.866  0.00  0.00    +0.000 A 
ATOM      6  C   UNL     1       1.427   7.416  20.803  0.00  0.00    +0.000 A 
ATOM      7  C   UNL     1       2.252   7.072  19.707  0.00  0.00    +0.000 A 
ATOM      8  C   UNL     1       2.326   8.001  18.648  0.00  0.00    +0.000 A 
ATOM      9 CL   UNL     1       3.304   7.753  17.245  0.00  0.00    +0.000 Cl
ATOM     10  C   UNL     1       1.643   9.252  18.690  0.00  0.00    +0.000 A 
ATOM     11  C   UNL     1       0.896   9.578  19.830  0.00  0.00    +0.000 A 
ENDROOT
BRANCH   3  12
ATOM     12  C   UNL     1      -1.138  11.403  22.348  0.00  0.00    +0.000 C 
ATOM     13  F   UNL     1      -2.241  11.904  21.722  0.00  0.00    +0.000 F 
ATOM     14  F   UNL     1      -1.605  10.820  23.483  0.00  0.00    +0.000 F 
ATOM     15  F   UNL     1      -0.420  12.493  22.735  0.00  0.00    +0.000 F 
ENDBRANCH   3  12
BRANCH   7  16
ATOM     16  O   UNL     1       3.196   6.082  19.997  0.00  0.00    +0.000 OA
BRANCH  16  17
ATOM     17  C   UNL     1       3.503   5.028  19.138  0.00  0.00    +0.000 A 
ATOM     18  C   UNL     1       2.458   4.438  18.431  0.00  0.00    +0.000 A 
ATOM     19  C   UNL     1       2.719   3.492  17.439  0.00  0.00    +0.000 A 
ATOM     20  C   UNL     1       3.900   3.573  16.729  0.00  0.00    +0.000 A 
ATOM     21  C   UNL     1       4.961   4.254  17.299  0.00  0.00    +0.000 A 
ATOM     22  C   UNL     1       6.184   4.217  16.620  0.00  0.00    +0.000 A 
ATOM     23  C   UNL     1       7.328   4.718  17.215  0.00  0.00    +0.000 A 
ATOM     24  C   UNL     1       7.240   5.278  18.486  0.00  0.00    +0.000 A 
ATOM     25  C   UNL     1       6.000   5.402  19.138  0.00  0.00    +0.000 A 
ATOM     26  C   UNL     1       4.813   4.898  18.573  0.00  0.00    +0.000 A 
ENDBRANCH  16  17
ENDBRANCH   7  16
TORSDOF 3
ENDMDL
MODEL 2
REMARK VINA RESULT:      -8.3      1.148      1.806
REMARK  Name = 
REMARK  4 active torsions:
REMARK  status: ('A' for Active; 'I' for Inactive)
REMARK    1  A    between atoms: C_1  and  N_2
REMARK    2  A    between atoms: C_3  and  C_4
REMARK    3  A    between atoms: C_11  and  O_12
REMARK    4  A    between atoms: O_12  and  C_13
REMARK                            x       y       z     vdW  Elec       q    Type
REMARK                         _______ _______ _______ _____ _____    ______ ____
ROOT
ATOM      1  C   UNL     1      -0.314  12.630  19.887  0.00  0.00    +0.000 C 
ATOM      2  N   UNL     1      -0.324  11.398  20.657  0.00  0.00    +0.000 N 
ATOM      3  C   UNL     1      -0.869  11.176  21.914  0.00  0.00    +0.000 A 
ATOM      4  N   UNL     1      -0.573   9.931  22.313  0.00  0.00    +0.000 NA
ATOM      5  C   UNL     1       0.176   9.365  21.321  0.00  0.00    +0.000 A 
ATOM      6  C   UNL     1       0.822   8.104  21.295  0.00  0.00    +0.000 A 
ATOM      7  C   UNL     1       1.634   7.710  20.207  0.00  0.00    +0.000 A 
ATOM      8  C   UNL     1       1.718   8.602  19.117  0.00  0.00    +0.000 A 
ATOM      9 CL   UNL     1       2.683   8.291  17.718  0.00  0.00    +0.000 Cl
ATOM     10  C   UNL     1       1.057   9.866  19.122  0.00  0.00    +0.000 A 
ATOM     11  C   UNL     1       0.322  10.241  20.254  0.00  0.00    +0.000 A 
ENDROOT
BRANCH   3  12
ATOM     12  C   UNL     1      -1.666  12.183  22.721  0.00  0.00    +0.000 C 
ATOM     13  F   UNL     1      -2.594  12.881  22.006  0.00  0.00    +0.000 F 
ATOM     14  F   UNL     1      -2.363  11.589  23.726  0.00  0.00    +0.000 F 
ATOM     15  F   UNL     1      -0.876  13.128  23.300  0.00  0.00    +0.000 F 
ENDBRANCH   3  12
BRANCH   7  16
ATOM     16  O   UNL     1       2.562   6.713  20.525  0.00  0.00    +0.000 OA
BRANCH  16  17
ATOM     17  C   UNL     1       2.431   5.381  20.139  0.00  0.00    +0.000 A 
ATOM     18  C   UNL     1       1.270   4.707  20.507  0.00  0.00    +0.000 A 
ATOM     19  C   UNL     1       1.005   3.428  20.016  0.00  0.00    +0.000 A 
ATOM     20  C   UNL     1       1.487   3.075  18.771  0.00  0.00    +0.000 A 
ATOM     21  C   UNL     1       2.565   3.778  18.263  0.00  0.00    +0.000 A 
ATOM     22  C   UNL     1       3.114   3.323  17.059  0.00  0.00    +0.000 A 
ATOM     23  C   UNL     1       4.299   3.860  16.586  0.00  0.00    +0.000 A 
ATOM     24  C   UNL     1       4.921   4.870  17.312  0.00  0.00    +0.000 A 
ATOM     25  C   UNL     1       4.330   5.395  18.474  0.00  0.00    +0.000 A 
ATOM     26  C   UNL     1       3.131   4.874  18.996  0.00  0.00    +0.000 A 
ENDBRANCH  16  17
ENDBRANCH   7  16
TORSDOF 3
ENDMDL
MODEL 3
REMARK VINA RESULT:      -8.2      6.575      8.822
REMARK  Name = 
REMARK  4 active torsions:
REMARK  status: ('A' for Active; 'I' for Inactive)
REMARK    1  A    between atoms: C_1  and  N_2
REMARK    2  A    between atoms: C_3  and  C_4
REMARK    3  A    between atoms: C_11  and  O_12
REMARK    4  A    between atoms: O_12  and  C_13
REMARK                            x       y       z     vdW  Elec       q    Type
REMARK                         _______ _______ _______ _____ _____    ______ ____
ROOT
ATOM      1  C   UNL     1       7.975   5.588  13.029  0.00  0.00    +0.000 C 
ATOM      2  N   UNL     1       7.158   4.774  13.913  0.00  0.00    +0.000 N 
ATOM      3  C   UNL     1       6.262   3.772  13.572  0.00  0.00    +0.000 A 
ATOM      4  N   UNL     1       5.636   3.340  14.677  0.00  0.00    +0.000 NA
ATOM      5  C   UNL     1       6.120   4.079  15.720  0.00  0.00    +0.000 A 
ATOM      6  C   UNL     1       5.714   4.084  17.077  0.00  0.00    +0.000 A 
ATOM      7  C   UNL     1       6.273   4.985  18.013  0.00  0.00    +0.000 A 
ATOM      8  C   UNL     1       7.302   5.830  17.549  0.00  0.00    +0.000 A 
ATOM      9 CL   UNL     1       8.078   7.005  18.551  0.00  0.00    +0.000 Cl
ATOM     10  C   UNL     1       7.734   5.821  16.190  0.00  0.00    +0.000 A 
ATOM     11  C   UNL     1       7.099   4.961  15.284  0.00  0.00    +0.000 A 
ENDROOT
BRANCH   3  12
ATOM     12  C   UNL     1       6.013   3.247  12.170  0.00  0.00    +0.000 C 
ATOM     13  F   UNL     1       7.121   3.196  11.376  0.00  0.00    +0.000 F 
ATOM     14  F   UNL     1       5.524   1.979  12.183  0.00  0.00    +0.000 F 
ATOM     15  F   UNL     1       5.115   4.006  11.484  0.00  0.00    +0.000 F 
ENDBRANCH   3  12
BRANCH   7  16
ATOM     16  O   UNL     1       5.465   5.212  19.132  0.00  0.00    +0.000 OA
BRANCH  16  17
ATOM     17  C   UNL     1       4.093   5.450  19.062  0.00  0.00    +0.000 A 
ATOM     18  C   UNL     1       3.662   6.590  18.390  0.00  0.00    +0.000 A 
ATOM     19  C   UNL     1       2.305   6.799  18.145  0.00  0.00    +0.000 A 
ATOM     20  C   UNL     1       1.477   5.707  17.981  0.00  0.00    +0.000 A 
ATOM     21  C   UNL     1       1.884   4.493  18.506  0.00  0.00    +0.000 A 
ATOM     22  C   UNL     1       0.976   3.430  18.437  0.00  0.00    +0.000 A 
ATOM     23  C   UNL     1       1.238   2.244  19.100  0.00  0.00    +0.000 A 
ATOM     24  C   UNL     1       2.426   2.117  19.814  0.00  0.00    +0.000 A 
ATOM     25  C   UNL     1       3.384   3.145  19.814  0.00  0.00    +0.000 A 
ATOM     26  C   UNL     1       3.155   4.371  19.160  0.00  0.00    +0.000 A 
ENDBRANCH  16  17
ENDBRANCH   7  16
TORSDOF 3
ENDMDL
MODEL 4
REMARK VINA RESULT:      -8.0      5.158      8.597
REMARK  Name = 
REMARK  4 active torsions:
REMARK  status: ('A' for Active; 'I' for Inactive)
REMARK    1  A    between atoms: C_1  and  N_2
REMARK    2  A    between atoms: C_3  and  C_4
REMARK    3  A    between atoms: C_11  and  O_12
REMARK    4  A    between atoms: O_12  and  C_13
REMARK                            x       y       z     vdW  Elec       q    Type
REMARK                         _______ _______ _______ _____ _____    ______ ____
ROOT
ATOM      1  C   UNL     1       4.893   3.876  19.151  0.00  0.00    +0.000 C 
ATOM      2  N   UNL     1       4.538   4.999  18.300  0.00  0.00    +0.000 N 
ATOM      3  C   UNL     1       5.102   5.370  17.089  0.00  0.00    +0.000 A 
ATOM      4  N   UNL     1       4.556   6.524  16.678  0.00  0.00    +0.000 NA
ATOM      5  C   UNL     1       3.657   6.898  17.636  0.00  0.00    +0.000 A 
ATOM      6  C   UNL     1       2.892   8.088  17.730  0.00  0.00    +0.000 A 
ATOM      7  C   UNL     1       2.065   8.349  18.847  0.00  0.00    +0.000 A 
ATOM      8  C   UNL     1       1.982   7.342  19.830  0.00  0.00    +0.000 A 
ATOM      9 CL   UNL     1       1.039   7.505  21.269  0.00  0.00    +0.000 Cl
ATOM     10  C   UNL     1       2.732   6.132  19.738  0.00  0.00    +0.000 A 
ATOM     11  C   UNL     1       3.593   5.950  18.648  0.00  0.00    +0.000 A 
ENDROOT
BRANCH   3  12
ATOM     12  C   UNL     1       6.178   4.603  16.343  0.00  0.00    +0.000 C 
ATOM     13  F   UNL     1       5.807   3.358  15.928  0.00  0.00    +0.000 F 
ATOM     14  F   UNL     1       6.574   5.252  15.217  0.00  0.00    +0.000 F 
ATOM     15  F   UNL     1       7.295   4.411  17.097  0.00  0.00    +0.000 F 
ENDBRANCH   3  12
BRANCH   7  16
ATOM     16  O   UNL     1       1.780   9.705  19.035  0.00  0.00    +0.000 OA
BRANCH  16  17
ATOM     17  C   UNL     1       0.622  10.177  19.651  0.00  0.00    +0.000 A 
ATOM     18  C   UNL     1       0.760  10.913  20.824  0.00  0.00    +0.000 A 
ATOM     19  C   UNL     1      -0.342  11.547  21.398  0.00  0.00    +0.000 A 
ATOM     20  C   UNL     1      -1.364  11.986  20.580  0.00  0.00    +0.000 A 
ATOM     21  C   UNL     1      -1.502  11.400  19.334  0.00  0.00    +0.000 A 
ATOM     22  C   UNL     1      -2.617  11.770  18.574  0.00  0.00    +0.000 A 
ATOM     23  C   UNL     1      -2.919  11.095  17.404  0.00  0.00    +0.000 A 
ATOM     24  C   UNL     1      -2.086  10.062  16.985  0.00  0.00    +0.000 A 
ATOM     25  C   UNL     1      -0.915   9.743  17.694  0.00  0.00    +0.000 A 
ATOM     26  C   UNL     1      -0.574  10.397  18.894  0.00  0.00    +0.000 A 
ENDBRANCH  16  17
ENDBRANCH   7  16
TORSDOF 3
ENDMDL
MODEL 5
REMARK VINA RESULT:      -7.9      1.796      3.254
REMARK  Name = 
REMARK  4 active torsions:
REMARK  status: ('A' for Active; 'I' for Inactive)
REMARK    1  A    between atoms: C_1  and  N_2
REMARK    2  A    between atoms: C_3  and  C_4
REMARK    3  A    between atoms: C_11  and  O_12
REMARK    4  A    between atoms: O_12  and  C_13
REMARK                            x       y       z     vdW  Elec       q    Type
REMARK                         _______ _______ _______ _____ _____    ______ ____
ROOT
ATOM      1  C   UNL     1      -0.683  10.929  21.892  0.00  0.00    +0.000 C 
ATOM      2  N   UNL     1       0.039  10.880  20.632  0.00  0.00    +0.000 N 
ATOM      3  C   UNL     1       0.046  11.818  19.610  0.00  0.00    +0.000 A 
ATOM      4  N   UNL     1       0.758  11.345  18.576  0.00  0.00    +0.000 NA
ATOM      5  C   UNL     1       1.189  10.098  18.932  0.00  0.00    +0.000 A 
ATOM      6  C   UNL     1       1.890   9.140  18.159  0.00  0.00    +0.000 A 
ATOM      7  C   UNL     1       2.186   7.853  18.665  0.00  0.00    +0.000 A 
ATOM      8  C   UNL     1       1.811   7.591  20.000  0.00  0.00    +0.000 A 
ATOM      9 CL   UNL     1       2.074   6.066  20.769  0.00  0.00    +0.000 Cl
ATOM     10  C   UNL     1       1.122   8.554  20.795  0.00  0.00    +0.000 A 
ATOM     11  C   UNL     1       0.788   9.789  20.224  0.00  0.00    +0.000 A 
ENDROOT
BRANCH   3  12
ATOM     12  C   UNL     1      -0.650  13.166  19.643  0.00  0.00    +0.000 C 
ATOM     13  F   UNL     1      -0.493  13.916  18.515  0.00  0.00    +0.000 F 
ATOM     14  F   UNL     1      -1.994  13.038  19.802  0.00  0.00    +0.000 F 
ATOM     15  F   UNL     1      -0.208  13.953  20.661  0.00  0.00    +0.000 F 
ENDBRANCH   3  12
BRANCH   7  16
ATOM     16  O   UNL     1       2.418   6.894  17.674  0.00  0.00    +0.000 OA
BRANCH  16  17
ATOM     17  C   UNL     1       3.443   5.952  17.732  0.00  0.00    +0.000 A 
ATOM     18  C   UNL     1       4.728   6.403  18.021  0.00  0.00    +0.000 A 
ATOM     19  C   UNL     1       5.763   5.496  18.253  0.00  0.00    +0.000 A 
ATOM     20  C   UNL     1       5.466   4.266  18.803  0.00  0.00    +0.000 A 
ATOM     21  C   UNL     1       4.173   3.788  18.678  0.00  0.00    +0.000 A 
ATOM     22  C   UNL     1       3.925   2.488  19.132  0.00  0.00    +0.000 A 
ATOM     23  C   UNL     1       2.709   1.879  18.875  0.00  0.00    +0.000 A 
ATOM     24  C   UNL     1       1.732   2.586  18.182  0.00  0.00    +0.000 A 
ATOM     25  C   UNL     1       1.939   3.924  17.802  0.00  0.00    +0.000 A 
ATOM     26  C   UNL     1       3.163   4.579  18.035  0.00  0.00    +0.000 A 
ENDBRANCH  16  17
ENDBRANCH   7  16
TORSDOF 3
ENDMDL
MODEL 6
REMARK VINA RESULT:      -7.8      1.607      3.002
REMARK  Name = 
REMARK  4 active torsions:
REMARK  status: ('A' for Active; 'I' for Inactive)
REMARK    1  A    between atoms: C_1  and  N_2
REMARK    2  A    between atoms: C_3  and  C_4
REMARK    3  A    between atoms: C_11  and  O_12
REMARK    4  A    between atoms: O_12  and  C_13
REMARK                            x       y       z     vdW  Elec       q    Type
REMARK                         _______ _______ _______ _____ _____    ______ ____
ROOT
ATOM      1  C   UNL     1      -0.576  10.090  23.055  0.00  0.00    +0.000 C 
ATOM      2  N   UNL     1       0.026  10.293  21.748  0.00  0.00    +0.000 N 
ATOM      3  C   UNL     1      -0.072  11.403  20.921  0.00  0.00    +0.000 A 
ATOM      4  N   UNL     1       0.546  11.148  19.759  0.00  0.00    +0.000 NA
ATOM      5  C   UNL     1       1.023   9.870  19.837  0.00  0.00    +0.000 A 
ATOM      6  C   UNL     1       1.660   9.090  18.840  0.00  0.00    +0.000 A 
ATOM      7  C   UNL     1       2.016   7.741  19.071  0.00  0.00    +0.000 A 
ATOM      8  C   UNL     1       1.770   7.228  20.362  0.00  0.00    +0.000 A 
ATOM      9 CL   UNL     1       2.120   5.596  20.809  0.00  0.00    +0.000 Cl
ATOM     10  C   UNL     1       1.147   8.008  21.380  0.00  0.00    +0.000 A 
ATOM     11  C   UNL     1       0.747   9.317  21.080  0.00  0.00    +0.000 A 
ENDROOT
BRANCH   3  12
ATOM     12  C   UNL     1      -0.777  12.702  21.265  0.00  0.00    +0.000 C 
ATOM     13  F   UNL     1      -2.114  12.579  21.503  0.00  0.00    +0.000 F 
ATOM     14  F   UNL     1      -0.266  13.272  22.388  0.00  0.00    +0.000 F 
ATOM     15  F   UNL     1      -0.673  13.628  20.274  0.00  0.00    +0.000 F 
ENDBRANCH   3  12
BRANCH   7  16
ATOM     16  O   UNL     1       2.166   6.987  17.903  0.00  0.00    +0.000 OA
BRANCH  16  17
ATOM     17  C   UNL     1       3.223   6.106  17.680  0.00  0.00    +0.000 A 
ATOM     18  C   UNL     1       4.519   6.600  17.793  0.00  0.00    +0.000 A 
ATOM     19  C   UNL     1       5.615   5.737  17.741  0.00  0.00    +0.000 A 
ATOM     20  C   UNL     1       5.469   4.441  18.193  0.00  0.00    +0.000 A 
ATOM     21  C   UNL     1       4.195   3.903  18.239  0.00  0.00    +0.000 A 
ATOM     22  C   UNL     1       4.084   2.551  18.581  0.00  0.00    +0.000 A 
ATOM     23  C   UNL     1       2.867   1.901  18.470  0.00  0.00    +0.000 A 
ATOM     24  C   UNL     1       1.755   2.617  18.038  0.00  0.00    +0.000 A 
ATOM     25  C   UNL     1       1.837   3.996  17.779  0.00  0.00    +0.000 A 
ATOM     26  C   UNL     1       3.056   4.695  17.871  0.00  0.00    +0.000 A 
ENDBRANCH  16  17
ENDBRANCH   7  16
TORSDOF 3
ENDMDL
MODEL 7
REMARK VINA RESULT:      -7.8      5.160      8.565
REMARK  Name = 
REMARK  4 active torsions:
REMARK  status: ('A' for Active; 'I' for Inactive)
REMARK    1  A    between atoms: C_1  and  N_2
REMARK    2  A    between atoms: C_3  and  C_4
REMARK    3  A    between atoms: C_11  and  O_12
REMARK    4  A    between atoms: O_12  and  C_13
REMARK                            x       y       z     vdW  Elec       q    Type
REMARK                         _______ _______ _______ _____ _____    ______ ____
ROOT
ATOM      1  C   UNL     1       4.960   3.826  19.070  0.00  0.00    +0.000 C 
ATOM      2  N   UNL     1       4.644   4.941  18.193  0.00  0.00    +0.000 N 
ATOM      3  C   UNL     1       5.235   5.276  16.984  0.00  0.00    +0.000 A 
ATOM      4  N   UNL     1       4.723   6.435  16.545  0.00  0.00    +0.000 NA
ATOM      5  C   UNL     1       3.819   6.848  17.482  0.00  0.00    +0.000 A 
ATOM      6  C   UNL     1       3.082   8.057  17.543  0.00  0.00    +0.000 A 
ATOM      7  C   UNL     1       2.245   8.359  18.642  0.00  0.00    +0.000 A 
ATOM      8  C   UNL     1       2.124   7.371  19.643  0.00  0.00    +0.000 A 
ATOM      9 CL   UNL     1       1.164   7.584  21.064  0.00  0.00    +0.000 Cl
ATOM     10  C   UNL     1       2.845   6.143  19.583  0.00  0.00    +0.000 A 
ATOM     11  C   UNL     1       3.718   5.921  18.510  0.00  0.00    +0.000 A 
ENDROOT
BRANCH   3  12
ATOM     12  C   UNL     1       6.303   4.470  16.269  0.00  0.00    +0.000 C 
ATOM     13  F   UNL     1       7.413   4.206  17.015  0.00  0.00    +0.000 F 
ATOM     14  F   UNL     1       5.840   3.254  15.875  0.00  0.00    +0.000 F 
ATOM     15  F   UNL     1       6.763   5.094  15.150  0.00  0.00    +0.000 F 
ENDBRANCH   3  12
BRANCH   7  16
ATOM     16  O   UNL     1       1.991   9.725  18.802  0.00  0.00    +0.000 OA
BRANCH  16  17
ATOM     17  C   UNL     1       0.749  10.314  18.575  0.00  0.00    +0.000 A 
ATOM     18  C   UNL     1      -0.153   9.639  17.757  0.00  0.00    +0.000 A 
ATOM     19  C   UNL     1      -1.466  10.093  17.621  0.00  0.00    +0.000 A 
ATOM     20  C   UNL     1      -2.057  10.758  18.677  0.00  0.00    +0.000 A 
ATOM     21  C   UNL     1      -1.236  11.355  19.617  0.00  0.00    +0.000 A 
ATOM     22  C   UNL     1      -1.854  12.128  20.606  0.00  0.00    +0.000 A 
ATOM     23  C   UNL     1      -1.091  12.900  21.466  0.00  0.00    +0.000 A 
ATOM     24  C   UNL     1       0.295  12.876  21.347  0.00  0.00    +0.000 A 
ATOM     25  C   UNL     1       0.927  12.034  20.416  0.00  0.00    +0.000 A 
ATOM     26  C   UNL     1       0.191  11.239  19.516  0.00  0.00    +0.000 A 
ENDBRANCH  16  17
ENDBRANCH   7  16
TORSDOF 3
ENDMDL
MODEL 8
REMARK VINA RESULT:      -7.7      1.611      2.876
REMARK  Name = 
REMARK  4 active torsions:
REMARK  status: ('A' for Active; 'I' for Inactive)
REMARK    1  A    between atoms: C_1  and  N_2
REMARK    2  A    between atoms: C_3  and  C_4
REMARK    3  A    between atoms: C_11  and  O_12
REMARK    4  A    between atoms: O_12  and  C_13
REMARK                            x       y       z     vdW  Elec       q    Type
REMARK                         _______ _______ _______ _____ _____    ______ ____
ROOT
ATOM      1  C   UNL     1      -1.017  12.958  20.052  0.00  0.00    +0.000 C 
ATOM      2  N   UNL     1      -0.820  11.688  20.730  0.00  0.00    +0.000 N 
ATOM      3  C   UNL     1      -1.213  11.329  22.011  0.00  0.00    +0.000 A 
ATOM      4  N   UNL     1      -0.748  10.103  22.291  0.00  0.00    +0.000 NA
ATOM      5  C   UNL     1      -0.043   9.687  21.197  0.00  0.00    +0.000 A 
ATOM      6  C   UNL     1       0.728   8.512  21.023  0.00  0.00    +0.000 A 
ATOM      7  C   UNL     1       1.468   8.281  19.841  0.00  0.00    +0.000 A 
ATOM      8  C   UNL     1       1.349   9.242  18.815  0.00  0.00    +0.000 A 
ATOM      9 CL   UNL     1       2.202   9.129  17.316  0.00  0.00    +0.000 Cl
ATOM     10  C   UNL     1       0.561  10.420  18.970  0.00  0.00    +0.000 A 
ATOM     11  C   UNL     1      -0.097  10.639  20.188  0.00  0.00    +0.000 A 
ENDROOT
BRANCH   3  12
ATOM     12  C   UNL     1      -2.032  12.187  22.957  0.00  0.00    +0.000 C 
ATOM     13  F   UNL     1      -2.676  11.496  23.940  0.00  0.00    +0.000 F 
ATOM     14  F   UNL     1      -1.262  13.099  23.608  0.00  0.00    +0.000 F 
ATOM     15  F   UNL     1      -3.006  12.886  22.313  0.00  0.00    +0.000 F 
ENDBRANCH   3  12
BRANCH   7  16
ATOM     16  O   UNL     1       2.524   7.378  20.001  0.00  0.00    +0.000 OA
BRANCH  16  17
ATOM     17  C   UNL     1       2.746   6.287  19.163  0.00  0.00    +0.000 A 
ATOM     18  C   UNL     1       3.778   6.378  18.233  0.00  0.00    +0.000 A 
ATOM     19  C   UNL     1       4.154   5.265  17.479  0.00  0.00    +0.000 A 
ATOM     20  C   UNL     1       3.999   4.005  18.021  0.00  0.00    +0.000 A 
ATOM     21  C   UNL     1       3.083   3.841  19.046  0.00  0.00    +0.000 A 
ATOM     22  C   UNL     1       2.853   2.536  19.494  0.00  0.00    +0.000 A 
ATOM     23  C   UNL     1       1.824   2.275  20.383  0.00  0.00    +0.000 A 
ATOM     24  C   UNL     1       1.041   3.331  20.841  0.00  0.00    +0.000 A 
ATOM     25  C   UNL     1       1.324   4.656  20.466  0.00  0.00    +0.000 A 
ATOM     26  C   UNL     1       2.354   4.966  19.558  0.00  0.00    +0.000 A 
ENDBRANCH  16  17
ENDBRANCH   7  16
TORSDOF 3
ENDMDL
MODEL 9
REMARK VINA RESULT:      -7.7      5.223      8.535
REMARK  Name = 
REMARK  4 active torsions:
REMARK  status: ('A' for Active; 'I' for Inactive)
REMARK    1  A    between atoms: C_1  and  N_2
REMARK    2  A    between atoms: C_3  and  C_4
REMARK    3  A    between atoms: C_11  and  O_12
REMARK    4  A    between atoms: O_12  and  C_13
REMARK                            x       y       z     vdW  Elec       q    Type
REMARK                         _______ _______ _______ _____ _____    ______ ____
ROOT
ATOM      1  C   UNL     1       4.853   3.691  18.943  0.00  0.00    +0.000 C 
ATOM      2  N   UNL     1       4.560   4.869  18.144  0.00  0.00    +0.000 N 
ATOM      3  C   UNL     1       5.159   5.274  16.960  0.00  0.00    +0.000 A 
ATOM      4  N   UNL     1       4.671   6.470  16.600  0.00  0.00    +0.000 NA
ATOM      5  C   UNL     1       3.774   6.836  17.564  0.00  0.00    +0.000 A 
ATOM      6  C   UNL     1       3.060   8.052  17.706  0.00  0.00    +0.000 A 
ATOM      7  C   UNL     1       2.228   8.296  18.823  0.00  0.00    +0.000 A 
ATOM      8  C   UNL     1       2.086   7.246  19.754  0.00  0.00    +0.000 A 
ATOM      9 CL   UNL     1       1.129   7.381  21.186  0.00  0.00    +0.000 Cl
ATOM     10  C   UNL     1       2.783   6.010  19.612  0.00  0.00    +0.000 A 
ATOM     11  C   UNL     1       3.652   5.844  18.526  0.00  0.00    +0.000 A 
ENDROOT
BRANCH   3  12
ATOM     12  C   UNL     1       6.212   4.497  16.192  0.00  0.00    +0.000 C 
ATOM     13  F   UNL     1       7.359   4.251  16.887  0.00  0.00    +0.000 F 
ATOM     14  F   UNL     1       5.758   3.274  15.808  0.00  0.00    +0.000 F 
ATOM     15  F   UNL     1       6.609   5.140  15.061  0.00  0.00    +0.000 F 
ENDBRANCH   3  12
BRANCH   7  16
ATOM     16  O   UNL     1       2.001   9.652  19.075  0.00  0.00    +0.000 OA
BRANCH  16  17
ATOM     17  C   UNL     1       0.971  10.388  18.490  0.00  0.00    +0.000 A 
ATOM     18  C   UNL     1      -0.264   9.766  18.328  0.00  0.00    +0.000 A 
ATOM     19  C   UNL     1      -1.375  10.494  17.901  0.00  0.00    +0.000 A 
ATOM     20  C   UNL     1      -1.461  11.834  18.221  0.00  0.00    +0.000 A 
ATOM     21  C   UNL     1      -0.293  12.511  18.525  0.00  0.00    +0.000 A 
ATOM     22  C   UNL     1      -0.388  13.893  18.724  0.00  0.00    +0.000 A 
ATOM     23  C   UNL     1       0.757  14.660  18.850  0.00  0.00    +0.000 A 
ATOM     24  C   UNL     1       1.999  14.035  18.799  0.00  0.00    +0.000 A 
ATOM     25  C   UNL     1       2.102  12.637  18.691  0.00  0.00    +0.000 A 
ATOM     26  C   UNL     1       0.964  11.819  18.551  0.00  0.00    +0.000 A 
ENDBRANCH  16  17
ENDBRANCH   7  16
TORSDOF 3
ENDMDL
