MODEL 1
REMARK VINA RESULT:      -7.7      0.000      0.000
REMARK  Name = 
REMARK  15 active torsions:
REMARK  status: ('A' for Active; 'I' for Inactive)
REMARK    1  A    between atoms: C_1  and  O_2
REMARK    2  A    between atoms: O_2  and  C_3
REMARK    3  A    between atoms: C_6  and  C_7
REMARK    4  A    between atoms: C_7  and  C_8
REMARK    5  A    between atoms: C_7  and  N_28
REMARK    6  A    between atoms: C_8  and  N_9
REMARK    7  A    between atoms: C_10  and  C_12
REMARK    8  A    between atoms: C_12  and  C_13
REMARK    9  A    between atoms: C_12  and  N_17
REMARK   10  A    between atoms: C_13  and  C_14
REMARK   11  A    between atoms: C_14  and  S_15
REMARK   12  A    between atoms: S_15  and  C_16
REMARK   13  A    between atoms: C_18  and  C_20
REMARK   14  A    between atoms: C_25  and  O_26
REMARK   15  A    between atoms: O_26  and  C_27
REMARK                            x       y       z     vdW  Elec       q    Type
REMARK                         _______ _______ _______ _____ _____    ______ ____
ROOT
ATOM      1  N   UNL     1       1.969   7.435  18.952  0.00  0.00    +0.000 N 
ATOM      2  C   UNL     1       1.795   8.687  18.389  0.00  0.00    +0.000 C 
ATOM      3  O   UNL     1       2.181   8.969  17.255  0.00  0.00    +0.000 OA
ATOM      4  H   UNL     1       1.455   7.181  19.789  0.00  0.00    +0.000 HD
ENDROOT
BRANCH   1   5
ATOM      5  C   UNL     1       2.612   6.366  18.199  0.00  0.00    +0.000 C 
BRANCH   5   6
ATOM      6  C   UNL     1       3.776   5.596  18.920  0.00  0.00    +0.000 C 
BRANCH   6  10
ATOM      7  C   UNL     1       6.951   5.076  15.987  0.00  0.00    +0.000 A 
ATOM      8  C   UNL     1       5.737   5.661  15.639  0.00  0.00    +0.000 A 
ATOM      9  C   UNL     1       4.746   5.862  16.600  0.00  0.00    +0.000 A 
ATOM     10  C   UNL     1       4.936   5.446  17.930  0.00  0.00    +0.000 A 
ATOM     11  C   UNL     1       6.155   4.840  18.267  0.00  0.00    +0.000 A 
ATOM     12  C   UNL     1       7.161   4.664  17.304  0.00  0.00    +0.000 A 
BRANCH   7  14
ATOM     13  C   UNL     1       7.246   4.882  13.657  0.00  0.00    +0.000 C 
ATOM     14  O   UNL     1       7.830   4.911  14.953  0.00  0.00    +0.000 OA
ENDBRANCH   7  14
ENDBRANCH   6  10
BRANCH   6  15
ATOM     15  N   UNL     1       3.409   4.331  19.654  0.00  0.00    +0.000 NA
ATOM     16  C   UNL     1       2.643   4.678  20.880  0.00  0.00    +0.000 C 
ATOM     17  C   UNL     1       2.030   3.475  21.605  0.00  0.00    +0.000 C 
ATOM     18  C   UNL     1       1.155   2.662  20.665  0.00  0.00    +0.000 C 
ATOM     19  C   UNL     1       1.987   2.240  19.467  0.00  0.00    +0.000 C 
ATOM     20  C   UNL     1       2.612   3.451  18.773  0.00  0.00    +0.000 C 
ENDBRANCH   6  15
ENDBRANCH   5   6
ENDBRANCH   1   5
BRANCH   2  21
ATOM     21  C   UNL     1       1.030   9.704  19.265  0.00  0.00    +0.000 C 
BRANCH  21  22
ATOM     22  N   UNL     1       1.700  11.000  19.192  0.00  0.00    +0.000 N 
ATOM     23  C   UNL     1       1.019  12.194  19.268  0.00  0.00    +0.000 C 
ATOM     24  O   UNL     1      -0.202  12.249  19.337  0.00  0.00    +0.000 OA
ATOM     25  H   UNL     1       2.685  10.993  18.963  0.00  0.00    +0.000 HD
BRANCH  23  26
ATOM     26  C   UNL     1       1.881  13.417  19.302  0.00  0.00    +0.000 A 
ATOM     27  C   UNL     1       2.418  13.857  18.070  0.00  0.00    +0.000 A 
ATOM     28  C   UNL     1       3.248  14.977  17.998  0.00  0.00    +0.000 A 
ATOM     29  C   UNL     1       3.539  15.690  19.151  0.00  0.00    +0.000 A 
ATOM     30  C   UNL     1       2.988  15.288  20.368  0.00  0.00    +0.000 A 
ATOM     31  C   UNL     1       2.164  14.153  20.465  0.00  0.00    +0.000 A 
BRANCH  31  32
ATOM     32  O   UNL     1       1.669  13.977  21.729  0.00  0.00    +0.000 OA
ATOM     33  C   UNL     1       0.529  14.738  22.107  0.00  0.00    +0.000 C 
ENDBRANCH  31  32
ENDBRANCH  23  26
ENDBRANCH  21  22
BRANCH  21  34
ATOM     34  C   UNL     1       1.027   9.219  20.728  0.00  0.00    +0.000 C 
BRANCH  34  35
ATOM     35  C   UNL     1      -0.375   9.290  21.339  0.00  0.00    +0.000 C 
BRANCH  35  36
ATOM     36  S   UNL     1      -0.389   9.838  23.078  0.00  0.00    +0.000 S 
ATOM     37  C   UNL     1      -1.294  11.400  22.922  0.00  0.00    +0.000 C 
ENDBRANCH  35  36
ENDBRANCH  34  35
ENDBRANCH  21  34
ENDBRANCH   2  21
TORSDOF 12
ENDMDL
MODEL 2
REMARK VINA RESULT:      -7.5      2.761      4.073
REMARK  Name = 
REMARK  15 active torsions:
REMARK  status: ('A' for Active; 'I' for Inactive)
REMARK    1  A    between atoms: C_1  and  O_2
REMARK    2  A    between atoms: O_2  and  C_3
REMARK    3  A    between atoms: C_6  and  C_7
REMARK    4  A    between atoms: C_7  and  C_8
REMARK    5  A    between atoms: C_7  and  N_28
REMARK    6  A    between atoms: C_8  and  N_9
REMARK    7  A    between atoms: C_10  and  C_12
REMARK    8  A    between atoms: C_12  and  C_13
REMARK    9  A    between atoms: C_12  and  N_17
REMARK   10  A    between atoms: C_13  and  C_14
REMARK   11  A    between atoms: C_14  and  S_15
REMARK   12  A    between atoms: S_15  and  C_16
REMARK   13  A    between atoms: C_18  and  C_20
REMARK   14  A    between atoms: C_25  and  O_26
REMARK   15  A    between atoms: O_26  and  C_27
REMARK                            x       y       z     vdW  Elec       q    Type
REMARK                         _______ _______ _______ _____ _____    ______ ____
ROOT
ATOM      1  N   UNL     1       1.837   7.560  18.627  0.00  0.00    +0.000 N 
ATOM      2  C   UNL     1       2.224   8.718  17.976  0.00  0.00    +0.000 C 
ATOM      3  O   UNL     1       3.005   8.721  17.024  0.00  0.00    +0.000 OA
ATOM      4  H   UNL     1       1.040   7.575  19.254  0.00  0.00    +0.000 HD
ENDROOT
BRANCH   1   5
ATOM      5  C   UNL     1       2.333   6.262  18.187  0.00  0.00    +0.000 C 
BRANCH   5   6
ATOM      6  C   UNL     1       3.645   5.738  18.873  0.00  0.00    +0.000 C 
BRANCH   6  10
ATOM      7  C   UNL     1       6.736   5.420  15.824  0.00  0.00    +0.000 A 
ATOM      8  C   UNL     1       7.037   5.851  17.113  0.00  0.00    +0.000 A 
ATOM      9  C   UNL     1       6.044   5.905  18.091  0.00  0.00    +0.000 A 
ATOM     10  C   UNL     1       4.714   5.561  17.789  0.00  0.00    +0.000 A 
ATOM     11  C   UNL     1       4.417   5.146  16.483  0.00  0.00    +0.000 A 
ATOM     12  C   UNL     1       5.423   5.067  15.508  0.00  0.00    +0.000 A 
BRANCH   7  14
ATOM     13  C   UNL     1       7.477   5.054  13.617  0.00  0.00    +0.000 C 
ATOM     14  O   UNL     1       7.788   5.435  14.951  0.00  0.00    +0.000 OA
ENDBRANCH   7  14
ENDBRANCH   6  10
BRANCH   6  15
ATOM     15  N   UNL     1       3.507   4.570  19.816  0.00  0.00    +0.000 NA
ATOM     16  C   UNL     1       2.447   4.866  20.816  0.00  0.00    +0.000 C 
ATOM     17  C   UNL     1       2.062   3.676  21.701  0.00  0.00    +0.000 C 
ATOM     18  C   UNL     1       1.653   2.480  20.858  0.00  0.00    +0.000 C 
ATOM     19  C   UNL     1       2.790   2.140  19.911  0.00  0.00    +0.000 C 
ATOM     20  C   UNL     1       3.178   3.346  19.054  0.00  0.00    +0.000 C 
ENDBRANCH   6  15
ENDBRANCH   5   6
ENDBRANCH   1   5
BRANCH   2  21
ATOM     21  C   UNL     1       1.566  10.017  18.493  0.00  0.00    +0.000 C 
BRANCH  21  22
ATOM     22  N   UNL     1       0.248  10.163  17.879  0.00  0.00    +0.000 N 
ATOM     23  C   UNL     1      -0.887  10.430  18.610  0.00  0.00    +0.000 C 
ATOM     24  O   UNL     1      -0.879  10.499  19.833  0.00  0.00    +0.000 OA
ATOM     25  H   UNL     1       0.175   9.944  16.895  0.00  0.00    +0.000 HD
BRANCH  23  26
ATOM     26  C   UNL     1      -2.124  10.672  17.802  0.00  0.00    +0.000 A 
ATOM     27  C   UNL     1      -2.227   9.987  16.569  0.00  0.00    +0.000 A 
ATOM     28  C   UNL     1      -3.332  10.159  15.733  0.00  0.00    +0.000 A 
ATOM     29  C   UNL     1      -4.364  10.999  16.124  0.00  0.00    +0.000 A 
ATOM     30  C   UNL     1      -4.291  11.654  17.354  0.00  0.00    +0.000 A 
ATOM     31  C   UNL     1      -3.179  11.509  18.202  0.00  0.00    +0.000 A 
BRANCH  31  32
ATOM     32  O   UNL     1      -3.340  12.174  19.387  0.00  0.00    +0.000 OA
ATOM     33  C   UNL     1      -4.665  12.384  19.855  0.00  0.00    +0.000 C 
ENDBRANCH  31  32
ENDBRANCH  23  26
ENDBRANCH  21  22
BRANCH  21  34
ATOM     34  C   UNL     1       2.441  11.224  18.103  0.00  0.00    +0.000 C 
BRANCH  34  35
ATOM     35  C   UNL     1       2.108  12.454  18.953  0.00  0.00    +0.000 C 
BRANCH  35  36
ATOM     36  S   UNL     1       2.593  14.032  18.176  0.00  0.00    +0.000 S 
ATOM     37  C   UNL     1       1.415  15.160  18.966  0.00  0.00    +0.000 C 
ENDBRANCH  35  36
ENDBRANCH  34  35
ENDBRANCH  21  34
ENDBRANCH   2  21
TORSDOF 12
ENDMDL
MODEL 3
REMARK VINA RESULT:      -7.4      2.763      4.295
REMARK  Name = 
REMARK  15 active torsions:
REMARK  status: ('A' for Active; 'I' for Inactive)
REMARK    1  A    between atoms: C_1  and  O_2
REMARK    2  A    between atoms: O_2  and  C_3
REMARK    3  A    between atoms: C_6  and  C_7
REMARK    4  A    between atoms: C_7  and  C_8
REMARK    5  A    between atoms: C_7  and  N_28
REMARK    6  A    between atoms: C_8  and  N_9
REMARK    7  A    between atoms: C_10  and  C_12
REMARK    8  A    between atoms: C_12  and  C_13
REMARK    9  A    between atoms: C_12  and  N_17
REMARK   10  A    between atoms: C_13  and  C_14
REMARK   11  A    between atoms: C_14  and  S_15
REMARK   12  A    between atoms: S_15  and  C_16
REMARK   13  A    between atoms: C_18  and  C_20
REMARK   14  A    between atoms: C_25  and  O_26
REMARK   15  A    between atoms: O_26  and  C_27
REMARK                            x       y       z     vdW  Elec       q    Type
REMARK                         _______ _______ _______ _____ _____    ______ ____
ROOT
ATOM      1  N   UNL     1       2.012   8.199  18.979  0.00  0.00    +0.000 N 
ATOM      2  C   UNL     1       1.980   9.284  18.122  0.00  0.00    +0.000 C 
ATOM      3  O   UNL     1       2.285   9.206  16.932  0.00  0.00    +0.000 OA
ATOM      4  H   UNL     1       1.554   8.254  19.882  0.00  0.00    +0.000 HD
ENDROOT
BRANCH   1   5
ATOM      5  C   UNL     1       2.396   6.880  18.491  0.00  0.00    +0.000 C 
BRANCH   5   6
ATOM      6  C   UNL     1       3.557   6.154  19.259  0.00  0.00    +0.000 C 
BRANCH   6  10
ATOM      7  C   UNL     1       6.688   5.255  16.371  0.00  0.00    +0.000 A 
ATOM      8  C   UNL     1       5.371   5.455  15.967  0.00  0.00    +0.000 A 
ATOM      9  C   UNL     1       4.388   5.787  16.900  0.00  0.00    +0.000 A 
ATOM     10  C   UNL     1       4.696   5.890  18.268  0.00  0.00    +0.000 A 
ATOM     11  C   UNL     1       6.022   5.667  18.667  0.00  0.00    +0.000 A 
ATOM     12  C   UNL     1       7.014   5.361  17.724  0.00  0.00    +0.000 A 
BRANCH   7  14
ATOM     13  C   UNL     1       7.001   4.919  14.059  0.00  0.00    +0.000 C 
ATOM     14  O   UNL     1       7.553   4.911  15.370  0.00  0.00    +0.000 OA
ENDBRANCH   7  14
ENDBRANCH   6  10
BRANCH   6  15
ATOM     15  N   UNL     1       3.180   4.970  20.112  0.00  0.00    +0.000 NA
ATOM     16  C   UNL     1       1.698   4.873  20.192  0.00  0.00    +0.000 C 
ATOM     17  C   UNL     1       1.184   3.591  20.856  0.00  0.00    +0.000 C 
ATOM     18  C   UNL     1       1.743   2.358  20.165  0.00  0.00    +0.000 C 
ATOM     19  C   UNL     1       3.259   2.436  20.180  0.00  0.00    +0.000 C 
ATOM     20  C   UNL     1       3.753   3.734  19.538  0.00  0.00    +0.000 C 
ENDBRANCH   6  15
ENDBRANCH   5   6
ENDBRANCH   1   5
BRANCH   2  21
ATOM     21  C   UNL     1       1.480  10.605  18.749  0.00  0.00    +0.000 C 
BRANCH  21  22
ATOM     22  N   UNL     1       0.109  10.857  18.310  0.00  0.00    +0.000 N 
ATOM     23  C   UNL     1      -0.987  10.548  19.084  0.00  0.00    +0.000 C 
ATOM     24  O   UNL     1      -0.888   9.983  20.165  0.00  0.00    +0.000 OA
ATOM     25  H   UNL     1      -0.016  11.163  17.355  0.00  0.00    +0.000 HD
BRANCH  23  26
ATOM     26  C   UNL     1      -2.304  10.990  18.526  0.00  0.00    +0.000 A 
ATOM     27  C   UNL     1      -3.107  11.808  19.353  0.00  0.00    +0.000 A 
ATOM     28  C   UNL     1      -4.360  12.258  18.933  0.00  0.00    +0.000 A 
ATOM     29  C   UNL     1      -4.823  11.919  17.671  0.00  0.00    +0.000 A 
ATOM     30  C   UNL     1      -4.025  11.141  16.830  0.00  0.00    +0.000 A 
ATOM     31  C   UNL     1      -2.768  10.663  17.241  0.00  0.00    +0.000 A 
BRANCH  31  32
ATOM     32  O   UNL     1      -2.119   9.986  16.245  0.00  0.00    +0.000 OA
ATOM     33  C   UNL     1      -2.744   9.926  14.969  0.00  0.00    +0.000 C 
ENDBRANCH  31  32
ENDBRANCH  23  26
ENDBRANCH  21  22
BRANCH  21  34
ATOM     34  C   UNL     1       2.380  11.766  18.281  0.00  0.00    +0.000 C 
BRANCH  34  35
ATOM     35  C   UNL     1       1.629  13.100  18.301  0.00  0.00    +0.000 C 
BRANCH  35  36
ATOM     36  S   UNL     1       2.180  14.231  19.622  0.00  0.00    +0.000 S 
ATOM     37  C   UNL     1       2.408  15.757  18.672  0.00  0.00    +0.000 C 
ENDBRANCH  35  36
ENDBRANCH  34  35
ENDBRANCH  21  34
ENDBRANCH   2  21
TORSDOF 12
ENDMDL
MODEL 4
REMARK VINA RESULT:      -7.3      3.089      4.591
REMARK  Name = 
REMARK  15 active torsions:
REMARK  status: ('A' for Active; 'I' for Inactive)
REMARK    1  A    between atoms: C_1  and  O_2
REMARK    2  A    between atoms: O_2  and  C_3
REMARK    3  A    between atoms: C_6  and  C_7
REMARK    4  A    between atoms: C_7  and  C_8
REMARK    5  A    between atoms: C_7  and  N_28
REMARK    6  A    between atoms: C_8  and  N_9
REMARK    7  A    between atoms: C_10  and  C_12
REMARK    8  A    between atoms: C_12  and  C_13
REMARK    9  A    between atoms: C_12  and  N_17
REMARK   10  A    between atoms: C_13  and  C_14
REMARK   11  A    between atoms: C_14  and  S_15
REMARK   12  A    between atoms: S_15  and  C_16
REMARK   13  A    between atoms: C_18  and  C_20
REMARK   14  A    between atoms: C_25  and  O_26
REMARK   15  A    between atoms: O_26  and  C_27
REMARK                            x       y       z     vdW  Elec       q    Type
REMARK                         _______ _______ _______ _____ _____    ______ ____
ROOT
ATOM      1  N   UNL     1       1.698   8.875  19.017  0.00  0.00    +0.000 N 
ATOM      2  C   UNL     1       1.659  10.195  18.604  0.00  0.00    +0.000 C 
ATOM      3  O   UNL     1       2.198  10.589  17.569  0.00  0.00    +0.000 OA
ATOM      4  H   UNL     1       1.071   8.555  19.746  0.00  0.00    +0.000 HD
ENDROOT
BRANCH   1   5
ATOM      5  C   UNL     1       2.378   7.867  18.212  0.00  0.00    +0.000 C 
BRANCH   5   6
ATOM      6  C   UNL     1       2.931   6.610  18.975  0.00  0.00    +0.000 C 
BRANCH   6  10
ATOM      7  C   UNL     1       6.438   5.224  16.802  0.00  0.00    +0.000 A 
ATOM      8  C   UNL     1       5.564   6.151  16.242  0.00  0.00    +0.000 A 
ATOM      9  C   UNL     1       4.469   6.620  16.969  0.00  0.00    +0.000 A 
ATOM     10  C   UNL     1       4.204   6.140  18.264  0.00  0.00    +0.000 A 
ATOM     11  C   UNL     1       5.080   5.191  18.811  0.00  0.00    +0.000 A 
ATOM     12  C   UNL     1       6.196   4.743  18.089  0.00  0.00    +0.000 A 
BRANCH   7  14
ATOM     13  C   UNL     1       7.089   4.572  14.632  0.00  0.00    +0.000 C 
ATOM     14  O   UNL     1       7.457   4.825  15.982  0.00  0.00    +0.000 OA
ENDBRANCH   7  14
ENDBRANCH   6  10
BRANCH   6  15
ATOM     15  N   UNL     1       1.946   5.513  19.293  0.00  0.00    +0.000 NA
ATOM     16  C   UNL     1       2.028   4.460  18.246  0.00  0.00    +0.000 C 
ATOM     17  C   UNL     1       1.230   3.191  18.562  0.00  0.00    +0.000 C 
ATOM     18  C   UNL     1       1.638   2.612  19.906  0.00  0.00    +0.000 C 
ATOM     19  C   UNL     1       1.456   3.678  20.972  0.00  0.00    +0.000 C 
ATOM     20  C   UNL     1       2.238   4.947  20.626  0.00  0.00    +0.000 C 
ENDBRANCH   6  15
ENDBRANCH   5   6
ENDBRANCH   1   5
BRANCH   2  21
ATOM     21  C   UNL     1       0.840  11.144  19.507  0.00  0.00    +0.000 C 
BRANCH  21  22
ATOM     22  N   UNL     1      -0.449  11.417  18.875  0.00  0.00    +0.000 N 
ATOM     23  C   UNL     1      -1.448  10.474  18.789  0.00  0.00    +0.000 C 
ATOM     24  O   UNL     1      -1.299   9.323  19.179  0.00  0.00    +0.000 OA
ATOM     25  H   UNL     1      -0.543  12.299  18.391  0.00  0.00    +0.000 HD
BRANCH  23  26
ATOM     26  C   UNL     1      -2.742  10.968  18.221  0.00  0.00    +0.000 A 
ATOM     27  C   UNL     1      -3.514  11.825  19.038  0.00  0.00    +0.000 A 
ATOM     28  C   UNL     1      -4.745  12.325  18.608  0.00  0.00    +0.000 A 
ATOM     29  C   UNL     1      -5.215  11.996  17.345  0.00  0.00    +0.000 A 
ATOM     30  C   UNL     1      -4.447  11.180  16.514  0.00  0.00    +0.000 A 
ATOM     31  C   UNL     1      -3.213  10.652  16.936  0.00  0.00    +0.000 A 
BRANCH  31  32
ATOM     32  O   UNL     1      -2.588   9.941  15.947  0.00  0.00    +0.000 OA
ATOM     33  C   UNL     1      -3.017  10.149  14.608  0.00  0.00    +0.000 C 
ENDBRANCH  31  32
ENDBRANCH  23  26
ENDBRANCH  21  22
BRANCH  21  34
ATOM     34  C   UNL     1       1.606  12.471  19.682  0.00  0.00    +0.000 C 
BRANCH  34  35
ATOM     35  C   UNL     1       0.844  13.643  19.060  0.00  0.00    +0.000 C 
BRANCH  35  36
ATOM     36  S   UNL     1       1.889  15.101  18.728  0.00  0.00    +0.000 S 
ATOM     37  C   UNL     1       2.694  15.301  20.339  0.00  0.00    +0.000 C 
ENDBRANCH  35  36
ENDBRANCH  34  35
ENDBRANCH  21  34
ENDBRANCH   2  21
TORSDOF 12
ENDMDL
MODEL 5
REMARK VINA RESULT:      -7.3      2.067      3.900
REMARK  Name = 
REMARK  15 active torsions:
REMARK  status: ('A' for Active; 'I' for Inactive)
REMARK    1  A    between atoms: C_1  and  O_2
REMARK    2  A    between atoms: O_2  and  C_3
REMARK    3  A    between atoms: C_6  and  C_7
REMARK    4  A    between atoms: C_7  and  C_8
REMARK    5  A    between atoms: C_7  and  N_28
REMARK    6  A    between atoms: C_8  and  N_9
REMARK    7  A    between atoms: C_10  and  C_12
REMARK    8  A    between atoms: C_12  and  C_13
REMARK    9  A    between atoms: C_12  and  N_17
REMARK   10  A    between atoms: C_13  and  C_14
REMARK   11  A    between atoms: C_14  and  S_15
REMARK   12  A    between atoms: S_15  and  C_16
REMARK   13  A    between atoms: C_18  and  C_20
REMARK   14  A    between atoms: C_25  and  O_26
REMARK   15  A    between atoms: O_26  and  C_27
REMARK                            x       y       z     vdW  Elec       q    Type
REMARK                         _______ _______ _______ _____ _____    ______ ____
ROOT
ATOM      1  N   UNL     1       2.456   9.413  18.263  0.00  0.00    +0.000 N 
ATOM      2  C   UNL     1       1.275  10.130  18.337  0.00  0.00    +0.000 C 
ATOM      3  O   UNL     1       0.217   9.728  17.852  0.00  0.00    +0.000 OA
ATOM      4  H   UNL     1       3.241   9.671  18.851  0.00  0.00    +0.000 HD
ENDROOT
BRANCH   1   5
ATOM      5  C   UNL     1       2.492   8.109  17.613  0.00  0.00    +0.000 C 
BRANCH   5   6
ATOM      6  C   UNL     1       3.003   6.903  18.479  0.00  0.00    +0.000 C 
BRANCH   6  10
ATOM      7  C   UNL     1       6.494   5.244  16.475  0.00  0.00    +0.000 A 
ATOM      8  C   UNL     1       5.588   6.054  15.794  0.00  0.00    +0.000 A 
ATOM      9  C   UNL     1       4.499   6.614  16.462  0.00  0.00    +0.000 A 
ATOM     10  C   UNL     1       4.271   6.346  17.823  0.00  0.00    +0.000 A 
ATOM     11  C   UNL     1       5.179   5.514  18.495  0.00  0.00    +0.000 A 
ATOM     12  C   UNL     1       6.288   4.973  17.828  0.00  0.00    +0.000 A 
BRANCH   7  14
ATOM     13  C   UNL     1       7.246   4.699  14.308  0.00  0.00    +0.000 C 
ATOM     14  O   UNL     1       7.503   4.736  15.706  0.00  0.00    +0.000 OA
ENDBRANCH   7  14
ENDBRANCH   6  10
BRANCH   6  15
ATOM     15  N   UNL     1       1.987   5.859  18.870  0.00  0.00    +0.000 NA
ATOM     16  C   UNL     1       2.087   4.703  17.939  0.00  0.00    +0.000 C 
ATOM     17  C   UNL     1       1.253   3.486  18.353  0.00  0.00    +0.000 C 
ATOM     18  C   UNL     1       1.603   3.041  19.764  0.00  0.00    +0.000 C 
ATOM     19  C   UNL     1       1.402   4.213  20.708  0.00  0.00    +0.000 C 
ATOM     20  C   UNL     1       2.221   5.428  20.264  0.00  0.00    +0.000 C 
ENDBRANCH   6  15
ENDBRANCH   5   6
ENDBRANCH   1   5
BRANCH   2  21
ATOM     21  C   UNL     1       1.358  11.459  19.120  0.00  0.00    +0.000 C 
BRANCH  21  22
ATOM     22  N   UNL     1       0.165  11.602  19.951  0.00  0.00    +0.000 N 
ATOM     23  C   UNL     1       0.153  12.339  21.113  0.00  0.00    +0.000 C 
ATOM     24  O   UNL     1       1.160  12.873  21.562  0.00  0.00    +0.000 OA
ATOM     25  H   UNL     1      -0.635  11.037  19.703  0.00  0.00    +0.000 HD
BRANCH  23  26
ATOM     26  C   UNL     1      -1.187  12.477  21.766  0.00  0.00    +0.000 A 
ATOM     27  C   UNL     1      -2.113  13.350  21.152  0.00  0.00    +0.000 A 
ATOM     28  C   UNL     1      -3.382  13.561  21.692  0.00  0.00    +0.000 A 
ATOM     29  C   UNL     1      -3.758  12.886  22.844  0.00  0.00    +0.000 A 
ATOM     30  C   UNL     1      -2.867  11.994  23.442  0.00  0.00    +0.000 A 
ATOM     31  C   UNL     1      -1.577  11.781  22.923  0.00  0.00    +0.000 A 
BRANCH  31  32
ATOM     32  O   UNL     1      -0.894  10.816  23.611  0.00  0.00    +0.000 OA
ATOM     33  C   UNL     1      -0.619   9.593  22.942  0.00  0.00    +0.000 C 
ENDBRANCH  31  32
ENDBRANCH  23  26
ENDBRANCH  21  22
BRANCH  21  34
ATOM     34  C   UNL     1       1.424  12.636  18.126  0.00  0.00    +0.000 C 
BRANCH  34  35
ATOM     35  C   UNL     1       2.766  13.368  18.213  0.00  0.00    +0.000 C 
BRANCH  35  36
ATOM     36  S   UNL     1       2.684  14.939  19.136  0.00  0.00    +0.000 S 
ATOM     37  C   UNL     1       0.930  15.347  18.931  0.00  0.00    +0.000 C 
ENDBRANCH  35  36
ENDBRANCH  34  35
ENDBRANCH  21  34
ENDBRANCH   2  21
TORSDOF 12
ENDMDL
MODEL 6
REMARK VINA RESULT:      -7.3      1.244      1.618
REMARK  Name = 
REMARK  15 active torsions:
REMARK  status: ('A' for Active; 'I' for Inactive)
REMARK    1  A    between atoms: C_1  and  O_2
REMARK    2  A    between atoms: O_2  and  C_3
REMARK    3  A    between atoms: C_6  and  C_7
REMARK    4  A    between atoms: C_7  and  C_8
REMARK    5  A    between atoms: C_7  and  N_28
REMARK    6  A    between atoms: C_8  and  N_9
REMARK    7  A    between atoms: C_10  and  C_12
REMARK    8  A    between atoms: C_12  and  C_13
REMARK    9  A    between atoms: C_12  and  N_17
REMARK   10  A    between atoms: C_13  and  C_14
REMARK   11  A    between atoms: C_14  and  S_15
REMARK   12  A    between atoms: S_15  and  C_16
REMARK   13  A    between atoms: C_18  and  C_20
REMARK   14  A    between atoms: C_25  and  O_26
REMARK   15  A    between atoms: O_26  and  C_27
REMARK                            x       y       z     vdW  Elec       q    Type
REMARK                         _______ _______ _______ _____ _____    ______ ____
ROOT
ATOM      1  N   UNL     1       1.986   7.942  18.943  0.00  0.00    +0.000 N 
ATOM      2  C   UNL     1       1.552   9.168  18.468  0.00  0.00    +0.000 C 
ATOM      3  O   UNL     1       1.714   9.529  17.302  0.00  0.00    +0.000 OA
ATOM      4  H   UNL     1       1.648   7.598  19.835  0.00  0.00    +0.000 HD
ENDROOT
BRANCH   1   5
ATOM      5  C   UNL     1       2.648   6.996  18.054  0.00  0.00    +0.000 C 
BRANCH   5   6
ATOM      6  C   UNL     1       3.687   6.019  18.712  0.00  0.00    +0.000 C 
BRANCH   6  10
ATOM      7  C   UNL     1       6.855   5.335  15.806  0.00  0.00    +0.000 A 
ATOM      8  C   UNL     1       5.618   5.841  15.418  0.00  0.00    +0.000 A 
ATOM      9  C   UNL     1       4.628   6.097  16.367  0.00  0.00    +0.000 A 
ATOM     10  C   UNL     1       4.844   5.816  17.728  0.00  0.00    +0.000 A 
ATOM     11  C   UNL     1       6.087   5.287  18.107  0.00  0.00    +0.000 A 
ATOM     12  C   UNL     1       7.090   5.056  17.154  0.00  0.00    +0.000 A 
BRANCH   7  14
ATOM     13  C   UNL     1       7.145   4.636  13.574  0.00  0.00    +0.000 C 
ATOM     14  O   UNL     1       7.731   5.103  14.782  0.00  0.00    +0.000 OA
ENDBRANCH   7  14
ENDBRANCH   6  10
BRANCH   6  15
ATOM     15  N   UNL     1       3.145   4.747  19.315  0.00  0.00    +0.000 NA
ATOM     16  C   UNL     1       2.181   5.086  20.396  0.00  0.00    +0.000 C 
ATOM     17  C   UNL     1       1.403   3.887  20.947  0.00  0.00    +0.000 C 
ATOM     18  C   UNL     1       0.683   3.146  19.832  0.00  0.00    +0.000 C 
ATOM     19  C   UNL     1       1.703   2.729  18.787  0.00  0.00    +0.000 C 
ATOM     20  C   UNL     1       2.489   3.934  18.268  0.00  0.00    +0.000 C 
ENDBRANCH   6  15
ENDBRANCH   5   6
ENDBRANCH   1   5
BRANCH   2  21
ATOM     21  C   UNL     1       0.797  10.042  19.494  0.00  0.00    +0.000 C 
BRANCH  21  22
ATOM     22  N   UNL     1       1.102  11.449  19.242  0.00  0.00    +0.000 N 
ATOM     23  C   UNL     1       0.130  12.378  18.946  0.00  0.00    +0.000 C 
ATOM     24  O   UNL     1      -1.048  12.075  18.810  0.00  0.00    +0.000 OA
ATOM     25  H   UNL     1       2.079  11.700  19.177  0.00  0.00    +0.000 HD
BRANCH  23  26
ATOM     26  C   UNL     1       0.613  13.792  18.843  0.00  0.00    +0.000 A 
ATOM     27  C   UNL     1      -0.347  14.812  19.034  0.00  0.00    +0.000 A 
ATOM     28  C   UNL     1      -0.002  16.161  18.940  0.00  0.00    +0.000 A 
ATOM     29  C   UNL     1       1.313  16.516  18.677  0.00  0.00    +0.000 A 
ATOM     30  C   UNL     1       2.278  15.520  18.521  0.00  0.00    +0.000 A 
ATOM     31  C   UNL     1       1.947  14.156  18.594  0.00  0.00    +0.000 A 
BRANCH  31  32
ATOM     32  O   UNL     1       3.047  13.349  18.489  0.00  0.00    +0.000 OA
ATOM     33  C   UNL     1       4.306  13.970  18.266  0.00  0.00    +0.000 C 
ENDBRANCH  31  32
ENDBRANCH  23  26
ENDBRANCH  21  22
BRANCH  21  34
ATOM     34  C   UNL     1       1.256   9.674  20.918  0.00  0.00    +0.000 C 
BRANCH  34  35
ATOM     35  C   UNL     1       0.129   9.011  21.716  0.00  0.00    +0.000 C 
BRANCH  35  36
ATOM     36  S   UNL     1      -0.532  10.058  23.055  0.00  0.00    +0.000 S 
ATOM     37  C   UNL     1      -1.132  11.475  22.098  0.00  0.00    +0.000 C 
ENDBRANCH  35  36
ENDBRANCH  34  35
ENDBRANCH  21  34
ENDBRANCH   2  21
TORSDOF 12
ENDMDL
MODEL 7
REMARK VINA RESULT:      -7.2      2.904      4.109
REMARK  Name = 
REMARK  15 active torsions:
REMARK  status: ('A' for Active; 'I' for Inactive)
REMARK    1  A    between atoms: C_1  and  O_2
REMARK    2  A    between atoms: O_2  and  C_3
REMARK    3  A    between atoms: C_6  and  C_7
REMARK    4  A    between atoms: C_7  and  C_8
REMARK    5  A    between atoms: C_7  and  N_28
REMARK    6  A    between atoms: C_8  and  N_9
REMARK    7  A    between atoms: C_10  and  C_12
REMARK    8  A    between atoms: C_12  and  C_13
REMARK    9  A    between atoms: C_12  and  N_17
REMARK   10  A    between atoms: C_13  and  C_14
REMARK   11  A    between atoms: C_14  and  S_15
REMARK   12  A    between atoms: S_15  and  C_16
REMARK   13  A    between atoms: C_18  and  C_20
REMARK   14  A    between atoms: C_25  and  O_26
REMARK   15  A    between atoms: O_26  and  C_27
REMARK                            x       y       z     vdW  Elec       q    Type
REMARK                         _______ _______ _______ _____ _____    ______ ____
ROOT
ATOM      1  N   UNL     1       1.587   8.933  18.738  0.00  0.00    +0.000 N 
ATOM      2  C   UNL     1       1.718  10.267  18.395  0.00  0.00    +0.000 C 
ATOM      3  O   UNL     1       2.441  10.654  17.476  0.00  0.00    +0.000 OA
ATOM      4  H   UNL     1       0.831   8.640  19.346  0.00  0.00    +0.000 HD
ENDROOT
BRANCH   1   5
ATOM      5  C   UNL     1       2.299   7.904  17.992  0.00  0.00    +0.000 C 
BRANCH   5   6
ATOM      6  C   UNL     1       2.846   6.685  18.819  0.00  0.00    +0.000 C 
BRANCH   6  10
ATOM      7  C   UNL     1       6.432   5.251  16.811  0.00  0.00    +0.000 A 
ATOM      8  C   UNL     1       5.510   6.057  16.150  0.00  0.00    +0.000 A 
ATOM      9  C   UNL     1       4.388   6.546  16.821  0.00  0.00    +0.000 A 
ATOM     10  C   UNL     1       4.145   6.206  18.163  0.00  0.00    +0.000 A 
ATOM     11  C   UNL     1       5.071   5.377  18.815  0.00  0.00    +0.000 A 
ATOM     12  C   UNL     1       6.212   4.909  18.146  0.00  0.00    +0.000 A 
BRANCH   7  14
ATOM     13  C   UNL     1       7.219   4.768  14.642  0.00  0.00    +0.000 C 
ATOM     14  O   UNL     1       7.474   4.815  16.040  0.00  0.00    +0.000 OA
ENDBRANCH   7  14
ENDBRANCH   6  10
BRANCH   6  15
ATOM     15  N   UNL     1       1.867   5.586  19.149  0.00  0.00    +0.000 NA
ATOM     16  C   UNL     1       1.953   4.522  18.115  0.00  0.00    +0.000 C 
ATOM     17  C   UNL     1       1.161   3.253  18.447  0.00  0.00    +0.000 C 
ATOM     18  C   UNL     1       1.574   2.691  19.798  0.00  0.00    +0.000 C 
ATOM     19  C   UNL     1       1.386   3.769  20.851  0.00  0.00    +0.000 C 
ATOM     20  C   UNL     1       2.162   5.037  20.490  0.00  0.00    +0.000 C 
ENDBRANCH   6  15
ENDBRANCH   5   6
ENDBRANCH   1   5
BRANCH   2  21
ATOM     21  C   UNL     1       0.849  11.248  19.214  0.00  0.00    +0.000 C 
BRANCH  21  22
ATOM     22  N   UNL     1      -0.510  11.249  18.677  0.00  0.00    +0.000 N 
ATOM     23  C   UNL     1      -1.610  11.567  19.440  0.00  0.00    +0.000 C 
ATOM     24  O   UNL     1      -1.530  11.806  20.638  0.00  0.00    +0.000 OA
ATOM     25  H   UNL     1      -0.631  10.891  17.739  0.00  0.00    +0.000 HD
BRANCH  23  26
ATOM     26  C   UNL     1      -2.905  11.638  18.692  0.00  0.00    +0.000 A 
ATOM     27  C   UNL     1      -2.904  11.156  17.363  0.00  0.00    +0.000 A 
ATOM     28  C   UNL     1      -4.056  11.196  16.575  0.00  0.00    +0.000 A 
ATOM     29  C   UNL     1      -5.234  11.696  17.108  0.00  0.00    +0.000 A 
ATOM     30  C   UNL     1      -5.259  12.143  18.430  0.00  0.00    +0.000 A 
ATOM     31  C   UNL     1      -4.105  12.128  19.234  0.00  0.00    +0.000 A 
BRANCH  31  32
ATOM     32  O   UNL     1      -4.360  12.536  20.514  0.00  0.00    +0.000 OA
ATOM     33  C   UNL     1      -4.421  13.934  20.765  0.00  0.00    +0.000 C 
ENDBRANCH  31  32
ENDBRANCH  23  26
ENDBRANCH  21  22
BRANCH  21  34
ATOM     34  C   UNL     1       1.437  12.668  19.102  0.00  0.00    +0.000 C 
BRANCH  34  35
ATOM     35  C   UNL     1       1.917  13.184  20.462  0.00  0.00    +0.000 C 
BRANCH  35  36
ATOM     36  S   UNL     1       1.517  14.938  20.762  0.00  0.00    +0.000 S 
ATOM     37  C   UNL     1      -0.142  15.023  20.039  0.00  0.00    +0.000 C 
ENDBRANCH  35  36
ENDBRANCH  34  35
ENDBRANCH  21  34
ENDBRANCH   2  21
TORSDOF 12
ENDMDL
MODEL 8
REMARK VINA RESULT:      -7.2      1.553      1.801
REMARK  Name = 
REMARK  15 active torsions:
REMARK  status: ('A' for Active; 'I' for Inactive)
REMARK    1  A    between atoms: C_1  and  O_2
REMARK    2  A    between atoms: O_2  and  C_3
REMARK    3  A    between atoms: C_6  and  C_7
REMARK    4  A    between atoms: C_7  and  C_8
REMARK    5  A    between atoms: C_7  and  N_28
REMARK    6  A    between atoms: C_8  and  N_9
REMARK    7  A    between atoms: C_10  and  C_12
REMARK    8  A    between atoms: C_12  and  C_13
REMARK    9  A    between atoms: C_12  and  N_17
REMARK   10  A    between atoms: C_13  and  C_14
REMARK   11  A    between atoms: C_14  and  S_15
REMARK   12  A    between atoms: S_15  and  C_16
REMARK   13  A    between atoms: C_18  and  C_20
REMARK   14  A    between atoms: C_25  and  O_26
REMARK   15  A    between atoms: O_26  and  C_27
REMARK                            x       y       z     vdW  Elec       q    Type
REMARK                         _______ _______ _______ _____ _____    ______ ____
ROOT
ATOM      1  N   UNL     1       1.695   8.682  19.028  0.00  0.00    +0.000 N 
ATOM      2  C   UNL     1       1.538   9.972  18.552  0.00  0.00    +0.000 C 
ATOM      3  O   UNL     1       1.955  10.334  17.451  0.00  0.00    +0.000 OA
ATOM      4  H   UNL     1       1.157   8.371  19.829  0.00  0.00    +0.000 HD
ENDROOT
BRANCH   1   5
ATOM      5  C   UNL     1       2.358   7.669  18.217  0.00  0.00    +0.000 C 
BRANCH   5   6
ATOM      6  C   UNL     1       2.924   6.416  18.978  0.00  0.00    +0.000 C 
BRANCH   6  10
ATOM      7  C   UNL     1       6.456   5.059  16.824  0.00  0.00    +0.000 A 
ATOM      8  C   UNL     1       5.489   5.844  16.201  0.00  0.00    +0.000 A 
ATOM      9  C   UNL     1       4.385   6.308  16.917  0.00  0.00    +0.000 A 
ATOM     10  C   UNL     1       4.206   5.966  18.269  0.00  0.00    +0.000 A 
ATOM     11  C   UNL     1       5.176   5.159  18.882  0.00  0.00    +0.000 A 
ATOM     12  C   UNL     1       6.299   4.716  18.168  0.00  0.00    +0.000 A 
BRANCH   7  14
ATOM     13  C   UNL     1       7.201   4.699  14.617  0.00  0.00    +0.000 C 
ATOM     14  O   UNL     1       7.474   4.646  16.011  0.00  0.00    +0.000 OA
ENDBRANCH   7  14
ENDBRANCH   6  10
BRANCH   6  15
ATOM     15  N   UNL     1       1.953   5.305  19.287  0.00  0.00    +0.000 NA
ATOM     16  C   UNL     1       2.078   4.241  18.256  0.00  0.00    +0.000 C 
ATOM     17  C   UNL     1       1.296   2.961  18.571  0.00  0.00    +0.000 C 
ATOM     18  C   UNL     1       1.685   2.407  19.931  0.00  0.00    +0.000 C 
ATOM     19  C   UNL     1       1.459   3.482  20.979  0.00  0.00    +0.000 C 
ATOM     20  C   UNL     1       2.226   4.761  20.634  0.00  0.00    +0.000 C 
ENDBRANCH   6  15
ENDBRANCH   5   6
ENDBRANCH   1   5
BRANCH   2  21
ATOM     21  C   UNL     1       0.750  10.925  19.477  0.00  0.00    +0.000 C 
BRANCH  21  22
ATOM     22  N   UNL     1       1.273  12.281  19.327  0.00  0.00    +0.000 N 
ATOM     23  C   UNL     1       0.581  13.277  18.674  0.00  0.00    +0.000 C 
ATOM     24  O   UNL     1      -0.491  13.075  18.120  0.00  0.00    +0.000 OA
ATOM     25  H   UNL     1       2.227  12.438  19.621  0.00  0.00    +0.000 HD
BRANCH  23  26
ATOM     26  C   UNL     1       1.215  14.632  18.727  0.00  0.00    +0.000 A 
ATOM     27  C   UNL     1       2.558  14.729  18.298  0.00  0.00    +0.000 A 
ATOM     28  C   UNL     1       3.245  15.944  18.326  0.00  0.00    +0.000 A 
ATOM     29  C   UNL     1       2.595  17.089  18.762  0.00  0.00    +0.000 A 
ATOM     30  C   UNL     1       1.258  17.015  19.156  0.00  0.00    +0.000 A 
ATOM     31  C   UNL     1       0.555  15.797  19.152  0.00  0.00    +0.000 A 
BRANCH  31  32
ATOM     32  O   UNL     1      -0.759  15.956  19.501  0.00  0.00    +0.000 OA
ATOM     33  C   UNL     1      -1.372  17.209  19.226  0.00  0.00    +0.000 C 
ENDBRANCH  31  32
ENDBRANCH  23  26
ENDBRANCH  21  22
BRANCH  21  34
ATOM     34  C   UNL     1       0.923  10.477  20.941  0.00  0.00    +0.000 C 
BRANCH  34  35
ATOM     35  C   UNL     1      -0.371   9.883  21.502  0.00  0.00    +0.000 C 
BRANCH  35  36
ATOM     36  S   UNL     1      -0.972  10.726  23.005  0.00  0.00    +0.000 S 
ATOM     37  C   UNL     1      -1.878  12.109  22.264  0.00  0.00    +0.000 C 
ENDBRANCH  35  36
ENDBRANCH  34  35
ENDBRANCH  21  34
ENDBRANCH   2  21
TORSDOF 12
ENDMDL
MODEL 9
REMARK VINA RESULT:      -7.2      2.629      8.694
REMARK  Name = 
REMARK  15 active torsions:
REMARK  status: ('A' for Active; 'I' for Inactive)
REMARK    1  A    between atoms: C_1  and  O_2
REMARK    2  A    between atoms: O_2  and  C_3
REMARK    3  A    between atoms: C_6  and  C_7
REMARK    4  A    between atoms: C_7  and  C_8
REMARK    5  A    between atoms: C_7  and  N_28
REMARK    6  A    between atoms: C_8  and  N_9
REMARK    7  A    between atoms: C_10  and  C_12
REMARK    8  A    between atoms: C_12  and  C_13
REMARK    9  A    between atoms: C_12  and  N_17
REMARK   10  A    between atoms: C_13  and  C_14
REMARK   11  A    between atoms: C_14  and  S_15
REMARK   12  A    between atoms: S_15  and  C_16
REMARK   13  A    between atoms: C_18  and  C_20
REMARK   14  A    between atoms: C_25  and  O_26
REMARK   15  A    between atoms: O_26  and  C_27
REMARK                            x       y       z     vdW  Elec       q    Type
REMARK                         _______ _______ _______ _____ _____    ______ ____
ROOT
ATOM      1  N   UNL     1       1.597   8.010  20.807  0.00  0.00    +0.000 N 
ATOM      2  C   UNL     1       2.181   7.546  19.641  0.00  0.00    +0.000 C 
ATOM      3  O   UNL     1       2.225   8.210  18.605  0.00  0.00    +0.000 OA
ATOM      4  H   UNL     1       1.770   7.530  21.684  0.00  0.00    +0.000 HD
ENDROOT
BRANCH   1   5
ATOM      5  C   UNL     1       1.016   9.345  20.864  0.00  0.00    +0.000 C 
BRANCH   5   6
ATOM      6  C   UNL     1       0.676  10.026  19.489  0.00  0.00    +0.000 C 
BRANCH   6  10
ATOM      7  C   UNL     1       2.790  13.827  19.316  0.00  0.00    +0.000 A 
ATOM      8  C   UNL     1       2.723  12.989  18.207  0.00  0.00    +0.000 A 
ATOM      9  C   UNL     1       2.004  11.795  18.265  0.00  0.00    +0.000 A 
ATOM     10  C   UNL     1       1.364  11.395  19.451  0.00  0.00    +0.000 A 
ATOM     11  C   UNL     1       1.454  12.237  20.569  0.00  0.00    +0.000 A 
ATOM     12  C   UNL     1       2.154  13.451  20.500  0.00  0.00    +0.000 A 
BRANCH   7  14
ATOM     13  C   UNL     1       4.233  15.041  17.902  0.00  0.00    +0.000 C 
ATOM     14  O   UNL     1       3.544  14.954  19.143  0.00  0.00    +0.000 OA
ENDBRANCH   7  14
ENDBRANCH   6  10
BRANCH   6  15
ATOM     15  N   UNL     1      -0.772  10.037  19.069  0.00  0.00    +0.000 NA
ATOM     16  C   UNL     1      -1.365  11.363  19.384  0.00  0.00    +0.000 C 
ATOM     17  C   UNL     1      -2.772  11.577  18.816  0.00  0.00    +0.000 C 
ATOM     18  C   UNL     1      -2.793  11.349  17.314  0.00  0.00    +0.000 C 
ATOM     19  C   UNL     1      -2.271   9.953  17.026  0.00  0.00    +0.000 C 
ATOM     20  C   UNL     1      -0.877   9.749  17.623  0.00  0.00    +0.000 C 
ENDBRANCH   6  15
ENDBRANCH   5   6
ENDBRANCH   1   5
BRANCH   2  21
ATOM     21  C   UNL     1       2.829   6.147  19.739  0.00  0.00    +0.000 C 
BRANCH  21  22
ATOM     22  N   UNL     1       3.639   5.909  18.546  0.00  0.00    +0.000 N 
ATOM     23  C   UNL     1       4.929   5.432  18.607  0.00  0.00    +0.000 C 
ATOM     24  O   UNL     1       5.507   5.237  19.668  0.00  0.00    +0.000 OA
ATOM     25  H   UNL     1       3.255   6.220  17.664  0.00  0.00    +0.000 HD
BRANCH  23  26
ATOM     26  C   UNL     1       5.558   5.130  17.283  0.00  0.00    +0.000 A 
ATOM     27  C   UNL     1       4.764   4.442  16.337  0.00  0.00    +0.000 A 
ATOM     28  C   UNL     1       5.265   4.098  15.080  0.00  0.00    +0.000 A 
ATOM     29  C   UNL     1       6.560   4.455  14.737  0.00  0.00    +0.000 A 
ATOM     30  C   UNL     1       7.344   5.165  15.647  0.00  0.00    +0.000 A 
ATOM     31  C   UNL     1       6.864   5.505  16.925  0.00  0.00    +0.000 A 
BRANCH  31  32
ATOM     32  O   UNL     1       7.760   6.262  17.630  0.00  0.00    +0.000 OA
ATOM     33  C   UNL     1       7.636   7.676  17.557  0.00  0.00    +0.000 C 
ENDBRANCH  31  32
ENDBRANCH  23  26
ENDBRANCH  21  22
BRANCH  21  34
ATOM     34  C   UNL     1       1.724   5.076  19.821  0.00  0.00    +0.000 C 
BRANCH  34  35
ATOM     35  C   UNL     1       1.634   4.264  18.526  0.00  0.00    +0.000 C 
BRANCH  35  36
ATOM     36  S   UNL     1       1.431   2.472  18.799  0.00  0.00    +0.000 S 
ATOM     37  C   UNL     1       3.125   1.901  18.497  0.00  0.00    +0.000 C 
ENDBRANCH  35  36
ENDBRANCH  34  35
ENDBRANCH  21  34
ENDBRANCH   2  21
TORSDOF 12
ENDMDL
