MODEL 1
REMARK VINA RESULT:      -7.3      0.000      0.000
REMARK  Name = 
REMARK  4 active torsions:
REMARK  status: ('A' for Active; 'I' for Inactive)
REMARK    1  A    between atoms: C_2  and  C_4
REMARK    2  A    between atoms: C_4  and  S_5
REMARK    3  A    between atoms: C_4  and  C_13
REMARK    4  A    between atoms: S_5  and  C_6
REMARK                            x       y       z     vdW  Elec       q    Type
REMARK                         _______ _______ _______ _____ _____    ______ ____
ROOT
ATOM      1  C   UNL     1       6.110   4.474  16.228  0.00  0.00    +0.000 C 
ENDROOT
BRANCH   1   2
ATOM      2  C   UNL     1       6.384   4.426  14.729  0.00  0.00    +0.000 A 
ATOM      3  C   UNL     1       5.623   3.558  13.925  0.00  0.00    +0.000 A 
ATOM      4  C   UNL     1       5.888   3.422  12.562  0.00  0.00    +0.000 A 
ATOM      5  C   UNL     1       6.924   4.147  11.977  0.00  0.00    +0.000 A 
ATOM      6  C   UNL     1       7.692   5.010  12.753  0.00  0.00    +0.000 A 
ATOM      7  C   UNL     1       7.429   5.145  14.118  0.00  0.00    +0.000 A 
ENDBRANCH   1   2
BRANCH   1   9
ATOM      8  N   UNL     1       7.522   6.242  17.275  0.00  0.00    +0.000 N 
ATOM      9  C   UNL     1       7.373   4.915  16.983  0.00  0.00    +0.000 C 
ATOM     10  O   UNL     1       8.266   4.126  17.289  0.00  0.00    +0.000 OA
ATOM     11  H   UNL     1       8.391   6.526  17.707  0.00  0.00    +0.000 HD
ATOM     12  H   UNL     1       6.911   6.948  16.890  0.00  0.00    +0.000 HD
ENDBRANCH   1   9
BRANCH   1  13
ATOM     13  S   UNL     1       4.619   5.478  16.661  0.00  0.00    +0.000 S 
BRANCH  13  14
ATOM     14  C   UNL     1       3.548   4.336  17.519  0.00  0.00    +0.000 A 
ATOM     15  C   UNL     1       3.822   2.968  17.364  0.00  0.00    +0.000 A 
ATOM     16  C   UNL     1       3.012   1.997  17.959  0.00  0.00    +0.000 A 
ATOM     17  C   UNL     1       1.922   2.389  18.729  0.00  0.00    +0.000 A 
ATOM     18  C   UNL     1       1.674   3.744  18.917  0.00  0.00    +0.000 A 
ATOM     19  F   UNL     1       0.636   4.120  19.675  0.00  0.00    +0.000 F 
ATOM     20  C   UNL     1       2.480   4.719  18.332  0.00  0.00    +0.000 A 
ENDBRANCH  13  14
ENDBRANCH   1  13
TORSDOF 4
ENDMDL
MODEL 2
REMARK VINA RESULT:      -7.2      4.061      6.115
REMARK  Name = 
REMARK  4 active torsions:
REMARK  status: ('A' for Active; 'I' for Inactive)
REMARK    1  A    between atoms: C_2  and  C_4
REMARK    2  A    between atoms: C_4  and  S_5
REMARK    3  A    between atoms: C_4  and  C_13
REMARK    4  A    between atoms: S_5  and  C_6
REMARK                            x       y       z     vdW  Elec       q    Type
REMARK                         _______ _______ _______ _____ _____    ______ ____
ROOT
ATOM      1  C   UNL     1       4.068   5.463  19.220  0.00  0.00    +0.000 C 
ENDROOT
BRANCH   1   2
ATOM      2  C   UNL     1       2.993   4.398  19.411  0.00  0.00    +0.000 A 
ATOM      3  C   UNL     1       2.200   4.028  18.310  0.00  0.00    +0.000 A 
ATOM      4  C   UNL     1       1.153   3.116  18.453  0.00  0.00    +0.000 A 
ATOM      5  C   UNL     1       0.876   2.560  19.700  0.00  0.00    +0.000 A 
ATOM      6  C   UNL     1       1.647   2.914  20.803  0.00  0.00    +0.000 A 
ATOM      7  C   UNL     1       2.693   3.829  20.663  0.00  0.00    +0.000 A 
ENDBRANCH   1   2
BRANCH   1   9
ATOM      8  N   UNL     1       5.598   3.876  18.056  0.00  0.00    +0.000 N 
ATOM      9  C   UNL     1       5.444   4.801  19.049  0.00  0.00    +0.000 C 
ATOM     10  O   UNL     1       6.389   5.045  19.800  0.00  0.00    +0.000 OA
ATOM     11  H   UNL     1       6.488   3.397  18.004  0.00  0.00    +0.000 HD
ATOM     12  H   UNL     1       4.813   3.512  17.536  0.00  0.00    +0.000 HD
ENDBRANCH   1   9
BRANCH   1  13
ATOM     13  S   UNL     1       3.668   6.663  17.871  0.00  0.00    +0.000 S 
BRANCH  13  14
ATOM     14  C   UNL     1       2.486   7.780  18.606  0.00  0.00    +0.000 A 
ATOM     15  C   UNL     1       1.979   8.801  17.785  0.00  0.00    +0.000 A 
ATOM     16  C   UNL     1       1.084   9.751  18.284  0.00  0.00    +0.000 A 
ATOM     17  C   UNL     1       0.677   9.682  19.612  0.00  0.00    +0.000 A 
ATOM     18  C   UNL     1       1.146   8.648  20.414  0.00  0.00    +0.000 A 
ATOM     19  F   UNL     1       0.737   8.570  21.687  0.00  0.00    +0.000 F 
ATOM     20  C   UNL     1       2.033   7.692  19.924  0.00  0.00    +0.000 A 
ENDBRANCH  13  14
ENDBRANCH   1  13
TORSDOF 4
ENDMDL
MODEL 3
REMARK VINA RESULT:      -7.2      2.252      4.055
REMARK  Name = 
REMARK  4 active torsions:
REMARK  status: ('A' for Active; 'I' for Inactive)
REMARK    1  A    between atoms: C_2  and  C_4
REMARK    2  A    between atoms: C_4  and  S_5
REMARK    3  A    between atoms: C_4  and  C_13
REMARK    4  A    between atoms: S_5  and  C_6
REMARK                            x       y       z     vdW  Elec       q    Type
REMARK                         _______ _______ _______ _____ _____    ______ ____
ROOT
ATOM      1  C   UNL     1       5.822   5.290  15.913  0.00  0.00    +0.000 C 
ENDROOT
BRANCH   1   2
ATOM      2  C   UNL     1       6.745   5.925  16.948  0.00  0.00    +0.000 A 
ATOM      3  C   UNL     1       7.253   5.127  17.988  0.00  0.00    +0.000 A 
ATOM      4  C   UNL     1       8.038   5.679  19.001  0.00  0.00    +0.000 A 
ATOM      5  C   UNL     1       8.325   7.042  18.996  0.00  0.00    +0.000 A 
ATOM      6  C   UNL     1       7.831   7.852  17.978  0.00  0.00    +0.000 A 
ATOM      7  C   UNL     1       7.044   7.301  16.965  0.00  0.00    +0.000 A 
ENDBRANCH   1   2
BRANCH   1   9
ATOM      8  N   UNL     1       6.217   3.537  14.185  0.00  0.00    +0.000 N 
ATOM      9  C   UNL     1       6.647   4.700  14.759  0.00  0.00    +0.000 C 
ATOM     10  O   UNL     1       7.696   5.214  14.371  0.00  0.00    +0.000 OA
ATOM     11  H   UNL     1       6.810   3.124  13.477  0.00  0.00    +0.000 HD
ATOM     12  H   UNL     1       5.471   2.986  14.583  0.00  0.00    +0.000 HD
ENDBRANCH   1   9
BRANCH   1  13
ATOM     13  S   UNL     1       4.635   4.078  16.649  0.00  0.00    +0.000 S 
BRANCH  13  14
ATOM     14  C   UNL     1       3.738   5.020  17.871  0.00  0.00    +0.000 A 
ATOM     15  C   UNL     1       3.408   6.344  17.538  0.00  0.00    +0.000 A 
ATOM     16  C   UNL     1       2.748   7.175  18.447  0.00  0.00    +0.000 A 
ATOM     17  C   UNL     1       2.398   6.682  19.700  0.00  0.00    +0.000 A 
ATOM     18  C   UNL     1       2.687   5.360  20.016  0.00  0.00    +0.000 A 
ATOM     19  F   UNL     1       2.332   4.880  21.215  0.00  0.00    +0.000 F 
ATOM     20  C   UNL     1       3.340   4.522  19.113  0.00  0.00    +0.000 A 
ENDBRANCH  13  14
ENDBRANCH   1  13
TORSDOF 4
ENDMDL
MODEL 4
REMARK VINA RESULT:      -7.2      0.478      1.232
REMARK  Name = 
REMARK  4 active torsions:
REMARK  status: ('A' for Active; 'I' for Inactive)
REMARK    1  A    between atoms: C_2  and  C_4
REMARK    2  A    between atoms: C_4  and  S_5
REMARK    3  A    between atoms: C_4  and  C_13
REMARK    4  A    between atoms: S_5  and  C_6
REMARK                            x       y       z     vdW  Elec       q    Type
REMARK                         _______ _______ _______ _____ _____    ______ ____
ROOT
ATOM      1  C   UNL     1       6.059   4.500  16.640  0.00  0.00    +0.000 C 
ENDROOT
BRANCH   1   2
ATOM      2  C   UNL     1       6.387   4.380  15.156  0.00  0.00    +0.000 A 
ATOM      3  C   UNL     1       7.425   5.165  14.622  0.00  0.00    +0.000 A 
ATOM      4  C   UNL     1       7.711   5.148  13.256  0.00  0.00    +0.000 A 
ATOM      5  C   UNL     1       6.961   4.349  12.397  0.00  0.00    +0.000 A 
ATOM      6  C   UNL     1       5.928   3.566  12.902  0.00  0.00    +0.000 A 
ATOM      7  C   UNL     1       5.639   3.584  14.268  0.00  0.00    +0.000 A 
ENDBRANCH   1   2
BRANCH   1   9
ATOM      8  N   UNL     1       7.422   6.176  17.886  0.00  0.00    +0.000 N 
ATOM      9  C   UNL     1       7.317   4.892  17.430  0.00  0.00    +0.000 C 
ATOM     10  O   UNL     1       8.244   4.104  17.624  0.00  0.00    +0.000 OA
ATOM     11  H   UNL     1       8.287   6.436  18.340  0.00  0.00    +0.000 HD
ATOM     12  H   UNL     1       6.780   6.900  17.600  0.00  0.00    +0.000 HD
ENDBRANCH   1   9
BRANCH   1  13
ATOM     13  S   UNL     1       4.618   5.609  16.976  0.00  0.00    +0.000 S 
BRANCH  13  14
ATOM     14  C   UNL     1       3.397   4.538  17.718  0.00  0.00    +0.000 A 
ATOM     15  C   UNL     1       3.348   3.214  17.254  0.00  0.00    +0.000 A 
ATOM     16  C   UNL     1       2.395   2.314  17.741  0.00  0.00    +0.000 A 
ATOM     17  C   UNL     1       1.488   2.730  18.710  0.00  0.00    +0.000 A 
ATOM     18  C   UNL     1       1.563   4.029  19.198  0.00  0.00    +0.000 A 
ATOM     19  F   UNL     1       0.701   4.423  20.145  0.00  0.00    +0.000 F 
ATOM     20  C   UNL     1       2.512   4.931  18.723  0.00  0.00    +0.000 A 
ENDBRANCH  13  14
ENDBRANCH   1  13
TORSDOF 4
ENDMDL
MODEL 5
REMARK VINA RESULT:      -7.1      4.111      6.605
REMARK  Name = 
REMARK  4 active torsions:
REMARK  status: ('A' for Active; 'I' for Inactive)
REMARK    1  A    between atoms: C_2  and  C_4
REMARK    2  A    between atoms: C_4  and  S_5
REMARK    3  A    between atoms: C_4  and  C_13
REMARK    4  A    between atoms: S_5  and  C_6
REMARK                            x       y       z     vdW  Elec       q    Type
REMARK                         _______ _______ _______ _____ _____    ______ ____
ROOT
ATOM      1  C   UNL     1       3.461   4.206  18.165  0.00  0.00    +0.000 C 
ENDROOT
BRANCH   1   2
ATOM      2  C   UNL     1       2.851   5.466  18.770  0.00  0.00    +0.000 A 
ATOM      3  C   UNL     1       2.837   6.648  18.009  0.00  0.00    +0.000 A 
ATOM      4  C   UNL     1       2.360   7.845  18.547  0.00  0.00    +0.000 A 
ATOM      5  C   UNL     1       1.894   7.883  19.859  0.00  0.00    +0.000 A 
ATOM      6  C   UNL     1       1.901   6.725  20.632  0.00  0.00    +0.000 A 
ATOM      7  C   UNL     1       2.380   5.528  20.095  0.00  0.00    +0.000 A 
ENDBRANCH   1   2
BRANCH   1   9
ATOM      8  N   UNL     1       2.684   1.863  17.819  0.00  0.00    +0.000 N 
ATOM      9  C   UNL     1       2.358   3.189  17.836  0.00  0.00    +0.000 C 
ATOM     10  O   UNL     1       1.212   3.533  17.545  0.00  0.00    +0.000 OA
ATOM     11  H   UNL     1       1.965   1.213  17.529  0.00  0.00    +0.000 HD
ATOM     12  H   UNL     1       3.641   1.545  17.871  0.00  0.00    +0.000 HD
ENDBRANCH   1   9
BRANCH   1  13
ATOM     13  S   UNL     1       4.576   4.557  16.732  0.00  0.00    +0.000 S 
BRANCH  13  14
ATOM     14  C   UNL     1       5.940   5.463  17.441  0.00  0.00    +0.000 A 
ATOM     15  C   UNL     1       6.598   4.871  18.532  0.00  0.00    +0.000 A 
ATOM     16  C   UNL     1       7.648   5.525  19.183  0.00  0.00    +0.000 A 
ATOM     17  C   UNL     1       8.059   6.777  18.738  0.00  0.00    +0.000 A 
ATOM     18  C   UNL     1       7.436   7.345  17.633  0.00  0.00    +0.000 A 
ATOM     19  F   UNL     1       7.847   8.541  17.193  0.00  0.00    +0.000 F 
ATOM     20  C   UNL     1       6.393   6.698  16.974  0.00  0.00    +0.000 A 
ENDBRANCH  13  14
ENDBRANCH   1  13
TORSDOF 4
ENDMDL
MODEL 6
REMARK VINA RESULT:      -7.1      2.419      4.067
REMARK  Name = 
REMARK  4 active torsions:
REMARK  status: ('A' for Active; 'I' for Inactive)
REMARK    1  A    between atoms: C_2  and  C_4
REMARK    2  A    between atoms: C_4  and  S_5
REMARK    3  A    between atoms: C_4  and  C_13
REMARK    4  A    between atoms: S_5  and  C_6
REMARK                            x       y       z     vdW  Elec       q    Type
REMARK                         _______ _______ _______ _____ _____    ______ ____
ROOT
ATOM      1  C   UNL     1       5.819   5.322  15.896  0.00  0.00    +0.000 C 
ENDROOT
BRANCH   1   2
ATOM      2  C   UNL     1       6.744   5.942  16.938  0.00  0.00    +0.000 A 
ATOM      3  C   UNL     1       7.240   5.131  17.975  0.00  0.00    +0.000 A 
ATOM      4  C   UNL     1       8.027   5.669  18.995  0.00  0.00    +0.000 A 
ATOM      5  C   UNL     1       8.327   7.029  19.000  0.00  0.00    +0.000 A 
ATOM      6  C   UNL     1       7.845   7.851  17.985  0.00  0.00    +0.000 A 
ATOM      7  C   UNL     1       7.056   7.314  16.966  0.00  0.00    +0.000 A 
ENDBRANCH   1   2
BRANCH   1   9
ATOM      8  N   UNL     1       6.285   3.519  14.238  0.00  0.00    +0.000 N 
ATOM      9  C   UNL     1       6.642   4.741  14.736  0.00  0.00    +0.000 C 
ATOM     10  O   UNL     1       7.629   5.315  14.277  0.00  0.00    +0.000 OA
ATOM     11  H   UNL     1       6.881   3.119  13.526  0.00  0.00    +0.000 HD
ATOM     12  H   UNL     1       5.603   2.932  14.695  0.00  0.00    +0.000 HD
ENDBRANCH   1   9
BRANCH   1  13
ATOM     13  S   UNL     1       4.624   4.109  16.617  0.00  0.00    +0.000 S 
BRANCH  13  14
ATOM     14  C   UNL     1       3.744   5.038  17.861  0.00  0.00    +0.000 A 
ATOM     15  C   UNL     1       3.434   4.367  19.056  0.00  0.00    +0.000 A 
ATOM     16  C   UNL     1       2.706   4.996  20.069  0.00  0.00    +0.000 A 
ATOM     17  C   UNL     1       2.292   6.313  19.902  0.00  0.00    +0.000 A 
ATOM     18  C   UNL     1       2.633   6.991  18.738  0.00  0.00    +0.000 A 
ATOM     19  F   UNL     1       2.251   8.266  18.586  0.00  0.00    +0.000 F 
ATOM     20  C   UNL     1       3.363   6.374  17.724  0.00  0.00    +0.000 A 
ENDBRANCH  13  14
ENDBRANCH   1  13
TORSDOF 4
ENDMDL
MODEL 7
REMARK VINA RESULT:      -7.1      3.821      6.591
REMARK  Name = 
REMARK  4 active torsions:
REMARK  status: ('A' for Active; 'I' for Inactive)
REMARK    1  A    between atoms: C_2  and  C_4
REMARK    2  A    between atoms: C_4  and  S_5
REMARK    3  A    between atoms: C_4  and  C_13
REMARK    4  A    between atoms: S_5  and  C_6
REMARK                            x       y       z     vdW  Elec       q    Type
REMARK                         _______ _______ _______ _____ _____    ______ ____
ROOT
ATOM      1  C   UNL     1       2.913   4.491  19.842  0.00  0.00    +0.000 C 
ENDROOT
BRANCH   1   2
ATOM      2  C   UNL     1       2.540   5.947  19.585  0.00  0.00    +0.000 A 
ATOM      3  C   UNL     1       2.005   6.708  20.640  0.00  0.00    +0.000 A 
ATOM      4  C   UNL     1       1.577   8.021  20.434  0.00  0.00    +0.000 A 
ATOM      5  C   UNL     1       1.670   8.595  19.168  0.00  0.00    +0.000 A 
ATOM      6  C   UNL     1       2.194   7.859  18.110  0.00  0.00    +0.000 A 
ATOM      7  C   UNL     1       2.620   6.545  18.313  0.00  0.00    +0.000 A 
ENDBRANCH   1   2
BRANCH   1   9
ATOM      8  N   UNL     1       0.642   3.597  20.352  0.00  0.00    +0.000 N 
ATOM      9  C   UNL     1       1.905   3.849  20.808  0.00  0.00    +0.000 C 
ATOM     10  O   UNL     1       2.186   3.598  21.980  0.00  0.00    +0.000 OA
ATOM     11  H   UNL     1      -0.029   3.243  21.021  0.00  0.00    +0.000 HD
ATOM     12  H   UNL     1       0.312   3.947  19.465  0.00  0.00    +0.000 HD
ENDBRANCH   1   9
BRANCH   1  13
ATOM     13  S   UNL     1       3.146   3.518  18.286  0.00  0.00    +0.000 S 
BRANCH  13  14
ATOM     14  C   UNL     1       4.758   4.006  17.695  0.00  0.00    +0.000 A 
ATOM     15  C   UNL     1       4.973   3.943  16.308  0.00  0.00    +0.000 A 
ATOM     16  C   UNL     1       6.216   4.261  15.755  0.00  0.00    +0.000 A 
ATOM     17  C   UNL     1       7.258   4.658  16.587  0.00  0.00    +0.000 A 
ATOM     18  C   UNL     1       7.034   4.760  17.955  0.00  0.00    +0.000 A 
ATOM     19  F   UNL     1       8.032   5.162  18.753  0.00  0.00    +0.000 F 
ATOM     20  C   UNL     1       5.796   4.451  18.515  0.00  0.00    +0.000 A 
ENDBRANCH  13  14
ENDBRANCH   1  13
TORSDOF 4
ENDMDL
MODEL 8
REMARK VINA RESULT:      -7.1      3.891      6.691
REMARK  Name = 
REMARK  4 active torsions:
REMARK  status: ('A' for Active; 'I' for Inactive)
REMARK    1  A    between atoms: C_2  and  C_4
REMARK    2  A    between atoms: C_4  and  S_5
REMARK    3  A    between atoms: C_4  and  C_13
REMARK    4  A    between atoms: S_5  and  C_6
REMARK                            x       y       z     vdW  Elec       q    Type
REMARK                         _______ _______ _______ _____ _____    ______ ____
ROOT
ATOM      1  C   UNL     1       2.811   4.532  19.800  0.00  0.00    +0.000 C 
ENDROOT
BRANCH   1   2
ATOM      2  C   UNL     1       2.352   5.974  19.612  0.00  0.00    +0.000 A 
ATOM      3  C   UNL     1       2.516   6.581  18.353  0.00  0.00    +0.000 A 
ATOM      4  C   UNL     1       2.183   7.922  18.153  0.00  0.00    +0.000 A 
ATOM      5  C   UNL     1       1.686   8.683  19.209  0.00  0.00    +0.000 A 
ATOM      6  C   UNL     1       1.518   8.103  20.463  0.00  0.00    +0.000 A 
ATOM      7  C   UNL     1       1.853   6.763  20.665  0.00  0.00    +0.000 A 
ENDBRANCH   1   2
BRANCH   1   9
ATOM      8  N   UNL     1       0.634   3.466  20.381  0.00  0.00    +0.000 N 
ATOM      9  C   UNL     1       1.890   3.809  20.795  0.00  0.00    +0.000 C 
ATOM     10  O   UNL     1       2.230   3.573  21.954  0.00  0.00    +0.000 OA
ATOM     11  H   UNL     1       0.016   3.057  21.069  0.00  0.00    +0.000 HD
ATOM     12  H   UNL     1       0.248   3.796  19.509  0.00  0.00    +0.000 HD
ENDBRANCH   1   9
BRANCH   1  13
ATOM     13  S   UNL     1       3.012   3.621  18.204  0.00  0.00    +0.000 S 
BRANCH  13  14
ATOM     14  C   UNL     1       4.675   4.002  17.680  0.00  0.00    +0.000 A 
ATOM     15  C   UNL     1       5.559   4.474  18.664  0.00  0.00    +0.000 A 
ATOM     16  C   UNL     1       6.868   4.843  18.342  0.00  0.00    +0.000 A 
ATOM     17  C   UNL     1       7.310   4.730  17.028  0.00  0.00    +0.000 A 
ATOM     18  C   UNL     1       6.449   4.225  16.061  0.00  0.00    +0.000 A 
ATOM     19  F   UNL     1       6.883   4.097  14.800  0.00  0.00    +0.000 F 
ATOM     20  C   UNL     1       5.145   3.849  16.374  0.00  0.00    +0.000 A 
ENDBRANCH  13  14
ENDBRANCH   1  13
TORSDOF 4
ENDMDL
MODEL 9
REMARK VINA RESULT:      -7.1      1.179      1.195
REMARK  Name = 
REMARK  4 active torsions:
REMARK  status: ('A' for Active; 'I' for Inactive)
REMARK    1  A    between atoms: C_2  and  C_4
REMARK    2  A    between atoms: C_4  and  S_5
REMARK    3  A    between atoms: C_4  and  C_13
REMARK    4  A    between atoms: S_5  and  C_6
REMARK                            x       y       z     vdW  Elec       q    Type
REMARK                         _______ _______ _______ _____ _____    ______ ____
ROOT
ATOM      1  C   UNL     1       6.068   4.478  16.379  0.00  0.00    +0.000 C 
ENDROOT
BRANCH   1   2
ATOM      2  C   UNL     1       6.376   4.458  14.886  0.00  0.00    +0.000 A 
ATOM      3  C   UNL     1       5.619   3.621  14.046  0.00  0.00    +0.000 A 
ATOM      4  C   UNL     1       5.913   3.510  12.686  0.00  0.00    +0.000 A 
ATOM      5  C   UNL     1       6.974   4.230  12.141  0.00  0.00    +0.000 A 
ATOM      6  C   UNL     1       7.738   5.063  12.953  0.00  0.00    +0.000 A 
ATOM      7  C   UNL     1       7.446   5.173  14.314  0.00  0.00    +0.000 A 
ENDBRANCH   1   2
BRANCH   1   9
ATOM      8  N   UNL     1       8.158   4.190  17.707  0.00  0.00    +0.000 N 
ATOM      9  C   UNL     1       7.259   5.059  17.157  0.00  0.00    +0.000 C 
ATOM     10  O   UNL     1       7.402   6.269  17.334  0.00  0.00    +0.000 OA
ATOM     11  H   UNL     1       8.894   4.585  18.277  0.00  0.00    +0.000 HD
ATOM     12  H   UNL     1       7.989   3.195  17.744  0.00  0.00    +0.000 HD
ENDBRANCH   1   9
BRANCH   1  13
ATOM     13  S   UNL     1       4.466   5.311  16.778  0.00  0.00    +0.000 S 
BRANCH  13  14
ATOM     14  C   UNL     1       3.620   4.158  17.846  0.00  0.00    +0.000 A 
ATOM     15  C   UNL     1       4.362   3.608  18.903  0.00  0.00    +0.000 A 
ATOM     16  C   UNL     1       3.799   2.661  19.764  0.00  0.00    +0.000 A 
ATOM     17  C   UNL     1       2.478   2.265  19.581  0.00  0.00    +0.000 A 
ATOM     18  C   UNL     1       1.731   2.840  18.560  0.00  0.00    +0.000 A 
ATOM     19  F   UNL     1       0.453   2.472  18.398  0.00  0.00    +0.000 F 
ATOM     20  C   UNL     1       2.281   3.788  17.701  0.00  0.00    +0.000 A 
ENDBRANCH  13  14
ENDBRANCH   1  13
TORSDOF 4
ENDMDL
