MODEL 1
REMARK VINA RESULT:      -6.8      0.000      0.000
REMARK  Name = 
REMARK  8 active torsions:
REMARK  status: ('A' for Active; 'I' for Inactive)
REMARK    1  A    between atoms: C_1  and  C_2
REMARK    2  A    between atoms: C_2  and  O_3
REMARK    3  A    between atoms: O_3  and  C_4
REMARK    4  A    between atoms: C_6  and  C_7
REMARK    5  A    between atoms: C_11  and  C_12
REMARK    6  A    between atoms: C_12  and  S_13
REMARK    7  A    between atoms: S_13  and  C_14
REMARK    8  A    between atoms: N_16  and  C_17
REMARK                            x       y       z     vdW  Elec       q    Type
REMARK                         _______ _______ _______ _____ _____    ______ ____
ROOT
ATOM      1  C   UNL     1       6.680   4.895  15.428  0.00  0.00    +0.000 A 
ATOM      2  N   UNL     1       7.518   5.069  16.416  0.00  0.00    +0.000 NA
ATOM      3  C   UNL     1       6.846   5.324  17.621  0.00  0.00    +0.000 A 
ATOM      4  C   UNL     1       5.453   5.312  17.501  0.00  0.00    +0.000 A 
ATOM      5  S   UNL     1       5.033   4.984  15.849  0.00  0.00    +0.000 S 
ENDROOT
BRANCH   3   6
ATOM      6  C   UNL     1       7.704   5.645  18.819  0.00  0.00    +0.000 C 
ATOM      7  F   UNL     1       7.004   5.621  19.982  0.00  0.00    +0.000 F 
ATOM      8  F   UNL     1       8.714   4.742  18.959  0.00  0.00    +0.000 F 
ATOM      9  F   UNL     1       8.283   6.869  18.739  0.00  0.00    +0.000 F 
ENDBRANCH   3   6
BRANCH   1  10
ATOM     10  O   UNL     1       7.074   4.694  14.170  0.00  0.00    +0.000 OA
BRANCH  10  12
ATOM     11  C   UNL     1       6.837   3.589  12.053  0.00  0.00    +0.000 C 
ATOM     12  C   UNL     1       6.249   3.786  13.437  0.00  0.00    +0.000 C 
ENDBRANCH  10  12
ENDBRANCH   1  10
BRANCH   4  13
ATOM     13  C   UNL     1       4.345   5.637  18.469  0.00  0.00    +0.000 C 
BRANCH  13  14
ATOM     14  S   UNL     1       3.766   4.184  19.362  0.00  0.00    +0.000 S 
ATOM     15  C   UNL     1       2.762   3.371  18.122  0.00  0.00    +0.000 C 
ATOM     16  O   UNL     1       4.903   3.313  19.581  0.00  0.00    +0.000 OA
ATOM     17  N   UNL     1       2.802   4.643  20.479  0.00  0.00    +0.000 NA
BRANCH  17  18
ATOM     18  C   UNL     1       2.320   3.583  21.344  0.00  0.00    +0.000 C 
ATOM     19  N   UNL     1       1.967   2.761  22.068  0.00  0.00    +0.000 NA
ENDBRANCH  17  18
ENDBRANCH  13  14
ENDBRANCH   4  13
TORSDOF 6
ENDMDL
MODEL 2
REMARK VINA RESULT:      -6.5      2.897      3.956
REMARK  Name = 
REMARK  8 active torsions:
REMARK  status: ('A' for Active; 'I' for Inactive)
REMARK    1  A    between atoms: C_1  and  C_2
REMARK    2  A    between atoms: C_2  and  O_3
REMARK    3  A    between atoms: O_3  and  C_4
REMARK    4  A    between atoms: C_6  and  C_7
REMARK    5  A    between atoms: C_11  and  C_12
REMARK    6  A    between atoms: C_12  and  S_13
REMARK    7  A    between atoms: S_13  and  C_14
REMARK    8  A    between atoms: N_16  and  C_17
REMARK                            x       y       z     vdW  Elec       q    Type
REMARK                         _______ _______ _______ _____ _____    ______ ____
ROOT
ATOM      1  C   UNL     1       7.086   6.658  17.517  0.00  0.00    +0.000 A 
ATOM      2  N   UNL     1       7.226   6.014  16.388  0.00  0.00    +0.000 NA
ATOM      3  C   UNL     1       6.112   5.203  16.119  0.00  0.00    +0.000 A 
ATOM      4  C   UNL     1       5.111   5.283  17.090  0.00  0.00    +0.000 A 
ATOM      5  S   UNL     1       5.617   6.385  18.332  0.00  0.00    +0.000 S 
ENDROOT
BRANCH   3   6
ATOM      6  C   UNL     1       6.195   4.326  14.894  0.00  0.00    +0.000 C 
ATOM      7  F   UNL     1       5.158   4.527  14.040  0.00  0.00    +0.000 F 
ATOM      8  F   UNL     1       7.331   4.575  14.186  0.00  0.00    +0.000 F 
ATOM      9  F   UNL     1       6.202   3.003  15.193  0.00  0.00    +0.000 F 
ENDBRANCH   3   6
BRANCH   1  10
ATOM     10  O   UNL     1       8.034   7.450  18.022  0.00  0.00    +0.000 OA
BRANCH  10  12
ATOM     11  C   UNL     1       8.811   9.657  18.551  0.00  0.00    +0.000 C 
ATOM     12  C   UNL     1       7.883   8.830  17.682  0.00  0.00    +0.000 C 
ENDBRANCH  10  12
ENDBRANCH   1  10
BRANCH   4  13
ATOM     13  C   UNL     1       3.820   4.531  17.287  0.00  0.00    +0.000 C 
BRANCH  13  14
ATOM     14  S   UNL     1       3.850   3.486  18.753  0.00  0.00    +0.000 S 
ATOM     15  C   UNL     1       3.437   1.884  18.068  0.00  0.00    +0.000 C 
ATOM     16  O   UNL     1       5.225   3.381  19.197  0.00  0.00    +0.000 OA
ATOM     17  N   UNL     1       2.674   3.889  19.671  0.00  0.00    +0.000 NA
BRANCH  17  18
ATOM     18  C   UNL     1       2.622   3.189  20.940  0.00  0.00    +0.000 C 
ATOM     19  N   UNL     1       2.611   2.598  21.927  0.00  0.00    +0.000 NA
ENDBRANCH  17  18
ENDBRANCH  13  14
ENDBRANCH   4  13
TORSDOF 6
ENDMDL
MODEL 3
REMARK VINA RESULT:      -6.5      3.223      3.980
REMARK  Name = 
REMARK  8 active torsions:
REMARK  status: ('A' for Active; 'I' for Inactive)
REMARK    1  A    between atoms: C_1  and  C_2
REMARK    2  A    between atoms: C_2  and  O_3
REMARK    3  A    between atoms: O_3  and  C_4
REMARK    4  A    between atoms: C_6  and  C_7
REMARK    5  A    between atoms: C_11  and  C_12
REMARK    6  A    between atoms: C_12  and  S_13
REMARK    7  A    between atoms: S_13  and  C_14
REMARK    8  A    between atoms: N_16  and  C_17
REMARK                            x       y       z     vdW  Elec       q    Type
REMARK                         _______ _______ _______ _____ _____    ______ ____
ROOT
ATOM      1  C   UNL     1       6.446   6.668  17.215  0.00  0.00    +0.000 A 
ATOM      2  N   UNL     1       5.329   7.209  17.622  0.00  0.00    +0.000 NA
ATOM      3  C   UNL     1       4.322   6.245  17.788  0.00  0.00    +0.000 A 
ATOM      4  C   UNL     1       4.742   4.942  17.508  0.00  0.00    +0.000 A 
ATOM      5  S   UNL     1       6.410   4.977  17.029  0.00  0.00    +0.000 S 
ENDROOT
BRANCH   3   6
ATOM      6  C   UNL     1       2.951   6.755  18.156  0.00  0.00    +0.000 C 
ATOM      7  F   UNL     1       1.957   5.964  17.680  0.00  0.00    +0.000 F 
ATOM      8  F   UNL     1       2.790   6.804  19.507  0.00  0.00    +0.000 F 
ATOM      9  F   UNL     1       2.711   8.005  17.689  0.00  0.00    +0.000 F 
ENDBRANCH   3   6
BRANCH   1  10
ATOM     10  O   UNL     1       7.536   7.384  16.930  0.00  0.00    +0.000 OA
BRANCH  10  12
ATOM     11  C   UNL     1       8.215   9.462  17.919  0.00  0.00    +0.000 C 
ATOM     12  C   UNL     1       8.176   7.953  18.074  0.00  0.00    +0.000 C 
ENDBRANCH  10  12
ENDBRANCH   1  10
BRANCH   4  13
ATOM     13  C   UNL     1       4.006   3.628  17.436  0.00  0.00    +0.000 C 
BRANCH  13  14
ATOM     14  S   UNL     1       3.751   2.895  19.061  0.00  0.00    +0.000 S 
ATOM     15  C   UNL     1       3.512   1.169  18.648  0.00  0.00    +0.000 C 
ATOM     16  O   UNL     1       5.007   2.957  19.780  0.00  0.00    +0.000 OA
ATOM     17  N   UNL     1       2.405   3.403  19.626  0.00  0.00    +0.000 NA
BRANCH  17  18
ATOM     18  C   UNL     1       2.104   2.964  20.975  0.00  0.00    +0.000 C 
ATOM     19  N   UNL     1       1.873   2.663  22.061  0.00  0.00    +0.000 NA
ENDBRANCH  17  18
ENDBRANCH  13  14
ENDBRANCH   4  13
TORSDOF 6
ENDMDL
MODEL 4
REMARK VINA RESULT:      -6.4      2.034      2.582
REMARK  Name = 
REMARK  8 active torsions:
REMARK  status: ('A' for Active; 'I' for Inactive)
REMARK    1  A    between atoms: C_1  and  C_2
REMARK    2  A    between atoms: C_2  and  O_3
REMARK    3  A    between atoms: O_3  and  C_4
REMARK    4  A    between atoms: C_6  and  C_7
REMARK    5  A    between atoms: C_11  and  C_12
REMARK    6  A    between atoms: C_12  and  S_13
REMARK    7  A    between atoms: S_13  and  C_14
REMARK    8  A    between atoms: N_16  and  C_17
REMARK                            x       y       z     vdW  Elec       q    Type
REMARK                         _______ _______ _______ _____ _____    ______ ____
ROOT
ATOM      1  C   UNL     1       6.715   4.614  15.494  0.00  0.00    +0.000 A 
ATOM      2  N   UNL     1       7.494   5.121  16.412  0.00  0.00    +0.000 NA
ATOM      3  C   UNL     1       6.915   5.025  17.687  0.00  0.00    +0.000 A 
ATOM      4  C   UNL     1       5.666   4.398  17.691  0.00  0.00    +0.000 A 
ATOM      5  S   UNL     1       5.254   3.953  16.065  0.00  0.00    +0.000 S 
ENDROOT
BRANCH   3   6
ATOM      6  C   UNL     1       7.670   5.669  18.823  0.00  0.00    +0.000 C 
ATOM      7  F   UNL     1       8.722   4.920  19.239  0.00  0.00    +0.000 F 
ATOM      8  F   UNL     1       8.178   6.877  18.455  0.00  0.00    +0.000 F 
ATOM      9  F   UNL     1       6.893   5.889  19.914  0.00  0.00    +0.000 F 
ENDBRANCH   3   6
BRANCH   1  10
ATOM     10  O   UNL     1       7.017   4.636  14.194  0.00  0.00    +0.000 OA
BRANCH  10  12
ATOM     11  C   UNL     1       6.815   3.623  12.029  0.00  0.00    +0.000 C 
ATOM     12  C   UNL     1       6.163   3.825  13.383  0.00  0.00    +0.000 C 
ENDBRANCH  10  12
ENDBRANCH   1  10
BRANCH   4  13
ATOM     13  C   UNL     1       4.641   4.176  18.773  0.00  0.00    +0.000 C 
BRANCH  13  14
ATOM     14  S   UNL     1       3.356   5.438  18.770  0.00  0.00    +0.000 S 
ATOM     15  C   UNL     1       2.030   4.605  17.900  0.00  0.00    +0.000 C 
ATOM     16  O   UNL     1       2.889   5.603  20.131  0.00  0.00    +0.000 OA
ATOM     17  N   UNL     1       3.812   6.605  17.865  0.00  0.00    +0.000 NA
BRANCH  17  18
ATOM     18  C   UNL     1       2.912   7.741  17.834  0.00  0.00    +0.000 C 
ATOM     19  N   UNL     1       2.239   8.674  17.808  0.00  0.00    +0.000 NA
ENDBRANCH  17  18
ENDBRANCH  13  14
ENDBRANCH   4  13
TORSDOF 6
ENDMDL
MODEL 5
REMARK VINA RESULT:      -6.4      2.927      6.159
REMARK  Name = 
REMARK  8 active torsions:
REMARK  status: ('A' for Active; 'I' for Inactive)
REMARK    1  A    between atoms: C_1  and  C_2
REMARK    2  A    between atoms: C_2  and  O_3
REMARK    3  A    between atoms: O_3  and  C_4
REMARK    4  A    between atoms: C_6  and  C_7
REMARK    5  A    between atoms: C_11  and  C_12
REMARK    6  A    between atoms: C_12  and  S_13
REMARK    7  A    between atoms: S_13  and  C_14
REMARK    8  A    between atoms: N_16  and  C_17
REMARK                            x       y       z     vdW  Elec       q    Type
REMARK                         _______ _______ _______ _____ _____    ______ ____
ROOT
ATOM      1  C   UNL     1       2.655   3.333  18.851  0.00  0.00    +0.000 A 
ATOM      2  N   UNL     1       2.251   4.540  18.555  0.00  0.00    +0.000 NA
ATOM      3  C   UNL     1       3.304   5.465  18.623  0.00  0.00    +0.000 A 
ATOM      4  C   UNL     1       4.533   4.893  18.965  0.00  0.00    +0.000 A 
ATOM      5  S   UNL     1       4.314   3.187  19.200  0.00  0.00    +0.000 S 
ENDROOT
BRANCH   3   6
ATOM      6  C   UNL     1       2.947   6.914  18.403  0.00  0.00    +0.000 C 
ATOM      7  F   UNL     1       3.923   7.598  17.753  0.00  0.00    +0.000 F 
ATOM      8  F   UNL     1       1.822   7.035  17.647  0.00  0.00    +0.000 F 
ATOM      9  F   UNL     1       2.712   7.580  19.562  0.00  0.00    +0.000 F 
ENDBRANCH   3   6
BRANCH   1  10
ATOM     10  O   UNL     1       1.829   2.287  18.912  0.00  0.00    +0.000 OA
BRANCH  10  12
ATOM     11  C   UNL     1       1.284   2.683  21.215  0.00  0.00    +0.000 C 
ATOM     12  C   UNL     1       0.737   2.457  19.818  0.00  0.00    +0.000 C 
ENDBRANCH  10  12
ENDBRANCH   1  10
BRANCH   4  13
ATOM     13  C   UNL     1       5.885   5.487  19.264  0.00  0.00    +0.000 C 
BRANCH  13  14
ATOM     14  S   UNL     1       6.991   5.423  17.844  0.00  0.00    +0.000 S 
ATOM     15  C   UNL     1       7.766   7.036  17.913  0.00  0.00    +0.000 C 
ATOM     16  O   UNL     1       8.041   4.470  18.139  0.00  0.00    +0.000 OA
ATOM     17  N   UNL     1       6.139   5.399  16.555  0.00  0.00    +0.000 NA
BRANCH  17  18
ATOM     18  C   UNL     1       6.894   5.258  15.325  0.00  0.00    +0.000 C 
ATOM     19  N   UNL     1       7.506   5.195  14.352  0.00  0.00    +0.000 NA
ENDBRANCH  17  18
ENDBRANCH  13  14
ENDBRANCH   4  13
TORSDOF 6
ENDMDL
MODEL 6
REMARK VINA RESULT:      -6.4      1.837      2.196
REMARK  Name = 
REMARK  8 active torsions:
REMARK  status: ('A' for Active; 'I' for Inactive)
REMARK    1  A    between atoms: C_1  and  C_2
REMARK    2  A    between atoms: C_2  and  O_3
REMARK    3  A    between atoms: O_3  and  C_4
REMARK    4  A    between atoms: C_6  and  C_7
REMARK    5  A    between atoms: C_11  and  C_12
REMARK    6  A    between atoms: C_12  and  S_13
REMARK    7  A    between atoms: S_13  and  C_14
REMARK    8  A    between atoms: N_16  and  C_17
REMARK                            x       y       z     vdW  Elec       q    Type
REMARK                         _______ _______ _______ _____ _____    ______ ____
ROOT
ATOM      1  C   UNL     1       6.696   4.738  14.776  0.00  0.00    +0.000 A 
ATOM      2  N   UNL     1       7.198   5.794  15.360  0.00  0.00    +0.000 NA
ATOM      3  C   UNL     1       6.921   5.798  16.736  0.00  0.00    +0.000 A 
ATOM      4  C   UNL     1       6.203   4.680  17.169  0.00  0.00    +0.000 A 
ATOM      5  S   UNL     1       5.890   3.651  15.807  0.00  0.00    +0.000 S 
ENDROOT
BRANCH   3   6
ATOM      6  C   UNL     1       7.357   7.018  17.510  0.00  0.00    +0.000 C 
ATOM      7  F   UNL     1       7.972   6.701  18.678  0.00  0.00    +0.000 F 
ATOM      8  F   UNL     1       8.245   7.762  16.796  0.00  0.00    +0.000 F 
ATOM      9  F   UNL     1       6.324   7.839  17.825  0.00  0.00    +0.000 F 
ENDBRANCH   3   6
BRANCH   1  10
ATOM     10  O   UNL     1       6.776   4.532  13.460  0.00  0.00    +0.000 OA
BRANCH  10  12
ATOM     11  C   UNL     1       5.077   3.581  12.057  0.00  0.00    +0.000 C 
ATOM     12  C   UNL     1       6.207   3.294  13.027  0.00  0.00    +0.000 C 
ENDBRANCH  10  12
ENDBRANCH   1  10
BRANCH   4  13
ATOM     13  C   UNL     1       5.595   4.311  18.497  0.00  0.00    +0.000 C 
BRANCH  13  14
ATOM     14  S   UNL     1       3.795   4.263  18.437  0.00  0.00    +0.000 S 
ATOM     15  C   UNL     1       3.358   5.097  19.960  0.00  0.00    +0.000 C 
ATOM     16  O   UNL     1       3.361   5.141  17.370  0.00  0.00    +0.000 OA
ATOM     17  N   UNL     1       3.335   2.796  18.590  0.00  0.00    +0.000 NA
BRANCH  17  18
ATOM     18  C   UNL     1       1.905   2.588  18.472  0.00  0.00    +0.000 C 
ATOM     19  N   UNL     1       0.769   2.458  18.342  0.00  0.00    +0.000 NA
ENDBRANCH  17  18
ENDBRANCH  13  14
ENDBRANCH   4  13
TORSDOF 6
ENDMDL
MODEL 7
REMARK VINA RESULT:      -6.2      2.983      4.078
REMARK  Name = 
REMARK  8 active torsions:
REMARK  status: ('A' for Active; 'I' for Inactive)
REMARK    1  A    between atoms: C_1  and  C_2
REMARK    2  A    between atoms: C_2  and  O_3
REMARK    3  A    between atoms: O_3  and  C_4
REMARK    4  A    between atoms: C_6  and  C_7
REMARK    5  A    between atoms: C_11  and  C_12
REMARK    6  A    between atoms: C_12  and  S_13
REMARK    7  A    between atoms: S_13  and  C_14
REMARK    8  A    between atoms: N_16  and  C_17
REMARK                            x       y       z     vdW  Elec       q    Type
REMARK                         _______ _______ _______ _____ _____    ______ ____
ROOT
ATOM      1  C   UNL     1       7.293   6.405  17.635  0.00  0.00    +0.000 A 
ATOM      2  N   UNL     1       7.301   6.193  16.346  0.00  0.00    +0.000 NA
ATOM      3  C   UNL     1       6.443   5.140  15.994  0.00  0.00    +0.000 A 
ATOM      4  C   UNL     1       5.767   4.579  17.080  0.00  0.00    +0.000 A 
ATOM      5  S   UNL     1       6.249   5.403  18.530  0.00  0.00    +0.000 S 
ENDROOT
BRANCH   3   6
ATOM      6  C   UNL     1       6.440   4.727  14.543  0.00  0.00    +0.000 C 
ATOM      7  F   UNL     1       6.607   3.389  14.383  0.00  0.00    +0.000 F 
ATOM      8  F   UNL     1       5.259   5.042  13.943  0.00  0.00    +0.000 F 
ATOM      9  F   UNL     1       7.417   5.330  13.821  0.00  0.00    +0.000 F 
ENDBRANCH   3   6
BRANCH   1  10
ATOM     10  O   UNL     1       8.069   7.317  18.225  0.00  0.00    +0.000 OA
BRANCH  10  12
ATOM     11  C   UNL     1       8.734   9.600  18.548  0.00  0.00    +0.000 C 
ATOM     12  C   UNL     1       7.895   8.644  17.722  0.00  0.00    +0.000 C 
ENDBRANCH  10  12
ENDBRANCH   1  10
BRANCH   4  13
ATOM     13  C   UNL     1       4.856   3.385  17.207  0.00  0.00    +0.000 C 
BRANCH  13  14
ATOM     14  S   UNL     1       3.952   3.376  18.765  0.00  0.00    +0.000 S 
ATOM     15  C   UNL     1       2.780   2.048  18.497  0.00  0.00    +0.000 C 
ATOM     16  O   UNL     1       4.850   2.904  19.799  0.00  0.00    +0.000 OA
ATOM     17  N   UNL     1       3.126   4.678  18.865  0.00  0.00    +0.000 NA
BRANCH  17  18
ATOM     18  C   UNL     1       2.410   4.853  20.113  0.00  0.00    +0.000 C 
ATOM     19  N   UNL     1       1.826   5.038  21.088  0.00  0.00    +0.000 NA
ENDBRANCH  17  18
ENDBRANCH  13  14
ENDBRANCH   4  13
TORSDOF 6
ENDMDL
MODEL 8
REMARK VINA RESULT:      -6.2      3.193      4.013
REMARK  Name = 
REMARK  8 active torsions:
REMARK  status: ('A' for Active; 'I' for Inactive)
REMARK    1  A    between atoms: C_1  and  C_2
REMARK    2  A    between atoms: C_2  and  O_3
REMARK    3  A    between atoms: O_3  and  C_4
REMARK    4  A    between atoms: C_6  and  C_7
REMARK    5  A    between atoms: C_11  and  C_12
REMARK    6  A    between atoms: C_12  and  S_13
REMARK    7  A    between atoms: S_13  and  C_14
REMARK    8  A    between atoms: N_16  and  C_17
REMARK                            x       y       z     vdW  Elec       q    Type
REMARK                         _______ _______ _______ _____ _____    ______ ____
ROOT
ATOM      1  C   UNL     1       5.920   6.030  17.013  0.00  0.00    +0.000 A 
ATOM      2  N   UNL     1       4.946   6.742  17.517  0.00  0.00    +0.000 NA
ATOM      3  C   UNL     1       3.770   5.987  17.642  0.00  0.00    +0.000 A 
ATOM      4  C   UNL     1       3.907   4.660  17.228  0.00  0.00    +0.000 A 
ATOM      5  S   UNL     1       5.535   4.406  16.680  0.00  0.00    +0.000 S 
ENDROOT
BRANCH   3   6
ATOM      6  C   UNL     1       2.541   6.724  18.115  0.00  0.00    +0.000 C 
ATOM      7  F   UNL     1       2.535   6.915  19.459  0.00  0.00    +0.000 F 
ATOM      8  F   UNL     1       2.458   7.959  17.549  0.00  0.00    +0.000 F 
ATOM      9  F   UNL     1       1.389   6.077  17.809  0.00  0.00    +0.000 F 
ENDBRANCH   3   6
BRANCH   1  10
ATOM     10  O   UNL     1       7.124   6.537  16.744  0.00  0.00    +0.000 OA
BRANCH  10  12
ATOM     11  C   UNL     1       7.995   6.164  18.949  0.00  0.00    +0.000 C 
ATOM     12  C   UNL     1       7.746   7.186  17.856  0.00  0.00    +0.000 C 
ENDBRANCH  10  12
ENDBRANCH   1  10
BRANCH   4  13
ATOM     13  C   UNL     1       2.918   3.533  17.073  0.00  0.00    +0.000 C 
BRANCH  13  14
ATOM     14  S   UNL     1       2.660   2.631  18.610  0.00  0.00    +0.000 S 
ATOM     15  C   UNL     1       0.916   2.237  18.512  0.00  0.00    +0.000 C 
ATOM     16  O   UNL     1       3.355   1.364  18.506  0.00  0.00    +0.000 OA
ATOM     17  N   UNL     1       2.824   3.612  19.792  0.00  0.00    +0.000 NA
BRANCH  17  18
ATOM     18  C   UNL     1       2.730   3.007  21.106  0.00  0.00    +0.000 C 
ATOM     19  N   UNL     1       2.624   2.563  22.163  0.00  0.00    +0.000 NA
ENDBRANCH  17  18
ENDBRANCH  13  14
ENDBRANCH   4  13
TORSDOF 6
ENDMDL
MODEL 9
REMARK VINA RESULT:      -6.2      1.475      1.850
REMARK  Name = 
REMARK  8 active torsions:
REMARK  status: ('A' for Active; 'I' for Inactive)
REMARK    1  A    between atoms: C_1  and  C_2
REMARK    2  A    between atoms: C_2  and  O_3
REMARK    3  A    between atoms: O_3  and  C_4
REMARK    4  A    between atoms: C_6  and  C_7
REMARK    5  A    between atoms: C_11  and  C_12
REMARK    6  A    between atoms: C_12  and  S_13
REMARK    7  A    between atoms: S_13  and  C_14
REMARK    8  A    between atoms: N_16  and  C_17
REMARK                            x       y       z     vdW  Elec       q    Type
REMARK                         _______ _______ _______ _____ _____    ______ ____
ROOT
ATOM      1  C   UNL     1       6.781   4.839  15.379  0.00  0.00    +0.000 A 
ATOM      2  N   UNL     1       7.538   4.951  16.439  0.00  0.00    +0.000 NA
ATOM      3  C   UNL     1       6.816   5.449  17.535  0.00  0.00    +0.000 A 
ATOM      4  C   UNL     1       5.468   5.688  17.258  0.00  0.00    +0.000 A 
ATOM      5  S   UNL     1       5.152   5.280  15.601  0.00  0.00    +0.000 S 
ENDROOT
BRANCH   3   6
ATOM      6  C   UNL     1       7.602   5.723  18.793  0.00  0.00    +0.000 C 
ATOM      7  F   UNL     1       8.640   4.864  18.956  0.00  0.00    +0.000 F 
ATOM      8  F   UNL     1       8.137   6.975  18.777  0.00  0.00    +0.000 F 
ATOM      9  F   UNL     1       6.846   5.637  19.916  0.00  0.00    +0.000 F 
ENDBRANCH   3   6
BRANCH   1  10
ATOM     10  O   UNL     1       7.247   4.440  14.194  0.00  0.00    +0.000 OA
BRANCH  10  12
ATOM     11  C   UNL     1       6.802   3.676  11.964  0.00  0.00    +0.000 C 
ATOM     12  C   UNL     1       6.282   3.762  13.386  0.00  0.00    +0.000 C 
ENDBRANCH  10  12
ENDBRANCH   1  10
BRANCH   4  13
ATOM     13  C   UNL     1       4.358   6.314  18.063  0.00  0.00    +0.000 C 
BRANCH  13  14
ATOM     14  S   UNL     1       3.092   5.120  18.528  0.00  0.00    +0.000 S 
ATOM     15  C   UNL     1       2.659   5.672  20.176  0.00  0.00    +0.000 C 
ATOM     16  O   UNL     1       1.922   5.369  17.710  0.00  0.00    +0.000 OA
ATOM     17  N   UNL     1       3.755   3.734  18.688  0.00  0.00    +0.000 NA
BRANCH  17  18
ATOM     18  C   UNL     1       2.839   2.648  18.977  0.00  0.00    +0.000 C 
ATOM     19  N   UNL     1       2.141   1.755  19.178  0.00  0.00    +0.000 NA
ENDBRANCH  17  18
ENDBRANCH  13  14
ENDBRANCH   4  13
TORSDOF 6
ENDMDL
