MODEL 1
REMARK VINA RESULT:      -8.8      0.000      0.000
REMARK  Name = 
REMARK  7 active torsions:
REMARK  status: ('A' for Active; 'I' for Inactive)
REMARK    1  A    between atoms: C_1  and  C_2
REMARK    2  A    between atoms: C_2  and  O_3
REMARK    3  A    between atoms: O_3  and  C_4
REMARK    4  A    between atoms: C_4  and  C_6
REMARK    5  A    between atoms: C_19  and  O_21
REMARK    6  A    between atoms: O_21  and  C_22
REMARK    7  A    between atoms: C_22  and  C_23
REMARK                            x       y       z     vdW  Elec       q    Type
REMARK                         _______ _______ _______ _____ _____    ______ ____
ROOT
ATOM      1  C   UNL     1       6.191   4.462  18.077  0.00  0.00    +0.000 C 
ATOM      2  C   UNL     1       4.894   4.022  18.732  0.00  0.00    +0.000 A 
ATOM      3  N   UNL     1       4.799   3.484  19.993  0.00  0.00    +0.000 N 
ATOM      4  C   UNL     1       3.476   3.236  20.297  0.00  0.00    +0.000 A 
ATOM      5  C   UNL     1       2.910   2.723  21.471  0.00  0.00    +0.000 A 
ATOM      6  C   UNL     1       1.518   2.601  21.523  0.00  0.00    +0.000 A 
ATOM      7  C   UNL     1       0.727   2.977  20.439  0.00  0.00    +0.000 A 
ATOM      8  C   UNL     1       1.308   3.482  19.269  0.00  0.00    +0.000 A 
ATOM      9  C   UNL     1       2.709   3.615  19.191  0.00  0.00    +0.000 A 
ATOM     10  C   UNL     1       3.621   4.090  18.205  0.00  0.00    +0.000 A 
ATOM     11  C   UNL     1       3.387   4.615  16.831  0.00  0.00    +0.000 C 
ATOM     12  C   UNL     1       4.576   5.503  16.409  0.00  0.00    +0.000 C 
ATOM     13  N   UNL     1       5.880   4.878  16.691  0.00  0.00    +0.000 N 
ATOM     14  C   UNL     1       6.900   4.791  15.764  0.00  0.00    +0.000 C 
ATOM     15  O   UNL     1       7.984   4.286  16.014  0.00  0.00    +0.000 OA
ATOM     16  H   UNL     1       5.568   3.353  20.635  0.00  0.00    +0.000 HD
ENDROOT
BRANCH   1  17
ATOM     17  C   UNL     1       6.900   5.537  18.950  0.00  0.00    +0.000 C 
ATOM     18  O   UNL     1       7.284   5.313  20.101  0.00  0.00    +0.000 OA
BRANCH  17  19
ATOM     19  O   UNL     1       6.953   6.753  18.338  0.00  0.00    +0.000 OA
BRANCH  19  21
ATOM     20  C   UNL     1       8.073   8.818  17.902  0.00  0.00    +0.000 C 
ATOM     21  C   UNL     1       8.216   7.419  18.470  0.00  0.00    +0.000 C 
ENDBRANCH  19  21
ENDBRANCH  17  19
ENDBRANCH   1  17
BRANCH  14  22
ATOM     22  O   UNL     1       6.569   5.329  14.556  0.00  0.00    +0.000 OA
BRANCH  22  23
ATOM     23  C   UNL     1       7.344   4.856  13.445  0.00  0.00    +0.000 C 
BRANCH  23  24
ATOM     24  C   UNL     1       6.523   3.871  12.653  0.00  0.00    +0.000 A 
ATOM     25  C   UNL     1       7.121   2.804  11.972  0.00  0.00    +0.000 A 
ATOM     26  C   UNL     1       6.345   1.930  11.204  0.00  0.00    +0.000 A 
ATOM     27  C   UNL     1       4.966   2.113  11.116  0.00  0.00    +0.000 A 
ATOM     28  C   UNL     1       4.359   3.162  11.802  0.00  0.00    +0.000 A 
ATOM     29  C   UNL     1       5.131   4.037  12.567  0.00  0.00    +0.000 A 
ENDBRANCH  23  24
ENDBRANCH  22  23
ENDBRANCH  14  22
TORSDOF 6
ENDMDL
MODEL 2
REMARK VINA RESULT:      -7.9      4.818      8.876
REMARK  Name = 
REMARK  7 active torsions:
REMARK  status: ('A' for Active; 'I' for Inactive)
REMARK    1  A    between atoms: C_1  and  C_2
REMARK    2  A    between atoms: C_2  and  O_3
REMARK    3  A    between atoms: O_3  and  C_4
REMARK    4  A    between atoms: C_4  and  C_6
REMARK    5  A    between atoms: C_19  and  O_21
REMARK    6  A    between atoms: O_21  and  C_22
REMARK    7  A    between atoms: C_22  and  C_23
REMARK                            x       y       z     vdW  Elec       q    Type
REMARK                         _______ _______ _______ _____ _____    ______ ____
ROOT
ATOM      1  C   UNL     1       2.641   5.126  18.932  0.00  0.00    +0.000 C 
ATOM      2  C   UNL     1       3.699   5.078  17.844  0.00  0.00    +0.000 A 
ATOM      3  N   UNL     1       4.302   3.930  17.390  0.00  0.00    +0.000 N 
ATOM      4  C   UNL     1       5.180   4.234  16.371  0.00  0.00    +0.000 A 
ATOM      5  C   UNL     1       5.983   3.384  15.599  0.00  0.00    +0.000 A 
ATOM      6  C   UNL     1       6.768   3.962  14.597  0.00  0.00    +0.000 A 
ATOM      7  C   UNL     1       6.748   5.339  14.379  0.00  0.00    +0.000 A 
ATOM      8  C   UNL     1       5.944   6.177  15.163  0.00  0.00    +0.000 A 
ATOM      9  C   UNL     1       5.144   5.619  16.180  0.00  0.00    +0.000 A 
ATOM     10  C   UNL     1       4.221   6.138  17.131  0.00  0.00    +0.000 A 
ATOM     11  C   UNL     1       3.780   7.535  17.403  0.00  0.00    +0.000 C 
ATOM     12  C   UNL     1       2.401   7.516  18.093  0.00  0.00    +0.000 C 
ATOM     13  N   UNL     1       2.334   6.549  19.202  0.00  0.00    +0.000 N 
ATOM     14  C   UNL     1       1.851   6.860  20.458  0.00  0.00    +0.000 C 
ATOM     15  O   UNL     1       1.783   6.046  21.365  0.00  0.00    +0.000 OA
ATOM     16  H   UNL     1       4.088   2.993  17.701  0.00  0.00    +0.000 HD
ENDROOT
BRANCH   1  17
ATOM     17  C   UNL     1       1.421   4.245  18.539  0.00  0.00    +0.000 C 
ATOM     18  O   UNL     1       1.004   4.165  17.380  0.00  0.00    +0.000 OA
BRANCH  17  19
ATOM     19  O   UNL     1       0.826   3.668  19.619  0.00  0.00    +0.000 OA
BRANCH  19  21
ATOM     20  C   UNL     1       1.618   2.639  21.625  0.00  0.00    +0.000 C 
ATOM     21  C   UNL     1       1.513   2.512  20.117  0.00  0.00    +0.000 C 
ENDBRANCH  19  21
ENDBRANCH  17  19
ENDBRANCH   1  17
BRANCH  14  22
ATOM     22  O   UNL     1       1.459   8.161  20.569  0.00  0.00    +0.000 OA
BRANCH  22  23
ATOM     23  C   UNL     1       1.252   8.622  21.912  0.00  0.00    +0.000 C 
BRANCH  23  24
ATOM     24  C   UNL     1       0.233   9.734  21.900  0.00  0.00    +0.000 A 
ATOM     25  C   UNL     1      -0.033  10.468  20.738  0.00  0.00    +0.000 A 
ATOM     26  C   UNL     1      -0.946  11.526  20.761  0.00  0.00    +0.000 A 
ATOM     27  C   UNL     1      -1.605  11.854  21.945  0.00  0.00    +0.000 A 
ATOM     28  C   UNL     1      -1.361  11.121  23.103  0.00  0.00    +0.000 A 
ATOM     29  C   UNL     1      -0.447  10.066  23.083  0.00  0.00    +0.000 A 
ENDBRANCH  23  24
ENDBRANCH  22  23
ENDBRANCH  14  22
TORSDOF 6
ENDMDL
MODEL 3
REMARK VINA RESULT:      -7.6      1.845      2.604
REMARK  Name = 
REMARK  7 active torsions:
REMARK  status: ('A' for Active; 'I' for Inactive)
REMARK    1  A    between atoms: C_1  and  C_2
REMARK    2  A    between atoms: C_2  and  O_3
REMARK    3  A    between atoms: O_3  and  C_4
REMARK    4  A    between atoms: C_4  and  C_6
REMARK    5  A    between atoms: C_19  and  O_21
REMARK    6  A    between atoms: O_21  and  C_22
REMARK    7  A    between atoms: C_22  and  C_23
REMARK                            x       y       z     vdW  Elec       q    Type
REMARK                         _______ _______ _______ _____ _____    ______ ____
ROOT
ATOM      1  C   UNL     1       5.190   5.911  17.524  0.00  0.00    +0.000 C 
ATOM      2  C   UNL     1       4.328   5.080  18.457  0.00  0.00    +0.000 A 
ATOM      3  N   UNL     1       3.691   5.565  19.573  0.00  0.00    +0.000 N 
ATOM      4  C   UNL     1       2.958   4.559  20.168  0.00  0.00    +0.000 A 
ATOM      5  C   UNL     1       2.135   4.602  21.300  0.00  0.00    +0.000 A 
ATOM      6  C   UNL     1       1.477   3.427  21.673  0.00  0.00    +0.000 A 
ATOM      7  C   UNL     1       1.639   2.254  20.938  0.00  0.00    +0.000 A 
ATOM      8  C   UNL     1       2.471   2.224  19.811  0.00  0.00    +0.000 A 
ATOM      9  C   UNL     1       3.146   3.396  19.415  0.00  0.00    +0.000 A 
ATOM     10  C   UNL     1       4.029   3.737  18.351  0.00  0.00    +0.000 A 
ATOM     11  C   UNL     1       4.590   2.912  17.245  0.00  0.00    +0.000 C 
ATOM     12  C   UNL     1       5.001   3.829  16.075  0.00  0.00    +0.000 C 
ATOM     13  N   UNL     1       5.778   5.000  16.517  0.00  0.00    +0.000 N 
ATOM     14  C   UNL     1       6.970   5.389  15.936  0.00  0.00    +0.000 C 
ATOM     15  O   UNL     1       7.597   6.372  16.299  0.00  0.00    +0.000 OA
ATOM     16  H   UNL     1       3.695   6.528  19.879  0.00  0.00    +0.000 HD
ENDROOT
BRANCH   1  17
ATOM     17  C   UNL     1       4.370   7.100  16.946  0.00  0.00    +0.000 C 
ATOM     18  O   UNL     1       4.385   7.399  15.749  0.00  0.00    +0.000 OA
BRANCH  17  19
ATOM     19  O   UNL     1       3.728   7.811  17.915  0.00  0.00    +0.000 OA
BRANCH  19  21
ATOM     20  C   UNL     1       2.013   9.473  17.877  0.00  0.00    +0.000 C 
ATOM     21  C   UNL     1       2.329   8.005  17.667  0.00  0.00    +0.000 C 
ENDBRANCH  19  21
ENDBRANCH  17  19
ENDBRANCH   1  17
BRANCH  14  22
ATOM     22  O   UNL     1       7.360   4.567  14.922  0.00  0.00    +0.000 OA
BRANCH  22  23
ATOM     23  C   UNL     1       7.181   5.100  13.602  0.00  0.00    +0.000 C 
BRANCH  23  24
ATOM     24  C   UNL     1       6.566   4.042  12.722  0.00  0.00    +0.000 A 
ATOM     25  C   UNL     1       5.179   3.947  12.556  0.00  0.00    +0.000 A 
ATOM     26  C   UNL     1       4.626   2.928  11.773  0.00  0.00    +0.000 A 
ATOM     27  C   UNL     1       5.457   2.000  11.147  0.00  0.00    +0.000 A 
ATOM     28  C   UNL     1       6.839   2.095  11.292  0.00  0.00    +0.000 A 
ATOM     29  C   UNL     1       7.392   3.108  12.075  0.00  0.00    +0.000 A 
ENDBRANCH  23  24
ENDBRANCH  22  23
ENDBRANCH  14  22
TORSDOF 6
ENDMDL
MODEL 4
REMARK VINA RESULT:      -7.5      7.979      9.844
REMARK  Name = 
REMARK  7 active torsions:
REMARK  status: ('A' for Active; 'I' for Inactive)
REMARK    1  A    between atoms: C_1  and  C_2
REMARK    2  A    between atoms: C_2  and  O_3
REMARK    3  A    between atoms: O_3  and  C_4
REMARK    4  A    between atoms: C_4  and  C_6
REMARK    5  A    between atoms: C_19  and  O_21
REMARK    6  A    between atoms: O_21  and  C_22
REMARK    7  A    between atoms: C_22  and  C_23
REMARK                            x       y       z     vdW  Elec       q    Type
REMARK                         _______ _______ _______ _____ _____    ______ ____
ROOT
ATOM      1  C   UNL     1      -0.282  10.755  18.782  0.00  0.00    +0.000 C 
ATOM      2  C   UNL     1      -0.763  11.705  19.864  0.00  0.00    +0.000 A 
ATOM      3  N   UNL     1      -1.482  12.852  19.633  0.00  0.00    +0.000 N 
ATOM      4  C   UNL     1      -1.796  13.457  20.833  0.00  0.00    +0.000 A 
ATOM      5  C   UNL     1      -2.536  14.620  21.081  0.00  0.00    +0.000 A 
ATOM      6  C   UNL     1      -2.731  14.996  22.413  0.00  0.00    +0.000 A 
ATOM      7  C   UNL     1      -2.203  14.235  23.455  0.00  0.00    +0.000 A 
ATOM      8  C   UNL     1      -1.460  13.077  23.191  0.00  0.00    +0.000 A 
ATOM      9  C   UNL     1      -1.249  12.677  21.856  0.00  0.00    +0.000 A 
ATOM     10  C   UNL     1      -0.583  11.586  21.227  0.00  0.00    +0.000 A 
ATOM     11  C   UNL     1       0.181  10.445  21.803  0.00  0.00    +0.000 C 
ATOM     12  C   UNL     1       0.201   9.276  20.796  0.00  0.00    +0.000 C 
ATOM     13  N   UNL     1       0.543   9.710  19.430  0.00  0.00    +0.000 N 
ATOM     14  C   UNL     1       1.501   9.091  18.650  0.00  0.00    +0.000 C 
ATOM     15  O   UNL     1       1.764   9.448  17.513  0.00  0.00    +0.000 OA
ATOM     16  H   UNL     1      -1.799  13.175  18.730  0.00  0.00    +0.000 HD
ENDROOT
BRANCH   1  17
ATOM     17  C   UNL     1      -1.486  10.229  17.949  0.00  0.00    +0.000 C 
ATOM     18  O   UNL     1      -1.343   9.615  16.888  0.00  0.00    +0.000 OA
BRANCH  17  19
ATOM     19  O   UNL     1      -2.686  10.606  18.472  0.00  0.00    +0.000 OA
BRANCH  19  21
ATOM     20  C   UNL     1      -4.638  11.650  17.574  0.00  0.00    +0.000 C 
ATOM     21  C   UNL     1      -3.800  10.386  17.596  0.00  0.00    +0.000 C 
ENDBRANCH  19  21
ENDBRANCH  17  19
ENDBRANCH   1  17
BRANCH  14  22
ATOM     22  O   UNL     1       2.109   8.049  19.283  0.00  0.00    +0.000 OA
BRANCH  22  23
ATOM     23  C   UNL     1       2.647   7.040  18.417  0.00  0.00    +0.000 C 
BRANCH  23  24
ATOM     24  C   UNL     1       2.130   5.691  18.848  0.00  0.00    +0.000 A 
ATOM     25  C   UNL     1       1.872   4.676  17.918  0.00  0.00    +0.000 A 
ATOM     26  C   UNL     1       1.347   3.450  18.335  0.00  0.00    +0.000 A 
ATOM     27  C   UNL     1       1.080   3.226  19.684  0.00  0.00    +0.000 A 
ATOM     28  C   UNL     1       1.347   4.222  20.620  0.00  0.00    +0.000 A 
ATOM     29  C   UNL     1       1.869   5.449  20.207  0.00  0.00    +0.000 A 
ENDBRANCH  23  24
ENDBRANCH  22  23
ENDBRANCH  14  22
TORSDOF 6
ENDMDL
MODEL 5
REMARK VINA RESULT:      -7.5      7.070      9.350
REMARK  Name = 
REMARK  7 active torsions:
REMARK  status: ('A' for Active; 'I' for Inactive)
REMARK    1  A    between atoms: C_1  and  C_2
REMARK    2  A    between atoms: C_2  and  O_3
REMARK    3  A    between atoms: O_3  and  C_4
REMARK    4  A    between atoms: C_4  and  C_6
REMARK    5  A    between atoms: C_19  and  O_21
REMARK    6  A    between atoms: O_21  and  C_22
REMARK    7  A    between atoms: C_22  and  C_23
REMARK                            x       y       z     vdW  Elec       q    Type
REMARK                         _______ _______ _______ _____ _____    ______ ____
ROOT
ATOM      1  C   UNL     1       1.189   9.238  20.698  0.00  0.00    +0.000 C 
ATOM      2  C   UNL     1       1.736   7.923  20.174  0.00  0.00    +0.000 A 
ATOM      3  N   UNL     1       1.970   6.811  20.945  0.00  0.00    +0.000 N 
ATOM      4  C   UNL     1       2.422   5.777  20.151  0.00  0.00    +0.000 A 
ATOM      5  C   UNL     1       2.755   4.462  20.499  0.00  0.00    +0.000 A 
ATOM      6  C   UNL     1       3.163   3.601  19.477  0.00  0.00    +0.000 A 
ATOM      7  C   UNL     1       3.235   4.043  18.157  0.00  0.00    +0.000 A 
ATOM      8  C   UNL     1       2.905   5.363  17.824  0.00  0.00    +0.000 A 
ATOM      9  C   UNL     1       2.491   6.251  18.837  0.00  0.00    +0.000 A 
ATOM     10  C   UNL     1       2.074   7.613  18.872  0.00  0.00    +0.000 A 
ATOM     11  C   UNL     1       1.951   8.624  17.786  0.00  0.00    +0.000 C 
ATOM     12  C   UNL     1       0.949   9.718  18.211  0.00  0.00    +0.000 C 
ATOM     13  N   UNL     1       1.190  10.208  19.579  0.00  0.00    +0.000 N 
ATOM     14  C   UNL     1       1.267  11.548  19.908  0.00  0.00    +0.000 C 
ATOM     15  O   UNL     1       1.449  11.943  21.048  0.00  0.00    +0.000 OA
ATOM     16  H   UNL     1       1.775   6.730  21.933  0.00  0.00    +0.000 HD
ENDROOT
BRANCH   1  17
ATOM     17  C   UNL     1      -0.189   9.016  21.384  0.00  0.00    +0.000 C 
ATOM     18  O   UNL     1      -0.670   7.894  21.563  0.00  0.00    +0.000 OA
BRANCH  17  19
ATOM     19  O   UNL     1      -0.825  10.188  21.666  0.00  0.00    +0.000 OA
BRANCH  19  21
ATOM     20  C   UNL     1      -1.609  11.820  23.224  0.00  0.00    +0.000 C 
ATOM     21  C   UNL     1      -0.941  10.467  23.068  0.00  0.00    +0.000 C 
ENDBRANCH  19  21
ENDBRANCH  17  19
ENDBRANCH   1  17
BRANCH  14  22
ATOM     22  O   UNL     1       1.115  12.368  18.830  0.00  0.00    +0.000 OA
BRANCH  22  23
ATOM     23  C   UNL     1       0.131  13.401  18.986  0.00  0.00    +0.000 C 
BRANCH  23  24
ATOM     24  C   UNL     1      -1.244  12.787  18.924  0.00  0.00    +0.000 A 
ATOM     25  C   UNL     1      -1.644  12.002  17.835  0.00  0.00    +0.000 A 
ATOM     26  C   UNL     1      -2.941  11.482  17.775  0.00  0.00    +0.000 A 
ATOM     27  C   UNL     1      -3.844  11.737  18.805  0.00  0.00    +0.000 A 
ATOM     28  C   UNL     1      -3.453  12.502  19.900  0.00  0.00    +0.000 A 
ATOM     29  C   UNL     1      -2.161  13.026  19.961  0.00  0.00    +0.000 A 
ENDBRANCH  23  24
ENDBRANCH  22  23
ENDBRANCH  14  22
TORSDOF 6
ENDMDL
MODEL 6
REMARK VINA RESULT:      -7.5      7.626      9.371
REMARK  Name = 
REMARK  7 active torsions:
REMARK  status: ('A' for Active; 'I' for Inactive)
REMARK    1  A    between atoms: C_1  and  C_2
REMARK    2  A    between atoms: C_2  and  O_3
REMARK    3  A    between atoms: O_3  and  C_4
REMARK    4  A    between atoms: C_4  and  C_6
REMARK    5  A    between atoms: C_19  and  O_21
REMARK    6  A    between atoms: O_21  and  C_22
REMARK    7  A    between atoms: C_22  and  C_23
REMARK                            x       y       z     vdW  Elec       q    Type
REMARK                         _______ _______ _______ _____ _____    ______ ____
ROOT
ATOM      1  C   UNL     1      -0.340  10.786  20.218  0.00  0.00    +0.000 C 
ATOM      2  C   UNL     1      -1.678  11.167  19.611  0.00  0.00    +0.000 A 
ATOM      3  N   UNL     1      -2.600  11.993  20.206  0.00  0.00    +0.000 N 
ATOM      4  C   UNL     1      -3.683  12.166  19.369  0.00  0.00    +0.000 A 
ATOM      5  C   UNL     1      -4.836  12.942  19.547  0.00  0.00    +0.000 A 
ATOM      6  C   UNL     1      -5.774  12.961  18.511  0.00  0.00    +0.000 A 
ATOM      7  C   UNL     1      -5.564  12.229  17.344  0.00  0.00    +0.000 A 
ATOM      8  C   UNL     1      -4.410  11.452  17.183  0.00  0.00    +0.000 A 
ATOM      9  C   UNL     1      -3.448  11.416  18.212  0.00  0.00    +0.000 A 
ATOM     10  C   UNL     1      -2.189  10.775  18.389  0.00  0.00    +0.000 A 
ATOM     11  C   UNL     1      -1.429   9.853  17.501  0.00  0.00    +0.000 C 
ATOM     12  C   UNL     1       0.069   9.900  17.868  0.00  0.00    +0.000 C 
ATOM     13  N   UNL     1       0.301   9.800  19.319  0.00  0.00    +0.000 N 
ATOM     14  C   UNL     1       1.210   8.928  19.888  0.00  0.00    +0.000 C 
ATOM     15  O   UNL     1       1.407   8.866  21.091  0.00  0.00    +0.000 OA
ATOM     16  H   UNL     1      -2.480  12.464  21.091  0.00  0.00    +0.000 HD
ENDROOT
BRANCH   1  17
ATOM     17  C   UNL     1       0.501  12.061  20.514  0.00  0.00    +0.000 C 
ATOM     18  O   UNL     1       1.084  12.239  21.587  0.00  0.00    +0.000 OA
BRANCH  17  19
ATOM     19  O   UNL     1       0.434  12.975  19.507  0.00  0.00    +0.000 OA
BRANCH  19  21
ATOM     20  C   UNL     1       2.410  12.812  18.173  0.00  0.00    +0.000 C 
ATOM     21  C   UNL     1       1.681  13.626  19.225  0.00  0.00    +0.000 C 
ENDBRANCH  19  21
ENDBRANCH  17  19
ENDBRANCH   1  17
BRANCH  14  22
ATOM     22  O   UNL     1       1.855   8.158  18.968  0.00  0.00    +0.000 OA
BRANCH  22  23
ATOM     23  C   UNL     1       2.775   7.201  19.512  0.00  0.00    +0.000 C 
BRANCH  23  24
ATOM     24  C   UNL     1       2.184   5.820  19.383  0.00  0.00    +0.000 A 
ATOM     25  C   UNL     1       2.116   5.168  18.145  0.00  0.00    +0.000 A 
ATOM     26  C   UNL     1       1.520   3.907  18.040  0.00  0.00    +0.000 A 
ATOM     27  C   UNL     1       0.992   3.288  19.171  0.00  0.00    +0.000 A 
ATOM     28  C   UNL     1       1.068   3.919  20.410  0.00  0.00    +0.000 A 
ATOM     29  C   UNL     1       1.660   5.179  20.517  0.00  0.00    +0.000 A 
ENDBRANCH  23  24
ENDBRANCH  22  23
ENDBRANCH  14  22
TORSDOF 6
ENDMDL
MODEL 7
REMARK VINA RESULT:      -7.5      8.031      9.876
REMARK  Name = 
REMARK  7 active torsions:
REMARK  status: ('A' for Active; 'I' for Inactive)
REMARK    1  A    between atoms: C_1  and  C_2
REMARK    2  A    between atoms: C_2  and  O_3
REMARK    3  A    between atoms: O_3  and  C_4
REMARK    4  A    between atoms: C_4  and  C_6
REMARK    5  A    between atoms: C_19  and  O_21
REMARK    6  A    between atoms: O_21  and  C_22
REMARK    7  A    between atoms: C_22  and  C_23
REMARK                            x       y       z     vdW  Elec       q    Type
REMARK                         _______ _______ _______ _____ _____    ______ ____
ROOT
ATOM      1  C   UNL     1      -0.611  10.774  18.740  0.00  0.00    +0.000 C 
ATOM      2  C   UNL     1      -1.159  11.714  19.798  0.00  0.00    +0.000 A 
ATOM      3  N   UNL     1      -1.963  12.797  19.540  0.00  0.00    +0.000 N 
ATOM      4  C   UNL     1      -2.319  13.409  20.724  0.00  0.00    +0.000 A 
ATOM      5  C   UNL     1      -3.143  14.520  20.945  0.00  0.00    +0.000 A 
ATOM      6  C   UNL     1      -3.362  14.916  22.267  0.00  0.00    +0.000 A 
ATOM      7  C   UNL     1      -2.776  14.226  23.326  0.00  0.00    +0.000 A 
ATOM      8  C   UNL     1      -1.948  13.120  23.090  0.00  0.00    +0.000 A 
ATOM      9  C   UNL     1      -1.712  12.701  21.766  0.00  0.00    +0.000 A 
ATOM     10  C   UNL     1      -0.967  11.647  21.163  0.00  0.00    +0.000 A 
ATOM     11  C   UNL     1      -0.118  10.582  21.766  0.00  0.00    +0.000 C 
ATOM     12  C   UNL     1      -0.012   9.392  20.791  0.00  0.00    +0.000 C 
ATOM     13  N   UNL     1       0.292   9.812  19.412  0.00  0.00    +0.000 N 
ATOM     14  C   UNL     1       1.292   9.246  18.645  0.00  0.00    +0.000 C 
ATOM     15  O   UNL     1       1.524   9.590  17.497  0.00  0.00    +0.000 OA
ATOM     16  H   UNL     1      -2.306  13.070  18.630  0.00  0.00    +0.000 HD
ENDROOT
BRANCH   1  17
ATOM     17  C   UNL     1      -1.774  10.136  17.928  0.00  0.00    +0.000 C 
ATOM     18  O   UNL     1      -2.672   9.475  18.457  0.00  0.00    +0.000 OA
BRANCH  17  19
ATOM     19  O   UNL     1      -1.628  10.310  16.585  0.00  0.00    +0.000 OA
BRANCH  19  21
ATOM     20  C   UNL     1      -3.058  10.128  14.679  0.00  0.00    +0.000 C 
ATOM     21  C   UNL     1      -2.763  10.909  15.946  0.00  0.00    +0.000 C 
ENDBRANCH  19  21
ENDBRANCH  17  19
ENDBRANCH   1  17
BRANCH  14  22
ATOM     22  O   UNL     1       1.979   8.270  19.303  0.00  0.00    +0.000 OA
BRANCH  22  23
ATOM     23  C   UNL     1       2.603   7.291  18.461  0.00  0.00    +0.000 C 
BRANCH  23  24
ATOM     24  C   UNL     1       2.139   5.917  18.873  0.00  0.00    +0.000 A 
ATOM     25  C   UNL     1       1.931   4.903  17.930  0.00  0.00    +0.000 A 
ATOM     26  C   UNL     1       1.454   3.651  18.329  0.00  0.00    +0.000 A 
ATOM     27  C   UNL     1       1.187   3.401  19.674  0.00  0.00    +0.000 A 
ATOM     28  C   UNL     1       1.404   4.397  20.622  0.00  0.00    +0.000 A 
ATOM     29  C   UNL     1       1.877   5.649  20.227  0.00  0.00    +0.000 A 
ENDBRANCH  23  24
ENDBRANCH  22  23
ENDBRANCH  14  22
TORSDOF 6
ENDMDL
MODEL 8
REMARK VINA RESULT:      -7.5      2.279      6.751
REMARK  Name = 
REMARK  7 active torsions:
REMARK  status: ('A' for Active; 'I' for Inactive)
REMARK    1  A    between atoms: C_1  and  C_2
REMARK    2  A    between atoms: C_2  and  O_3
REMARK    3  A    between atoms: O_3  and  C_4
REMARK    4  A    between atoms: C_4  and  C_6
REMARK    5  A    between atoms: C_19  and  O_21
REMARK    6  A    between atoms: O_21  and  C_22
REMARK    7  A    between atoms: C_22  and  C_23
REMARK                            x       y       z     vdW  Elec       q    Type
REMARK                         _______ _______ _______ _____ _____    ______ ____
ROOT
ATOM      1  C   UNL     1       6.146   6.332  16.845  0.00  0.00    +0.000 C 
ATOM      2  C   UNL     1       5.224   5.333  17.521  0.00  0.00    +0.000 A 
ATOM      3  N   UNL     1       4.123   4.761  16.932  0.00  0.00    +0.000 N 
ATOM      4  C   UNL     1       3.536   3.868  17.804  0.00  0.00    +0.000 A 
ATOM      5  C   UNL     1       2.420   3.042  17.621  0.00  0.00    +0.000 A 
ATOM      6  C   UNL     1       2.053   2.199  18.674  0.00  0.00    +0.000 A 
ATOM      7  C   UNL     1       2.779   2.187  19.864  0.00  0.00    +0.000 A 
ATOM      8  C   UNL     1       3.890   3.023  20.035  0.00  0.00    +0.000 A 
ATOM      9  C   UNL     1       4.279   3.882  18.988  0.00  0.00    +0.000 A 
ATOM     10  C   UNL     1       5.328   4.827  18.801  0.00  0.00    +0.000 A 
ATOM     11  C   UNL     1       6.419   5.268  19.714  0.00  0.00    +0.000 C 
ATOM     12  C   UNL     1       7.587   5.841  18.883  0.00  0.00    +0.000 C 
ATOM     13  N   UNL     1       7.136   6.786  17.847  0.00  0.00    +0.000 N 
ATOM     14  C   UNL     1       7.697   8.034  17.657  0.00  0.00    +0.000 C 
ATOM     15  O   UNL     1       7.328   8.802  16.783  0.00  0.00    +0.000 OA
ATOM     16  H   UNL     1       3.823   4.912  15.979  0.00  0.00    +0.000 HD
ENDROOT
BRANCH   1  17
ATOM     17  C   UNL     1       6.746   5.721  15.547  0.00  0.00    +0.000 C 
ATOM     18  O   UNL     1       7.931   5.861  15.231  0.00  0.00    +0.000 OA
BRANCH  17  19
ATOM     19  O   UNL     1       5.804   5.114  14.773  0.00  0.00    +0.000 OA
BRANCH  19  21
ATOM     20  C   UNL     1       5.784   3.762  12.802  0.00  0.00    +0.000 C 
ATOM     21  C   UNL     1       6.205   3.837  14.257  0.00  0.00    +0.000 C 
ENDBRANCH  19  21
ENDBRANCH  17  19
ENDBRANCH   1  17
BRANCH  14  22
ATOM     22  O   UNL     1       8.699   8.306  18.539  0.00  0.00    +0.000 OA
BRANCH  22  23
ATOM     23  C   UNL     1       8.481   9.453  19.374  0.00  0.00    +0.000 C 
BRANCH  23  24
ATOM     24  C   UNL     1       9.606  10.435  19.169  0.00  0.00    +0.000 A 
ATOM     25  C   UNL     1      10.319  10.965  20.251  0.00  0.00    +0.000 A 
ATOM     26  C   UNL     1      11.327  11.911  20.041  0.00  0.00    +0.000 A 
ATOM     27  C   UNL     1      11.633  12.330  18.747  0.00  0.00    +0.000 A 
ATOM     28  C   UNL     1      10.941  11.798  17.662  0.00  0.00    +0.000 A 
ATOM     29  C   UNL     1       9.932  10.856  17.869  0.00  0.00    +0.000 A 
ENDBRANCH  23  24
ENDBRANCH  22  23
ENDBRANCH  14  22
TORSDOF 6
ENDMDL
MODEL 9
REMARK VINA RESULT:      -7.4      7.698      9.438
REMARK  Name = 
REMARK  7 active torsions:
REMARK  status: ('A' for Active; 'I' for Inactive)
REMARK    1  A    between atoms: C_1  and  C_2
REMARK    2  A    between atoms: C_2  and  O_3
REMARK    3  A    between atoms: O_3  and  C_4
REMARK    4  A    between atoms: C_4  and  C_6
REMARK    5  A    between atoms: C_19  and  O_21
REMARK    6  A    between atoms: O_21  and  C_22
REMARK    7  A    between atoms: C_22  and  C_23
REMARK                            x       y       z     vdW  Elec       q    Type
REMARK                         _______ _______ _______ _____ _____    ______ ____
ROOT
ATOM      1  C   UNL     1      -0.334  10.796  20.186  0.00  0.00    +0.000 C 
ATOM      2  C   UNL     1      -1.680  11.163  19.590  0.00  0.00    +0.000 A 
ATOM      3  N   UNL     1      -2.601  11.988  20.188  0.00  0.00    +0.000 N 
ATOM      4  C   UNL     1      -3.694  12.148  19.361  0.00  0.00    +0.000 A 
ATOM      5  C   UNL     1      -4.849  12.918  19.545  0.00  0.00    +0.000 A 
ATOM      6  C   UNL     1      -5.798  12.923  18.519  0.00  0.00    +0.000 A 
ATOM      7  C   UNL     1      -5.596  12.184  17.355  0.00  0.00    +0.000 A 
ATOM      8  C   UNL     1      -4.438  11.413  17.188  0.00  0.00    +0.000 A 
ATOM      9  C   UNL     1      -3.466  11.391  18.208  0.00  0.00    +0.000 A 
ATOM     10  C   UNL     1      -2.201  10.759  18.377  0.00  0.00    +0.000 A 
ATOM     11  C   UNL     1      -1.444   9.835  17.488  0.00  0.00    +0.000 C 
ATOM     12  C   UNL     1       0.057   9.895  17.839  0.00  0.00    +0.000 C 
ATOM     13  N   UNL     1       0.305   9.807  19.289  0.00  0.00    +0.000 N 
ATOM     14  C   UNL     1       1.224   8.944  19.855  0.00  0.00    +0.000 C 
ATOM     15  O   UNL     1       1.435   8.892  21.056  0.00  0.00    +0.000 OA
ATOM     16  H   UNL     1      -2.475  12.467  21.069  0.00  0.00    +0.000 HD
ENDROOT
BRANCH   1  17
ATOM     17  C   UNL     1       0.503  12.077  20.465  0.00  0.00    +0.000 C 
ATOM     18  O   UNL     1       1.273  12.174  21.424  0.00  0.00    +0.000 OA
BRANCH  17  19
ATOM     19  O   UNL     1       0.211  13.088  19.599  0.00  0.00    +0.000 OA
BRANCH  19  21
ATOM     20  C   UNL     1       1.615  14.842  18.786  0.00  0.00    +0.000 C 
ATOM     21  C   UNL     1       1.259  13.373  18.661  0.00  0.00    +0.000 C 
ENDBRANCH  19  21
ENDBRANCH  17  19
ENDBRANCH   1  17
BRANCH  14  22
ATOM     22  O   UNL     1       1.866   8.172  18.934  0.00  0.00    +0.000 OA
BRANCH  22  23
ATOM     23  C   UNL     1       2.762   7.192  19.477  0.00  0.00    +0.000 C 
BRANCH  23  24
ATOM     24  C   UNL     1       2.132   5.827  19.359  0.00  0.00    +0.000 A 
ATOM     25  C   UNL     1       1.607   5.166  20.476  0.00  0.00    +0.000 A 
ATOM     26  C   UNL     1       1.071   3.881  20.352  0.00  0.00    +0.000 A 
ATOM     27  C   UNL     1       1.052   3.249  19.110  0.00  0.00    +0.000 A 
ATOM     28  C   UNL     1       1.557   3.903  17.989  0.00  0.00    +0.000 A 
ATOM     29  C   UNL     1       2.095   5.185  18.110  0.00  0.00    +0.000 A 
ENDBRANCH  23  24
ENDBRANCH  22  23
ENDBRANCH  14  22
TORSDOF 6
ENDMDL
