MODEL 1
REMARK VINA RESULT:      -7.0      0.000      0.000
REMARK  Name = 
REMARK  5 active torsions:
REMARK  status: ('A' for Active; 'I' for Inactive)
REMARK    1  A    between atoms: C_1  and  C_2
REMARK    2  A    between atoms: C_5  and  C_6
REMARK    3  A    between atoms: C_6  and  O_8
REMARK    4  A    between atoms: C_9  and  C_10
REMARK    5  A    between atoms: C_9  and  C_11
REMARK                            x       y       z     vdW  Elec       q    Type
REMARK                         _______ _______ _______ _____ _____    ______ ____
ROOT
ATOM      1  C   UNL     1       7.775   4.381  17.495  0.00  0.00    +0.000 C 
ATOM      2  C   UNL     1       6.512   5.129  17.051  0.00  0.00    +0.000 C 
ATOM      3  C   UNL     1       5.770   4.361  15.955  0.00  0.00    +0.000 C 
ATOM      4  C   UNL     1       4.398   3.886  16.265  0.00  0.00    +0.000 C 
ATOM      5  C   UNL     1       3.701   4.144  17.387  0.00  0.00    +0.000 C 
ATOM      6  C   UNL     1       4.259   4.997  18.524  0.00  0.00    +0.000 C 
ATOM      7  C   UNL     1       4.383   4.061  19.756  0.00  0.00    +0.000 C 
ATOM      8  C   UNL     1       5.699   5.582  18.274  0.00  0.00    +0.000 C 
ENDROOT
BRANCH   6   9
ATOM      9  C   UNL     1       3.359   6.236  18.759  0.00  0.00    +0.000 A 
ATOM     10  C   UNL     1       3.275   7.221  17.748  0.00  0.00    +0.000 A 
ATOM     11  C   UNL     1       2.481   8.359  17.900  0.00  0.00    +0.000 A 
ATOM     12  C   UNL     1       1.735   8.528  19.061  0.00  0.00    +0.000 A 
ATOM     13  C   UNL     1       1.802   7.565  20.060  0.00  0.00    +0.000 A 
ATOM     14  F   UNL     1       1.067   7.719  21.170  0.00  0.00    +0.000 F 
ATOM     15  C   UNL     1       2.608   6.435  19.929  0.00  0.00    +0.000 A 
ENDBRANCH   6   9
BRANCH   5  16
ATOM     16  C   UNL     1       2.391   3.423  17.450  0.00  0.00    +0.000 C 
ATOM     17  O   UNL     1       1.311   4.000  17.391  0.00  0.00    +0.000 OA
BRANCH  16  18
ATOM     18  O   UNL     1       2.434   2.083  17.561  0.00  0.00    +0.000 OA
ATOM     19  H   UNL     1       2.858   1.735  18.363  0.00  0.00    +0.000 HD
ENDBRANCH  16  18
ENDBRANCH   5  16
TORSDOF 3
ENDMDL
MODEL 2
REMARK VINA RESULT:      -7.0      2.786      4.132
REMARK  Name = 
REMARK  5 active torsions:
REMARK  status: ('A' for Active; 'I' for Inactive)
REMARK    1  A    between atoms: C_1  and  C_2
REMARK    2  A    between atoms: C_5  and  C_6
REMARK    3  A    between atoms: C_6  and  O_8
REMARK    4  A    between atoms: C_9  and  C_10
REMARK    5  A    between atoms: C_9  and  C_11
REMARK                            x       y       z     vdW  Elec       q    Type
REMARK                         _______ _______ _______ _____ _____    ______ ____
ROOT
ATOM      1  C   UNL     1       5.609   4.882  13.985  0.00  0.00    +0.000 C 
ATOM      2  C   UNL     1       5.644   4.102  15.305  0.00  0.00    +0.000 C 
ATOM      3  C   UNL     1       7.081   3.895  15.788  0.00  0.00    +0.000 C 
ATOM      4  C   UNL     1       7.460   4.513  17.084  0.00  0.00    +0.000 C 
ATOM      5  C   UNL     1       6.637   5.164  17.926  0.00  0.00    +0.000 C 
ATOM      6  C   UNL     1       5.149   5.350  17.642  0.00  0.00    +0.000 C 
ATOM      7  C   UNL     1       4.918   6.877  17.487  0.00  0.00    +0.000 C 
ATOM      8  C   UNL     1       4.638   4.694  16.305  0.00  0.00    +0.000 C 
ENDROOT
BRANCH   6   9
ATOM      9  C   UNL     1       4.301   4.692  18.760  0.00  0.00    +0.000 A 
ATOM     10  C   UNL     1       4.505   3.325  19.057  0.00  0.00    +0.000 A 
ATOM     11  C   UNL     1       3.774   2.677  20.053  0.00  0.00    +0.000 A 
ATOM     12  C   UNL     1       2.833   3.387  20.790  0.00  0.00    +0.000 A 
ATOM     13  C   UNL     1       2.627   4.732  20.515  0.00  0.00    +0.000 A 
ATOM     14  F   UNL     1       1.735   5.422  21.239  0.00  0.00    +0.000 F 
ATOM     15  C   UNL     1       3.337   5.386  19.507  0.00  0.00    +0.000 A 
ENDBRANCH   6   9
BRANCH   5  16
ATOM     16  C   UNL     1       7.347   5.776  19.093  0.00  0.00    +0.000 C 
ATOM     17  O   UNL     1       7.249   5.339  20.234  0.00  0.00    +0.000 OA
BRANCH  16  18
ATOM     18  O   UNL     1       8.129   6.842  18.844  0.00  0.00    +0.000 OA
ATOM     19  H   UNL     1       8.690   6.785  18.053  0.00  0.00    +0.000 HD
ENDBRANCH  16  18
ENDBRANCH   5  16
TORSDOF 3
ENDMDL
MODEL 3
REMARK VINA RESULT:      -7.0      3.100      5.239
REMARK  Name = 
REMARK  5 active torsions:
REMARK  status: ('A' for Active; 'I' for Inactive)
REMARK    1  A    between atoms: C_1  and  C_2
REMARK    2  A    between atoms: C_5  and  C_6
REMARK    3  A    between atoms: C_6  and  O_8
REMARK    4  A    between atoms: C_9  and  C_10
REMARK    5  A    between atoms: C_9  and  C_11
REMARK                            x       y       z     vdW  Elec       q    Type
REMARK                         _______ _______ _______ _____ _____    ______ ____
ROOT
ATOM      1  C   UNL     1       1.846   1.775  19.476  0.00  0.00    +0.000 C 
ATOM      2  C   UNL     1       2.183   2.508  18.173  0.00  0.00    +0.000 C 
ATOM      3  C   UNL     1       1.200   3.651  17.910  0.00  0.00    +0.000 C 
ATOM      4  C   UNL     1       1.751   5.030  17.877  0.00  0.00    +0.000 C 
ATOM      5  C   UNL     1       3.050   5.370  17.964  0.00  0.00    +0.000 C 
ATOM      6  C   UNL     1       4.163   4.335  18.108  0.00  0.00    +0.000 C 
ATOM      7  C   UNL     1       4.817   4.583  19.495  0.00  0.00    +0.000 C 
ATOM      8  C   UNL     1       3.684   2.836  18.114  0.00  0.00    +0.000 C 
ENDROOT
BRANCH   6   9
ATOM      9  C   UNL     1       5.149   4.435  16.917  0.00  0.00    +0.000 A 
ATOM     10  C   UNL     1       6.498   4.773  17.172  0.00  0.00    +0.000 A 
ATOM     11  C   UNL     1       7.433   4.877  16.142  0.00  0.00    +0.000 A 
ATOM     12  C   UNL     1       7.044   4.625  14.831  0.00  0.00    +0.000 A 
ATOM     13  C   UNL     1       5.725   4.284  14.566  0.00  0.00    +0.000 A 
ATOM     14  F   UNL     1       5.355   4.021  13.305  0.00  0.00    +0.000 F 
ATOM     15  C   UNL     1       4.776   4.198  15.584  0.00  0.00    +0.000 A 
ENDBRANCH   6   9
BRANCH   5  16
ATOM     16  C   UNL     1       3.273   6.849  18.020  0.00  0.00    +0.000 C 
ATOM     17  O   UNL     1       4.008   7.440  17.239  0.00  0.00    +0.000 OA
BRANCH  16  18
ATOM     18  O   UNL     1       2.612   7.532  18.973  0.00  0.00    +0.000 OA
ATOM     19  H   UNL     1       1.645   7.571  18.877  0.00  0.00    +0.000 HD
ENDBRANCH  16  18
ENDBRANCH   5  16
TORSDOF 3
ENDMDL
MODEL 4
REMARK VINA RESULT:      -6.9      1.039      1.537
REMARK  Name = 
REMARK  5 active torsions:
REMARK  status: ('A' for Active; 'I' for Inactive)
REMARK    1  A    between atoms: C_1  and  C_2
REMARK    2  A    between atoms: C_5  and  C_6
REMARK    3  A    between atoms: C_6  and  O_8
REMARK    4  A    between atoms: C_9  and  C_10
REMARK    5  A    between atoms: C_9  and  C_11
REMARK                            x       y       z     vdW  Elec       q    Type
REMARK                         _______ _______ _______ _____ _____    ______ ____
ROOT
ATOM      1  C   UNL     1       7.753   4.418  17.699  0.00  0.00    +0.000 C 
ATOM      2  C   UNL     1       6.500   5.163  17.225  0.00  0.00    +0.000 C 
ATOM      3  C   UNL     1       5.807   4.414  16.086  0.00  0.00    +0.000 C 
ATOM      4  C   UNL     1       4.428   3.919  16.334  0.00  0.00    +0.000 C 
ATOM      5  C   UNL     1       3.689   4.145  17.435  0.00  0.00    +0.000 C 
ATOM      6  C   UNL     1       4.195   4.978  18.610  0.00  0.00    +0.000 C 
ATOM      7  C   UNL     1       4.284   4.015  19.825  0.00  0.00    +0.000 C 
ATOM      8  C   UNL     1       5.637   5.582  18.427  0.00  0.00    +0.000 C 
ENDROOT
BRANCH   6   9
ATOM      9  C   UNL     1       3.275   6.203  18.839  0.00  0.00    +0.000 A 
ATOM     10  C   UNL     1       2.582   6.317  20.067  0.00  0.00    +0.000 A 
ATOM     11  C   UNL     1       1.740   7.398  20.332  0.00  0.00    +0.000 A 
ATOM     12  C   UNL     1       1.587   8.402  19.383  0.00  0.00    +0.000 A 
ATOM     13  C   UNL     1       2.267   8.307  18.176  0.00  0.00    +0.000 A 
ATOM     14  F   UNL     1       2.135   9.285  17.270  0.00  0.00    +0.000 F 
ATOM     15  C   UNL     1       3.095   7.222  17.890  0.00  0.00    +0.000 A 
ENDBRANCH   6   9
BRANCH   5  16
ATOM     16  C   UNL     1       2.384   3.411  17.433  0.00  0.00    +0.000 C 
ATOM     17  O   UNL     1       1.303   3.976  17.311  0.00  0.00    +0.000 OA
BRANCH  16  18
ATOM     18  O   UNL     1       2.435   2.073  17.559  0.00  0.00    +0.000 OA
ATOM     19  H   UNL     1       3.136   1.724  18.136  0.00  0.00    +0.000 HD
ENDBRANCH  16  18
ENDBRANCH   5  16
TORSDOF 3
ENDMDL
MODEL 5
REMARK VINA RESULT:      -6.9      2.384      4.816
REMARK  Name = 
REMARK  5 active torsions:
REMARK  status: ('A' for Active; 'I' for Inactive)
REMARK    1  A    between atoms: C_1  and  C_2
REMARK    2  A    between atoms: C_5  and  C_6
REMARK    3  A    between atoms: C_6  and  O_8
REMARK    4  A    between atoms: C_9  and  C_10
REMARK    5  A    between atoms: C_9  and  C_11
REMARK                            x       y       z     vdW  Elec       q    Type
REMARK                         _______ _______ _______ _____ _____    ______ ____
ROOT
ATOM      1  C   UNL     1       1.160   6.796  20.762  0.00  0.00    +0.000 C 
ATOM      2  C   UNL     1       2.457   5.989  20.635  0.00  0.00    +0.000 C 
ATOM      3  C   UNL     1       2.363   4.666  21.398  0.00  0.00    +0.000 C 
ATOM      4  C   UNL     1       2.462   3.414  20.606  0.00  0.00    +0.000 C 
ATOM      5  C   UNL     1       2.719   3.323  19.289  0.00  0.00    +0.000 C 
ATOM      6  C   UNL     1       2.956   4.549  18.411  0.00  0.00    +0.000 C 
ATOM      7  C   UNL     1       1.794   4.585  17.382  0.00  0.00    +0.000 C 
ATOM      8  C   UNL     1       2.910   5.930  19.167  0.00  0.00    +0.000 C 
ENDROOT
BRANCH   6   9
ATOM      9  C   UNL     1       4.366   4.490  17.772  0.00  0.00    +0.000 A 
ATOM     10  C   UNL     1       4.482   4.162  16.401  0.00  0.00    +0.000 A 
ATOM     11  C   UNL     1       5.723   4.094  15.768  0.00  0.00    +0.000 A 
ATOM     12  C   UNL     1       6.879   4.372  16.489  0.00  0.00    +0.000 A 
ATOM     13  C   UNL     1       6.781   4.703  17.833  0.00  0.00    +0.000 A 
ATOM     14  F   UNL     1       7.894   4.991  18.522  0.00  0.00    +0.000 F 
ATOM     15  C   UNL     1       5.548   4.753  18.482  0.00  0.00    +0.000 A 
ENDBRANCH   6   9
BRANCH   5  16
ATOM     16  C   UNL     1       2.634   1.924  18.764  0.00  0.00    +0.000 C 
ATOM     17  O   UNL     1       3.623   1.267  18.461  0.00  0.00    +0.000 OA
BRANCH  16  18
ATOM     18  O   UNL     1       1.406   1.389  18.642  0.00  0.00    +0.000 OA
ATOM     19  H   UNL     1       0.946   1.560  17.804  0.00  0.00    +0.000 HD
ENDBRANCH  16  18
ENDBRANCH   5  16
TORSDOF 3
ENDMDL
MODEL 6
REMARK VINA RESULT:      -6.9      2.639      5.012
REMARK  Name = 
REMARK  5 active torsions:
REMARK  status: ('A' for Active; 'I' for Inactive)
REMARK    1  A    between atoms: C_1  and  C_2
REMARK    2  A    between atoms: C_5  and  C_6
REMARK    3  A    between atoms: C_6  and  O_8
REMARK    4  A    between atoms: C_9  and  C_10
REMARK    5  A    between atoms: C_9  and  C_11
REMARK                            x       y       z     vdW  Elec       q    Type
REMARK                         _______ _______ _______ _____ _____    ______ ____
ROOT
ATOM      1  C   UNL     1       1.090   6.706  20.822  0.00  0.00    +0.000 C 
ATOM      2  C   UNL     1       2.397   5.916  20.691  0.00  0.00    +0.000 C 
ATOM      3  C   UNL     1       2.311   4.577  21.425  0.00  0.00    +0.000 C 
ATOM      4  C   UNL     1       2.433   3.343  20.607  0.00  0.00    +0.000 C 
ATOM      5  C   UNL     1       2.705   3.284  19.291  0.00  0.00    +0.000 C 
ATOM      6  C   UNL     1       2.937   4.531  18.442  0.00  0.00    +0.000 C 
ATOM      7  C   UNL     1       1.785   4.576  17.402  0.00  0.00    +0.000 C 
ATOM      8  C   UNL     1       2.867   5.894  19.227  0.00  0.00    +0.000 C 
ENDROOT
BRANCH   6   9
ATOM      9  C   UNL     1       4.354   4.502  17.817  0.00  0.00    +0.000 A 
ATOM     10  C   UNL     1       5.457   4.909  18.604  0.00  0.00    +0.000 A 
ATOM     11  C   UNL     1       6.757   4.904  18.098  0.00  0.00    +0.000 A 
ATOM     12  C   UNL     1       6.988   4.470  16.797  0.00  0.00    +0.000 A 
ATOM     13  C   UNL     1       5.917   4.060  16.015  0.00  0.00    +0.000 A 
ATOM     14  F   UNL     1       6.142   3.623  14.769  0.00  0.00    +0.000 F 
ATOM     15  C   UNL     1       4.610   4.081  16.502  0.00  0.00    +0.000 A 
ENDBRANCH   6   9
BRANCH   5  16
ATOM     16  C   UNL     1       2.642   1.896  18.735  0.00  0.00    +0.000 C 
ATOM     17  O   UNL     1       3.643   1.232  18.490  0.00  0.00    +0.000 OA
BRANCH  16  18
ATOM     18  O   UNL     1       1.419   1.378  18.517  0.00  0.00    +0.000 OA
ATOM     19  H   UNL     1       0.829   1.900  17.949  0.00  0.00    +0.000 HD
ENDBRANCH  16  18
ENDBRANCH   5  16
TORSDOF 3
ENDMDL
MODEL 7
REMARK VINA RESULT:      -6.8      3.011      4.151
REMARK  Name = 
REMARK  5 active torsions:
REMARK  status: ('A' for Active; 'I' for Inactive)
REMARK    1  A    between atoms: C_1  and  C_2
REMARK    2  A    between atoms: C_5  and  C_6
REMARK    3  A    between atoms: C_6  and  O_8
REMARK    4  A    between atoms: C_9  and  C_10
REMARK    5  A    between atoms: C_9  and  C_11
REMARK                            x       y       z     vdW  Elec       q    Type
REMARK                         _______ _______ _______ _____ _____    ______ ____
ROOT
ATOM      1  C   UNL     1       5.642   4.813  13.959  0.00  0.00    +0.000 C 
ATOM      2  C   UNL     1       5.568   4.131  15.330  0.00  0.00    +0.000 C 
ATOM      3  C   UNL     1       6.964   3.806  15.863  0.00  0.00    +0.000 C 
ATOM      4  C   UNL     1       7.387   4.472  17.121  0.00  0.00    +0.000 C 
ATOM      5  C   UNL     1       6.626   5.268  17.894  0.00  0.00    +0.000 C 
ATOM      6  C   UNL     1       5.172   5.592  17.560  0.00  0.00    +0.000 C 
ATOM      7  C   UNL     1       5.113   7.120  17.292  0.00  0.00    +0.000 C 
ATOM      8  C   UNL     1       4.616   4.900  16.261  0.00  0.00    +0.000 C 
ENDROOT
BRANCH   6   9
ATOM      9  C   UNL     1       4.238   5.113  18.700  0.00  0.00    +0.000 A 
ATOM     10  C   UNL     1       3.270   6.008  19.212  0.00  0.00    +0.000 A 
ATOM     11  C   UNL     1       2.399   5.634  20.236  0.00  0.00    +0.000 A 
ATOM     12  C   UNL     1       2.463   4.348  20.760  0.00  0.00    +0.000 A 
ATOM     13  C   UNL     1       3.404   3.456  20.262  0.00  0.00    +0.000 A 
ATOM     14  F   UNL     1       3.452   2.211  20.754  0.00  0.00    +0.000 F 
ATOM     15  C   UNL     1       4.294   3.824  19.253  0.00  0.00    +0.000 A 
ENDBRANCH   6   9
BRANCH   5  16
ATOM     16  C   UNL     1       7.378   5.883  19.033  0.00  0.00    +0.000 C 
ATOM     17  O   UNL     1       7.334   5.440  20.175  0.00  0.00    +0.000 OA
BRANCH  16  18
ATOM     18  O   UNL     1       8.137   6.959  18.755  0.00  0.00    +0.000 OA
ATOM     19  H   UNL     1       8.366   7.526  19.511  0.00  0.00    +0.000 HD
ENDBRANCH  16  18
ENDBRANCH   5  16
TORSDOF 3
ENDMDL
MODEL 8
REMARK VINA RESULT:      -6.6      3.070      4.318
REMARK  Name = 
REMARK  5 active torsions:
REMARK  status: ('A' for Active; 'I' for Inactive)
REMARK    1  A    between atoms: C_1  and  C_2
REMARK    2  A    between atoms: C_5  and  C_6
REMARK    3  A    between atoms: C_6  and  O_8
REMARK    4  A    between atoms: C_9  and  C_10
REMARK    5  A    between atoms: C_9  and  C_11
REMARK                            x       y       z     vdW  Elec       q    Type
REMARK                         _______ _______ _______ _____ _____    ______ ____
ROOT
ATOM      1  C   UNL     1       6.771   5.285  13.924  0.00  0.00    +0.000 C 
ATOM      2  C   UNL     1       6.381   4.289  15.022  0.00  0.00    +0.000 C 
ATOM      3  C   UNL     1       7.499   4.137  16.055  0.00  0.00    +0.000 C 
ATOM      4  C   UNL     1       7.200   4.548  17.450  0.00  0.00    +0.000 C 
ATOM      5  C   UNL     1       6.008   4.958  17.921  0.00  0.00    +0.000 C 
ATOM      6  C   UNL     1       4.764   5.049  17.041  0.00  0.00    +0.000 C 
ATOM      7  C   UNL     1       4.374   6.550  16.985  0.00  0.00    +0.000 C 
ATOM      8  C   UNL     1       4.969   4.596  15.547  0.00  0.00    +0.000 C 
ENDROOT
BRANCH   6   9
ATOM      9  C   UNL     1       3.648   4.125  17.590  0.00  0.00    +0.000 A 
ATOM     10  C   UNL     1       2.340   4.644  17.733  0.00  0.00    +0.000 A 
ATOM     11  C   UNL     1       1.293   3.861  18.220  0.00  0.00    +0.000 A 
ATOM     12  C   UNL     1       1.525   2.532  18.557  0.00  0.00    +0.000 A 
ATOM     13  C   UNL     1       2.802   2.006  18.414  0.00  0.00    +0.000 A 
ATOM     14  F   UNL     1       3.020   0.720  18.719  0.00  0.00    +0.000 F 
ATOM     15  C   UNL     1       3.862   2.784  17.949  0.00  0.00    +0.000 A 
ENDBRANCH   6   9
BRANCH   5  16
ATOM     16  C   UNL     1       6.059   5.417  19.344  0.00  0.00    +0.000 C 
ATOM     17  O   UNL     1       7.110   5.588  19.951  0.00  0.00    +0.000 OA
BRANCH  16  18
ATOM     18  O   UNL     1       4.883   5.656  19.953  0.00  0.00    +0.000 OA
ATOM     19  H   UNL     1       4.756   6.555  20.298  0.00  0.00    +0.000 HD
ENDBRANCH  16  18
ENDBRANCH   5  16
TORSDOF 3
ENDMDL
MODEL 9
REMARK VINA RESULT:      -6.5      2.613      4.133
REMARK  Name = 
REMARK  5 active torsions:
REMARK  status: ('A' for Active; 'I' for Inactive)
REMARK    1  A    between atoms: C_1  and  C_2
REMARK    2  A    between atoms: C_5  and  C_6
REMARK    3  A    between atoms: C_6  and  O_8
REMARK    4  A    between atoms: C_9  and  C_10
REMARK    5  A    between atoms: C_9  and  C_11
REMARK                            x       y       z     vdW  Elec       q    Type
REMARK                         _______ _______ _______ _____ _____    ______ ____
ROOT
ATOM      1  C   UNL     1       6.258   5.113  13.895  0.00  0.00    +0.000 C 
ATOM      2  C   UNL     1       6.022   4.131  15.049  0.00  0.00    +0.000 C 
ATOM      3  C   UNL     1       7.239   4.060  15.973  0.00  0.00    +0.000 C 
ATOM      4  C   UNL     1       7.054   4.496  17.380  0.00  0.00    +0.000 C 
ATOM      5  C   UNL     1       5.893   4.863  17.953  0.00  0.00    +0.000 C 
ATOM      6  C   UNL     1       4.568   4.871  17.195  0.00  0.00    +0.000 C 
ATOM      7  C   UNL     1       4.101   6.350  17.141  0.00  0.00    +0.000 C 
ATOM      8  C   UNL     1       4.653   4.386  15.700  0.00  0.00    +0.000 C 
ENDROOT
BRANCH   6   9
ATOM      9  C   UNL     1       3.556   3.912  17.869  0.00  0.00    +0.000 A 
ATOM     10  C   UNL     1       3.802   2.520  17.831  0.00  0.00    +0.000 A 
ATOM     11  C   UNL     1       2.928   1.606  18.421  0.00  0.00    +0.000 A 
ATOM     12  C   UNL     1       1.795   2.065  19.083  0.00  0.00    +0.000 A 
ATOM     13  C   UNL     1       1.543   3.429  19.135  0.00  0.00    +0.000 A 
ATOM     14  F   UNL     1       0.462   3.873  19.790  0.00  0.00    +0.000 F 
ATOM     15  C   UNL     1       2.398   4.351  18.531  0.00  0.00    +0.000 A 
ENDBRANCH   6   9
BRANCH   5  16
ATOM     16  C   UNL     1       6.056   5.363  19.354  0.00  0.00    +0.000 C 
ATOM     17  O   UNL     1       7.148   5.468  19.900  0.00  0.00    +0.000 OA
BRANCH  16  18
ATOM     18  O   UNL     1       4.937   5.718  20.011  0.00  0.00    +0.000 OA
ATOM     19  H   UNL     1       4.876   6.651  20.278  0.00  0.00    +0.000 HD
ENDBRANCH  16  18
ENDBRANCH   5  16
TORSDOF 3
ENDMDL
