MODEL 1
REMARK VINA RESULT:      -7.5      0.000      0.000
REMARK  Name = 
REMARK  4 active torsions:
REMARK  status: ('A' for Active; 'I' for Inactive)
REMARK    1  A    between atoms: C_1  and  O_2
REMARK    2  A    between atoms: O_2  and  C_3
REMARK    3  A    between atoms: C_6  and  C_7
REMARK    4  A    between atoms: C_8  and  C_9
REMARK                            x       y       z     vdW  Elec       q    Type
REMARK                         _______ _______ _______ _____ _____    ______ ____
ROOT
ATOM      1  C   UNL     1       3.368   6.061  18.882  0.00  0.00    +0.000 A 
ATOM      2  C   UNL     1       2.851   5.443  19.960  0.00  0.00    +0.000 A 
ATOM      3  C   UNL     1       3.066   4.026  20.376  0.00  0.00    +0.000 C 
ATOM      4  N   UNL     1       2.017   6.275  20.709  0.00  0.00    +0.000 N 
ATOM      5  N   UNL     1       1.912   7.473  19.973  0.00  0.00    +0.000 N 
ATOM      6  C   UNL     1       1.194   8.594  20.424  0.00  0.00    +0.000 A 
ATOM      7  C   UNL     1       0.707   8.645  21.729  0.00  0.00    +0.000 A 
ATOM      8  C   UNL     1       0.045   9.795  22.166  0.00  0.00    +0.000 A 
ATOM      9  C   UNL     1      -0.137  10.855  21.288  0.00  0.00    +0.000 A 
ATOM     10  C   UNL     1       0.349  10.717  20.003  0.00  0.00    +0.000 A 
ATOM     11  N   UNL     1       1.002   9.622  19.568  0.00  0.00    +0.000 NA
ATOM     12  C   UNL     1       2.737   7.418  18.852  0.00  0.00    +0.000 A 
ATOM     13  O   UNL     1       2.979   8.246  17.990  0.00  0.00    +0.000 OA
ATOM     14  H   UNL     1       1.112   5.837  20.888  0.00  0.00    +0.000 HD
ENDROOT
BRANCH   1  18
ATOM     15  C   UNL     1       6.099   4.747  15.891  0.00  0.00    +0.000 A 
ATOM     16  C   UNL     1       4.849   4.137  16.019  0.00  0.00    +0.000 A 
ATOM     17  C   UNL     1       3.950   4.557  17.002  0.00  0.00    +0.000 A 
ATOM     18  C   UNL     1       4.305   5.583  17.880  0.00  0.00    +0.000 A 
ATOM     19  C   UNL     1       5.568   6.177  17.768  0.00  0.00    +0.000 A 
ATOM     20  C   UNL     1       6.462   5.762  16.776  0.00  0.00    +0.000 A 
BRANCH  15  22
ATOM     21  C   UNL     1       6.213   3.901  13.688  0.00  0.00    +0.000 C 
ATOM     22  O   UNL     1       6.889   4.251  14.890  0.00  0.00    +0.000 OA
ENDBRANCH  15  22
ENDBRANCH   1  18
TORSDOF 2
ENDMDL
MODEL 2
REMARK VINA RESULT:      -7.5      0.246      1.078
REMARK  Name = 
REMARK  4 active torsions:
REMARK  status: ('A' for Active; 'I' for Inactive)
REMARK    1  A    between atoms: C_1  and  O_2
REMARK    2  A    between atoms: O_2  and  C_3
REMARK    3  A    between atoms: C_6  and  C_7
REMARK    4  A    between atoms: C_8  and  C_9
REMARK                            x       y       z     vdW  Elec       q    Type
REMARK                         _______ _______ _______ _____ _____    ______ ____
ROOT
ATOM      1  C   UNL     1       3.184   6.156  18.952  0.00  0.00    +0.000 A 
ATOM      2  C   UNL     1       2.700   5.568  20.061  0.00  0.00    +0.000 A 
ATOM      3  C   UNL     1       2.909   4.157  20.499  0.00  0.00    +0.000 C 
ATOM      4  N   UNL     1       1.907   6.429  20.823  0.00  0.00    +0.000 N 
ATOM      5  N   UNL     1       1.792   7.613  20.066  0.00  0.00    +0.000 N 
ATOM      6  C   UNL     1       1.108   8.754  20.519  0.00  0.00    +0.000 A 
ATOM      7  C   UNL     1       0.672   8.840  21.840  0.00  0.00    +0.000 A 
ATOM      8  C   UNL     1       0.044  10.010  22.276  0.00  0.00    +0.000 A 
ATOM      9  C   UNL     1      -0.155  11.053  21.383  0.00  0.00    +0.000 A 
ATOM     10  C   UNL     1       0.279  10.881  20.084  0.00  0.00    +0.000 A 
ATOM     11  N   UNL     1       0.899   9.767  19.649  0.00  0.00    +0.000 NA
ATOM     12  C   UNL     1       2.573   7.522  18.915  0.00  0.00    +0.000 A 
ATOM     13  O   UNL     1       2.795   8.327  18.028  0.00  0.00    +0.000 OA
ATOM     14  H   UNL     1       1.004   6.010  21.045  0.00  0.00    +0.000 HD
ENDROOT
BRANCH   1  18
ATOM     15  C   UNL     1       5.820   4.569  16.008  0.00  0.00    +0.000 A 
ATOM     16  C   UNL     1       6.175   5.711  16.727  0.00  0.00    +0.000 A 
ATOM     17  C   UNL     1       5.314   6.243  17.690  0.00  0.00    +0.000 A 
ATOM     18  C   UNL     1       4.076   5.642  17.926  0.00  0.00    +0.000 A 
ATOM     19  C   UNL     1       3.709   4.511  17.187  0.00  0.00    +0.000 A 
ATOM     20  C   UNL     1       4.577   3.975  16.230  0.00  0.00    +0.000 A 
BRANCH  15  22
ATOM     21  C   UNL     1       6.266   3.961  13.769  0.00  0.00    +0.000 C 
ATOM     22  O   UNL     1       6.746   4.142  15.096  0.00  0.00    +0.000 OA
ENDBRANCH  15  22
ENDBRANCH   1  18
TORSDOF 2
ENDMDL
MODEL 3
REMARK VINA RESULT:      -7.3      1.097      1.597
REMARK  Name = 
REMARK  4 active torsions:
REMARK  status: ('A' for Active; 'I' for Inactive)
REMARK    1  A    between atoms: C_1  and  O_2
REMARK    2  A    between atoms: O_2  and  C_3
REMARK    3  A    between atoms: C_6  and  C_7
REMARK    4  A    between atoms: C_8  and  C_9
REMARK                            x       y       z     vdW  Elec       q    Type
REMARK                         _______ _______ _______ _____ _____    ______ ____
ROOT
ATOM      1  C   UNL     1       2.775   6.835  18.695  0.00  0.00    +0.000 A 
ATOM      2  C   UNL     1       2.382   6.514  19.942  0.00  0.00    +0.000 A 
ATOM      3  C   UNL     1       2.603   5.221  20.652  0.00  0.00    +0.000 C 
ATOM      4  N   UNL     1       1.678   7.545  20.566  0.00  0.00    +0.000 N 
ATOM      5  N   UNL     1       1.517   8.546  19.586  0.00  0.00    +0.000 N 
ATOM      6  C   UNL     1       0.898   9.783  19.841  0.00  0.00    +0.000 A 
ATOM      7  C   UNL     1       0.585  10.162  21.145  0.00  0.00    +0.000 A 
ATOM      8  C   UNL     1       0.022  11.420  21.372  0.00  0.00    +0.000 A 
ATOM      9  C   UNL     1      -0.237  12.258  20.297  0.00  0.00    +0.000 A 
ATOM     10  C   UNL     1       0.074  11.799  19.033  0.00  0.00    +0.000 A 
ATOM     11  N   UNL     1       0.631  10.596  18.795  0.00  0.00    +0.000 NA
ATOM     12  C   UNL     1       2.189   8.185  18.420  0.00  0.00    +0.000 A 
ATOM     13  O   UNL     1       2.344   8.775  17.365  0.00  0.00    +0.000 OA
ATOM     14  H   UNL     1       0.790   7.217  20.948  0.00  0.00    +0.000 HD
ENDROOT
BRANCH   1  18
ATOM     15  C   UNL     1       5.127   4.585  15.950  0.00  0.00    +0.000 A 
ATOM     16  C   UNL     1       5.339   5.958  16.098  0.00  0.00    +0.000 A 
ATOM     17  C   UNL     1       4.568   6.704  16.991  0.00  0.00    +0.000 A 
ATOM     18  C   UNL     1       3.560   6.083  17.732  0.00  0.00    +0.000 A 
ATOM     19  C   UNL     1       3.331   4.712  17.565  0.00  0.00    +0.000 A 
ATOM     20  C   UNL     1       4.112   3.964  16.677  0.00  0.00    +0.000 A 
BRANCH  15  22
ATOM     21  C   UNL     1       7.064   4.723  14.605  0.00  0.00    +0.000 C 
ATOM     22  O   UNL     1       5.947   3.962  15.048  0.00  0.00    +0.000 OA
ENDBRANCH  15  22
ENDBRANCH   1  18
TORSDOF 2
ENDMDL
MODEL 4
REMARK VINA RESULT:      -6.8      2.371      7.324
REMARK  Name = 
REMARK  4 active torsions:
REMARK  status: ('A' for Active; 'I' for Inactive)
REMARK    1  A    between atoms: C_1  and  O_2
REMARK    2  A    between atoms: O_2  and  C_3
REMARK    3  A    between atoms: C_6  and  C_7
REMARK    4  A    between atoms: C_8  and  C_9
REMARK                            x       y       z     vdW  Elec       q    Type
REMARK                         _______ _______ _______ _____ _____    ______ ____
ROOT
ATOM      1  C   UNL     1       1.430   9.072  19.456  0.00  0.00    +0.000 A 
ATOM      2  C   UNL     1       1.401   8.395  20.619  0.00  0.00    +0.000 A 
ATOM      3  C   UNL     1       0.865   8.872  21.927  0.00  0.00    +0.000 C 
ATOM      4  N   UNL     1       1.970   7.125  20.516  0.00  0.00    +0.000 N 
ATOM      5  N   UNL     1       2.504   7.049  19.213  0.00  0.00    +0.000 N 
ATOM      6  C   UNL     1       3.122   5.896  18.698  0.00  0.00    +0.000 A 
ATOM      7  C   UNL     1       3.059   4.689  19.393  0.00  0.00    +0.000 A 
ATOM      8  C   UNL     1       3.634   3.547  18.829  0.00  0.00    +0.000 A 
ATOM      9  C   UNL     1       4.276   3.639  17.602  0.00  0.00    +0.000 A 
ATOM     10  C   UNL     1       4.321   4.875  16.990  0.00  0.00    +0.000 A 
ATOM     11  N   UNL     1       3.761   5.984  17.510  0.00  0.00    +0.000 NA
ATOM     12  C   UNL     1       2.186   8.203  18.499  0.00  0.00    +0.000 A 
ATOM     13  O   UNL     1       2.407   8.521  17.344  0.00  0.00    +0.000 OA
ATOM     14  H   UNL     1       2.670   6.966  21.242  0.00  0.00    +0.000 HD
ENDROOT
BRANCH   1  18
ATOM     15  C   UNL     1      -0.085  12.950  18.562  0.00  0.00    +0.000 A 
ATOM     16  C   UNL     1      -0.937  11.843  18.557  0.00  0.00    +0.000 A 
ATOM     17  C   UNL     1      -0.447  10.567  18.842  0.00  0.00    +0.000 A 
ATOM     18  C   UNL     1       0.910  10.385  19.117  0.00  0.00    +0.000 A 
ATOM     19  C   UNL     1       1.769  11.491  19.097  0.00  0.00    +0.000 A 
ATOM     20  C   UNL     1       1.274  12.770  18.822  0.00  0.00    +0.000 A 
BRANCH  15  22
ATOM     21  C   UNL     1      -0.104  15.288  18.892  0.00  0.00    +0.000 C 
ATOM     22  O   UNL     1      -0.682  14.146  18.271  0.00  0.00    +0.000 OA
ENDBRANCH  15  22
ENDBRANCH   1  18
TORSDOF 2
ENDMDL
MODEL 5
REMARK VINA RESULT:      -6.7      2.373      7.441
REMARK  Name = 
REMARK  4 active torsions:
REMARK  status: ('A' for Active; 'I' for Inactive)
REMARK    1  A    between atoms: C_1  and  O_2
REMARK    2  A    between atoms: O_2  and  C_3
REMARK    3  A    between atoms: C_6  and  C_7
REMARK    4  A    between atoms: C_8  and  C_9
REMARK                            x       y       z     vdW  Elec       q    Type
REMARK                         _______ _______ _______ _____ _____    ______ ____
ROOT
ATOM      1  C   UNL     1       1.378   9.116  19.512  0.00  0.00    +0.000 A 
ATOM      2  C   UNL     1       1.362   8.340  20.611  0.00  0.00    +0.000 A 
ATOM      3  C   UNL     1       0.780   8.677  21.943  0.00  0.00    +0.000 C 
ATOM      4  N   UNL     1       1.995   7.112  20.413  0.00  0.00    +0.000 N 
ATOM      5  N   UNL     1       2.555   7.176  19.120  0.00  0.00    +0.000 N 
ATOM      6  C   UNL     1       3.238   6.102  18.522  0.00  0.00    +0.000 A 
ATOM      7  C   UNL     1       3.223   4.839  19.110  0.00  0.00    +0.000 A 
ATOM      8  C   UNL     1       3.864   3.778  18.463  0.00  0.00    +0.000 A 
ATOM      9  C   UNL     1       4.523   4.007  17.263  0.00  0.00    +0.000 A 
ATOM     10  C   UNL     1       4.517   5.292  16.760  0.00  0.00    +0.000 A 
ATOM     11  N   UNL     1       3.893   6.324  17.361  0.00  0.00    +0.000 NA
ATOM     12  C   UNL     1       2.193   8.371  18.501  0.00  0.00    +0.000 A 
ATOM     13  O   UNL     1       2.418   8.797  17.382  0.00  0.00    +0.000 OA
ATOM     14  H   UNL     1       2.689   6.925  21.138  0.00  0.00    +0.000 HD
ENDROOT
BRANCH   1  18
ATOM     15  C   UNL     1      -0.292  12.951  18.716  0.00  0.00    +0.000 A 
ATOM     16  C   UNL     1       0.909  12.839  19.420  0.00  0.00    +0.000 A 
ATOM     17  C   UNL     1       1.460  11.585  19.691  0.00  0.00    +0.000 A 
ATOM     18  C   UNL     1       0.800  10.428  19.275  0.00  0.00    +0.000 A 
ATOM     19  C   UNL     1      -0.417  10.539  18.592  0.00  0.00    +0.000 A 
ATOM     20  C   UNL     1      -0.962  11.796  18.312  0.00  0.00    +0.000 A 
BRANCH  15  22
ATOM     21  C   UNL     1       0.182  15.259  18.877  0.00  0.00    +0.000 C 
ATOM     22  O   UNL     1      -0.730  14.231  18.509  0.00  0.00    +0.000 OA
ENDBRANCH  15  22
ENDBRANCH   1  18
TORSDOF 2
ENDMDL
MODEL 6
REMARK VINA RESULT:      -6.7      2.703      7.825
REMARK  Name = 
REMARK  4 active torsions:
REMARK  status: ('A' for Active; 'I' for Inactive)
REMARK    1  A    between atoms: C_1  and  O_2
REMARK    2  A    between atoms: O_2  and  C_3
REMARK    3  A    between atoms: C_6  and  C_7
REMARK    4  A    between atoms: C_8  and  C_9
REMARK                            x       y       z     vdW  Elec       q    Type
REMARK                         _______ _______ _______ _____ _____    ______ ____
ROOT
ATOM      1  C   UNL     1       1.637   8.081  19.662  0.00  0.00    +0.000 A 
ATOM      2  C   UNL     1       2.179   8.405  18.474  0.00  0.00    +0.000 A 
ATOM      3  C   UNL     1       2.169   9.742  17.812  0.00  0.00    +0.000 C 
ATOM      4  N   UNL     1       2.778   7.314  17.841  0.00  0.00    +0.000 N 
ATOM      5  N   UNL     1       2.482   6.195  18.647  0.00  0.00    +0.000 N 
ATOM      6  C   UNL     1       2.959   4.901  18.374  0.00  0.00    +0.000 A 
ATOM      7  C   UNL     1       3.923   4.695  17.389  0.00  0.00    +0.000 A 
ATOM      8  C   UNL     1       4.418   3.405  17.179  0.00  0.00    +0.000 A 
ATOM      9  C   UNL     1       3.925   2.351  17.936  0.00  0.00    +0.000 A 
ATOM     10  C   UNL     1       2.950   2.631  18.871  0.00  0.00    +0.000 A 
ATOM     11  N   UNL     1       2.470   3.870  19.099  0.00  0.00    +0.000 NA
ATOM     12  C   UNL     1       1.804   6.600  19.795  0.00  0.00    +0.000 A 
ATOM     13  O   UNL     1       1.412   5.969  20.762  0.00  0.00    +0.000 OA
ATOM     14  H   UNL     1       2.450   7.210  16.880  0.00  0.00    +0.000 HD
ENDROOT
BRANCH   1  18
ATOM     15  C   UNL     1      -0.371  10.430  22.592  0.00  0.00    +0.000 A 
ATOM     16  C   UNL     1      -0.671  10.588  21.237  0.00  0.00    +0.000 A 
ATOM     17  C   UNL     1      -0.013   9.827  20.269  0.00  0.00    +0.000 A 
ATOM     18  C   UNL     1       0.970   8.912  20.651  0.00  0.00    +0.000 A 
ATOM     19  C   UNL     1       1.289   8.771  22.007  0.00  0.00    +0.000 A 
ATOM     20  C   UNL     1       0.621   9.527  22.975  0.00  0.00    +0.000 A 
BRANCH  15  22
ATOM     21  C   UNL     1      -1.286  12.568  23.007  0.00  0.00    +0.000 C 
ATOM     22  O   UNL     1      -1.084  11.229  23.444  0.00  0.00    +0.000 OA
ENDBRANCH  15  22
ENDBRANCH   1  18
TORSDOF 2
ENDMDL
MODEL 7
REMARK VINA RESULT:      -6.5      2.200      7.298
REMARK  Name = 
REMARK  4 active torsions:
REMARK  status: ('A' for Active; 'I' for Inactive)
REMARK    1  A    between atoms: C_1  and  O_2
REMARK    2  A    between atoms: O_2  and  C_3
REMARK    3  A    between atoms: C_6  and  C_7
REMARK    4  A    between atoms: C_8  and  C_9
REMARK                            x       y       z     vdW  Elec       q    Type
REMARK                         _______ _______ _______ _____ _____    ______ ____
ROOT
ATOM      1  C   UNL     1       2.535   6.767  19.152  0.00  0.00    +0.000 A 
ATOM      2  C   UNL     1       2.562   5.471  19.512  0.00  0.00    +0.000 A 
ATOM      3  C   UNL     1       1.859   4.841  20.667  0.00  0.00    +0.000 C 
ATOM      4  N   UNL     1       3.375   4.699  18.679  0.00  0.00    +0.000 N 
ATOM      5  N   UNL     1       3.997   5.610  17.801  0.00  0.00    +0.000 N 
ATOM      6  C   UNL     1       4.860   5.214  16.764  0.00  0.00    +0.000 A 
ATOM      7  C   UNL     1       4.990   3.869  16.426  0.00  0.00    +0.000 A 
ATOM      8  C   UNL     1       5.812   3.511  15.354  0.00  0.00    +0.000 A 
ATOM      9  C   UNL     1       6.503   4.497  14.664  0.00  0.00    +0.000 A 
ATOM     10  C   UNL     1       6.346   5.804  15.078  0.00  0.00    +0.000 A 
ATOM     11  N   UNL     1       5.546   6.170  16.099  0.00  0.00    +0.000 NA
ATOM     12  C   UNL     1       3.507   6.896  18.021  0.00  0.00    +0.000 A 
ATOM     13  O   UNL     1       3.737   7.952  17.457  0.00  0.00    +0.000 OA
ATOM     14  H   UNL     1       4.043   4.144  19.215  0.00  0.00    +0.000 HD
ENDROOT
BRANCH   1  18
ATOM     15  C   UNL     1       0.440  10.102  20.773  0.00  0.00    +0.000 A 
ATOM     16  C   UNL     1       0.846   9.055  21.603  0.00  0.00    +0.000 A 
ATOM     17  C   UNL     1       1.527   7.954  21.079  0.00  0.00    +0.000 A 
ATOM     18  C   UNL     1       1.791   7.885  19.710  0.00  0.00    +0.000 A 
ATOM     19  C   UNL     1       1.363   8.922  18.874  0.00  0.00    +0.000 A 
ATOM     20  C   UNL     1       0.689  10.028  19.403  0.00  0.00    +0.000 A 
BRANCH  15  22
ATOM     21  C   UNL     1      -0.693  10.835  22.711  0.00  0.00    +0.000 C 
ATOM     22  O   UNL     1      -0.215  11.124  21.403  0.00  0.00    +0.000 OA
ENDBRANCH  15  22
ENDBRANCH   1  18
TORSDOF 2
ENDMDL
MODEL 8
REMARK VINA RESULT:      -6.5      2.153      7.314
REMARK  Name = 
REMARK  4 active torsions:
REMARK  status: ('A' for Active; 'I' for Inactive)
REMARK    1  A    between atoms: C_1  and  O_2
REMARK    2  A    between atoms: O_2  and  C_3
REMARK    3  A    between atoms: C_6  and  C_7
REMARK    4  A    between atoms: C_8  and  C_9
REMARK                            x       y       z     vdW  Elec       q    Type
REMARK                         _______ _______ _______ _____ _____    ______ ____
ROOT
ATOM      1  C   UNL     1       2.424   6.873  19.270  0.00  0.00    +0.000 A 
ATOM      2  C   UNL     1       2.441   5.585  19.659  0.00  0.00    +0.000 A 
ATOM      3  C   UNL     1       1.742   4.989  20.834  0.00  0.00    +0.000 C 
ATOM      4  N   UNL     1       3.237   4.786  18.836  0.00  0.00    +0.000 N 
ATOM      5  N   UNL     1       3.861   5.670  17.932  0.00  0.00    +0.000 N 
ATOM      6  C   UNL     1       4.710   5.241  16.897  0.00  0.00    +0.000 A 
ATOM      7  C   UNL     1       4.821   3.887  16.587  0.00  0.00    +0.000 A 
ATOM      8  C   UNL     1       5.630   3.496  15.517  0.00  0.00    +0.000 A 
ATOM      9  C   UNL     1       6.325   4.459  14.798  0.00  0.00    +0.000 A 
ATOM     10  C   UNL     1       6.185   5.776  15.183  0.00  0.00    +0.000 A 
ATOM     11  N   UNL     1       5.399   6.174  16.203  0.00  0.00    +0.000 NA
ATOM     12  C   UNL     1       3.387   6.965  18.127  0.00  0.00    +0.000 A 
ATOM     13  O   UNL     1       3.622   8.006  17.537  0.00  0.00    +0.000 OA
ATOM     14  H   UNL     1       3.904   4.235  19.378  0.00  0.00    +0.000 HD
ENDROOT
BRANCH   1  18
ATOM     15  C   UNL     1       0.214  10.144  20.866  0.00  0.00    +0.000 A 
ATOM     16  C   UNL     1       0.455  10.062  19.493  0.00  0.00    +0.000 A 
ATOM     17  C   UNL     1       1.185   8.996  18.962  0.00  0.00    +0.000 A 
ATOM     18  C   UNL     1       1.698   8.011  19.809  0.00  0.00    +0.000 A 
ATOM     19  C   UNL     1       1.477   8.107  21.187  0.00  0.00    +0.000 A 
ATOM     20  C   UNL     1       0.737   9.169  21.716  0.00  0.00    +0.000 A 
BRANCH  15  22
ATOM     21  C   UNL     1      -0.799  11.303  22.658  0.00  0.00    +0.000 C 
ATOM     22  O   UNL     1      -0.515  11.231  21.266  0.00  0.00    +0.000 OA
ENDBRANCH  15  22
ENDBRANCH   1  18
TORSDOF 2
ENDMDL
MODEL 9
REMARK VINA RESULT:      -6.5      4.184      6.661
REMARK  Name = 
REMARK  4 active torsions:
REMARK  status: ('A' for Active; 'I' for Inactive)
REMARK    1  A    between atoms: C_1  and  O_2
REMARK    2  A    between atoms: O_2  and  C_3
REMARK    3  A    between atoms: C_6  and  C_7
REMARK    4  A    between atoms: C_8  and  C_9
REMARK                            x       y       z     vdW  Elec       q    Type
REMARK                         _______ _______ _______ _____ _____    ______ ____
ROOT
ATOM      1  C   UNL     1       0.417  11.297  18.821  0.00  0.00    +0.000 A 
ATOM      2  C   UNL     1      -0.838  11.657  18.499  0.00  0.00    +0.000 A 
ATOM      3  C   UNL     1      -1.986  10.753  18.197  0.00  0.00    +0.000 C 
ATOM      4  N   UNL     1      -1.002  13.042  18.438  0.00  0.00    +0.000 N 
ATOM      5  N   UNL     1       0.285  13.588  18.622  0.00  0.00    +0.000 N 
ATOM      6  C   UNL     1       0.535  14.970  18.681  0.00  0.00    +0.000 A 
ATOM      7  C   UNL     1      -0.519  15.878  18.757  0.00  0.00    +0.000 A 
ATOM      8  C   UNL     1      -0.238  17.242  18.871  0.00  0.00    +0.000 A 
ATOM      9  C   UNL     1       1.082  17.669  18.880  0.00  0.00    +0.000 A 
ATOM     10  C   UNL     1       2.070  16.712  18.771  0.00  0.00    +0.000 A 
ATOM     11  N   UNL     1       1.819  15.391  18.676  0.00  0.00    +0.000 NA
ATOM     12  C   UNL     1       1.200  12.572  18.888  0.00  0.00    +0.000 A 
ATOM     13  O   UNL     1       2.390  12.609  19.151  0.00  0.00    +0.000 OA
ATOM     14  H   UNL     1      -1.435  13.332  17.561  0.00  0.00    +0.000 HD
ENDROOT
BRANCH   1  18
ATOM     15  C   UNL     1       2.189   7.485  19.501  0.00  0.00    +0.000 A 
ATOM     16  C   UNL     1       2.239   8.068  18.233  0.00  0.00    +0.000 A 
ATOM     17  C   UNL     1       1.655   9.315  17.999  0.00  0.00    +0.000 A 
ATOM     18  C   UNL     1       0.996   9.981  19.035  0.00  0.00    +0.000 A 
ATOM     19  C   UNL     1       0.923   9.386  20.299  0.00  0.00    +0.000 A 
ATOM     20  C   UNL     1       1.519   8.142  20.533  0.00  0.00    +0.000 A 
BRANCH  15  22
ATOM     21  C   UNL     1       2.066   5.270  20.311  0.00  0.00    +0.000 C 
ATOM     22  O   UNL     1       2.799   6.265  19.606  0.00  0.00    +0.000 OA
ENDBRANCH  15  22
ENDBRANCH   1  18
TORSDOF 2
ENDMDL
