MODEL 1
REMARK VINA RESULT:      -5.8      0.000      0.000
REMARK  Name = 
REMARK  16 active torsions:
REMARK  status: ('A' for Active; 'I' for Inactive)
REMARK    1  A    between atoms: C_1  and  O_2
REMARK    2  A    between atoms: O_2  and  C_3
REMARK    3  A    between atoms: C_7  and  C_8
REMARK    4  A    between atoms: C_8  and  N_9
REMARK    5  A    between atoms: C_14  and  C_15
REMARK    6  A    between atoms: C_15  and  O_17
REMARK    7  A    between atoms: O_17  and  C_18
REMARK    8  A    between atoms: C_18  and  C_19
REMARK    9  A    between atoms: C_18  and  C_20
REMARK   10  A    between atoms: C_18  and  C_21
REMARK   11  A    between atoms: C_24  and  O_25
REMARK   12  A    between atoms: O_25  and  C_26
REMARK   13  A    between atoms: C_27  and  O_28
REMARK   14  A    between atoms: O_28  and  C_29
REMARK   15  A    between atoms: C_34  and  O_35
REMARK   16  A    between atoms: O_35  and  C_36
REMARK                            x       y       z     vdW  Elec       q    Type
REMARK                         _______ _______ _______ _____ _____    ______ ____
ROOT
ATOM      1  C   UNL     1      -5.359  12.116  17.693  0.00  0.00    +0.000 A 
ATOM      2  C   UNL     1      -5.175  12.577  19.008  0.00  0.00    +0.000 A 
ATOM      3  C   UNL     1      -3.948  12.452  19.674  0.00  0.00    +0.000 A 
ATOM      4  C   UNL     1      -3.805  12.958  20.969  0.00  0.00    +0.000 A 
ATOM      5  C   UNL     1      -2.625  12.786  21.689  0.00  0.00    +0.000 A 
ATOM      6  C   UNL     1      -1.577  12.011  21.118  0.00  0.00    +0.000 A 
ATOM      7  C   UNL     1      -0.437  11.612  21.842  0.00  0.00    +0.000 A 
ATOM      8  C   UNL     1       0.573  10.782  21.310  0.00  0.00    +0.000 A 
ATOM      9  C   UNL     1       0.550  10.486  19.952  0.00  0.00    +0.000 A 
ATOM     10  C   UNL     1      -0.569  10.888  19.215  0.00  0.00    +0.000 A 
ATOM     11  C   UNL     1      -1.675  11.571  19.769  0.00  0.00    +0.000 A 
ATOM     12  C   UNL     1      -2.874  11.804  19.035  0.00  0.00    +0.000 A 
ATOM     13  C   UNL     1      -3.073  11.377  17.699  0.00  0.00    +0.000 A 
ATOM     14  C   UNL     1      -4.290  11.518  17.023  0.00  0.00    +0.000 A 
ENDROOT
BRANCH   1  16
ATOM     15  C   UNL     1      -7.503  13.107  17.619  0.00  0.00    +0.000 C 
ATOM     16  O   UNL     1      -6.568  12.198  17.044  0.00  0.00    +0.000 OA
ENDBRANCH   1  16
BRANCH   8  17
ATOM     17  O   UNL     1       1.559  10.269  22.110  0.00  0.00    +0.000 OA
ATOM     18  C   UNL     1       1.386   8.895  22.475  0.00  0.00    +0.000 C 
ENDBRANCH   8  17
BRANCH   9  19
ATOM     19  O   UNL     1       1.425   9.794  19.168  0.00  0.00    +0.000 OA
ATOM     20  C   UNL     1       1.074   9.426  17.849  0.00  0.00    +0.000 C 
ENDBRANCH   9  19
BRANCH  14  21
ATOM     21  O   UNL     1      -4.487  11.093  15.731  0.00  0.00    +0.000 OA
ATOM     22  C   UNL     1      -3.382  10.459  15.084  0.00  0.00    +0.000 C 
ENDBRANCH  14  21
BRANCH   5  23
ATOM     23  C   UNL     1      -2.507  13.466  23.048  0.00  0.00    +0.000 C 
BRANCH  23  24
ATOM     24  N   UNL     1      -2.489  14.916  22.990  0.00  0.00    +0.000 N 
ATOM     25  C   UNL     1      -3.337  15.723  23.719  0.00  0.00    +0.000 C 
ATOM     26  O   UNL     1      -4.157  15.359  24.544  0.00  0.00    +0.000 OA
ATOM     27  C   UNL     1      -3.173  17.134  23.228  0.00  0.00    +0.000 C 
ATOM     28  C   UNL     1      -1.825  17.137  22.529  0.00  0.00    +0.000 C 
ATOM     29  C   UNL     1      -1.506  15.671  22.234  0.00  0.00    +0.000 C 
BRANCH  29  30
ATOM     30  C   UNL     1      -0.040  15.427  22.600  0.00  0.00    +0.000 C 
ATOM     31  O   UNL     1       0.442  15.872  23.634  0.00  0.00    +0.000 OA
BRANCH  30  32
ATOM     32  O   UNL     1       0.602  14.604  21.720  0.00  0.00    +0.000 OA
BRANCH  32  33
ATOM     33  C   UNL     1       0.979  15.113  20.410  0.00  0.00    +0.000 C 
ATOM     34  C   UNL     1       1.490  16.557  20.501  0.00  0.00    +0.000 C 
ATOM     35  C   UNL     1       2.126  14.222  19.892  0.00  0.00    +0.000 C 
ATOM     36  C   UNL     1      -0.196  14.968  19.436  0.00  0.00    +0.000 C 
ENDBRANCH  32  33
ENDBRANCH  30  32
ENDBRANCH  29  30
ENDBRANCH  23  24
ENDBRANCH   5  23
TORSDOF 9
ENDMDL
MODEL 2
REMARK VINA RESULT:      -5.4      2.896      6.981
REMARK  Name = 
REMARK  16 active torsions:
REMARK  status: ('A' for Active; 'I' for Inactive)
REMARK    1  A    between atoms: C_1  and  O_2
REMARK    2  A    between atoms: O_2  and  C_3
REMARK    3  A    between atoms: C_7  and  C_8
REMARK    4  A    between atoms: C_8  and  N_9
REMARK    5  A    between atoms: C_14  and  C_15
REMARK    6  A    between atoms: C_15  and  O_17
REMARK    7  A    between atoms: O_17  and  C_18
REMARK    8  A    between atoms: C_18  and  C_19
REMARK    9  A    between atoms: C_18  and  C_20
REMARK   10  A    between atoms: C_18  and  C_21
REMARK   11  A    between atoms: C_24  and  O_25
REMARK   12  A    between atoms: O_25  and  C_26
REMARK   13  A    between atoms: C_27  and  O_28
REMARK   14  A    between atoms: O_28  and  C_29
REMARK   15  A    between atoms: C_34  and  O_35
REMARK   16  A    between atoms: O_35  and  C_36
REMARK                            x       y       z     vdW  Elec       q    Type
REMARK                         _______ _______ _______ _____ _____    ______ ____
ROOT
ATOM      1  C   UNL     1      -3.482  10.427  16.337  0.00  0.00    +0.000 A 
ATOM      2  C   UNL     1      -2.184  10.025  16.698  0.00  0.00    +0.000 A 
ATOM      3  C   UNL     1      -1.553  10.503  17.854  0.00  0.00    +0.000 A 
ATOM      4  C   UNL     1      -0.276  10.044  18.189  0.00  0.00    +0.000 A 
ATOM      5  C   UNL     1       0.412  10.553  19.289  0.00  0.00    +0.000 A 
ATOM      6  C   UNL     1      -0.172  11.614  20.036  0.00  0.00    +0.000 A 
ATOM      7  C   UNL     1       0.526  12.326  21.030  0.00  0.00    +0.000 A 
ATOM      8  C   UNL     1      -0.017  13.428  21.726  0.00  0.00    +0.000 A 
ATOM      9  C   UNL     1      -1.366  13.722  21.566  0.00  0.00    +0.000 A 
ATOM     10  C   UNL     1      -2.078  13.014  20.592  0.00  0.00    +0.000 A 
ATOM     11  C   UNL     1      -1.507  12.023  19.762  0.00  0.00    +0.000 A 
ATOM     12  C   UNL     1      -2.209  11.451  18.662  0.00  0.00    +0.000 A 
ATOM     13  C   UNL     1      -3.528  11.818  18.296  0.00  0.00    +0.000 A 
ATOM     14  C   UNL     1      -4.169  11.328  17.153  0.00  0.00    +0.000 A 
ENDROOT
BRANCH   1  16
ATOM     15  C   UNL     1      -3.294  10.068  14.009  0.00  0.00    +0.000 C 
ATOM     16  O   UNL     1      -4.096   9.996  15.185  0.00  0.00    +0.000 OA
ENDBRANCH   1  16
BRANCH   8  17
ATOM     17  O   UNL     1       0.766  14.201  22.542  0.00  0.00    +0.000 OA
ATOM     18  C   UNL     1       1.455  15.268  21.881  0.00  0.00    +0.000 C 
ENDBRANCH   8  17
BRANCH   9  19
ATOM     19  O   UNL     1      -2.159  14.656  22.164  0.00  0.00    +0.000 OA
ATOM     20  C   UNL     1      -3.178  15.309  21.435  0.00  0.00    +0.000 C 
ENDBRANCH   9  19
BRANCH  14  21
ATOM     21  O   UNL     1      -5.444  11.692  16.790  0.00  0.00    +0.000 OA
ATOM     22  C   UNL     1      -6.447  11.630  17.807  0.00  0.00    +0.000 C 
ENDBRANCH  14  21
BRANCH   5  23
ATOM     23  C   UNL     1       1.749   9.920  19.655  0.00  0.00    +0.000 C 
BRANCH  23  24
ATOM     24  N   UNL     1       1.661   8.530  20.060  0.00  0.00    +0.000 N 
ATOM     25  C   UNL     1       0.661   8.030  20.869  0.00  0.00    +0.000 C 
ATOM     26  O   UNL     1      -0.303   8.640  21.296  0.00  0.00    +0.000 OA
ATOM     27  C   UNL     1       1.030   6.622  21.248  0.00  0.00    +0.000 C 
ATOM     28  C   UNL     1       2.044   6.201  20.198  0.00  0.00    +0.000 C 
ATOM     29  C   UNL     1       2.559   7.499  19.574  0.00  0.00    +0.000 C 
BRANCH  29  30
ATOM     30  C   UNL     1       2.605   7.303  18.057  0.00  0.00    +0.000 C 
ATOM     31  O   UNL     1       2.511   8.252  17.288  0.00  0.00    +0.000 OA
BRANCH  30  32
ATOM     32  O   UNL     1       2.853   6.012  17.690  0.00  0.00    +0.000 OA
BRANCH  32  33
ATOM     33  C   UNL     1       4.205   5.622  17.315  0.00  0.00    +0.000 C 
ATOM     34  C   UNL     1       4.813   6.616  16.316  0.00  0.00    +0.000 C 
ATOM     35  C   UNL     1       5.054   5.642  18.601  0.00  0.00    +0.000 C 
ATOM     36  C   UNL     1       4.204   4.184  16.783  0.00  0.00    +0.000 C 
ENDBRANCH  32  33
ENDBRANCH  30  32
ENDBRANCH  29  30
ENDBRANCH  23  24
ENDBRANCH   5  23
TORSDOF 9
ENDMDL
MODEL 3
REMARK VINA RESULT:      -5.2      1.857      5.494
REMARK  Name = 
REMARK  16 active torsions:
REMARK  status: ('A' for Active; 'I' for Inactive)
REMARK    1  A    between atoms: C_1  and  O_2
REMARK    2  A    between atoms: O_2  and  C_3
REMARK    3  A    between atoms: C_7  and  C_8
REMARK    4  A    between atoms: C_8  and  N_9
REMARK    5  A    between atoms: C_14  and  C_15
REMARK    6  A    between atoms: C_15  and  O_17
REMARK    7  A    between atoms: O_17  and  C_18
REMARK    8  A    between atoms: C_18  and  C_19
REMARK    9  A    between atoms: C_18  and  C_20
REMARK   10  A    between atoms: C_18  and  C_21
REMARK   11  A    between atoms: C_24  and  O_25
REMARK   12  A    between atoms: O_25  and  C_26
REMARK   13  A    between atoms: C_27  and  O_28
REMARK   14  A    between atoms: O_28  and  C_29
REMARK   15  A    between atoms: C_34  and  O_35
REMARK   16  A    between atoms: O_35  and  C_36
REMARK                            x       y       z     vdW  Elec       q    Type
REMARK                         _______ _______ _______ _____ _____    ______ ____
ROOT
ATOM      1  C   UNL     1       0.973  12.340  20.569  0.00  0.00    +0.000 A 
ATOM      2  C   UNL     1      -0.149  12.745  21.314  0.00  0.00    +0.000 A 
ATOM      3  C   UNL     1      -1.457  12.566  20.844  0.00  0.00    +0.000 A 
ATOM      4  C   UNL     1      -2.539  12.952  21.638  0.00  0.00    +0.000 A 
ATOM      5  C   UNL     1      -3.850  12.859  21.173  0.00  0.00    +0.000 A 
ATOM      6  C   UNL     1      -4.076  12.434  19.835  0.00  0.00    +0.000 A 
ATOM      7  C   UNL     1      -5.338  12.502  19.212  0.00  0.00    +0.000 A 
ATOM      8  C   UNL     1      -5.561  12.153  17.863  0.00  0.00    +0.000 A 
ATOM      9  C   UNL     1      -4.537  11.538  17.152  0.00  0.00    +0.000 A 
ATOM     10  C   UNL     1      -3.281  11.451  17.761  0.00  0.00    +0.000 A 
ATOM     11  C   UNL     1      -2.992  11.951  19.050  0.00  0.00    +0.000 A 
ATOM     12  C   UNL     1      -1.666  12.010  19.568  0.00  0.00    +0.000 A 
ATOM     13  C   UNL     1      -0.523  11.581  18.849  0.00  0.00    +0.000 A 
ATOM     14  C   UNL     1       0.784  11.739  19.323  0.00  0.00    +0.000 A 
ENDROOT
BRANCH   1  16
ATOM     15  C   UNL     1       2.734  13.885  20.880  0.00  0.00    +0.000 C 
ATOM     16  O   UNL     1       2.261  12.546  21.002  0.00  0.00    +0.000 OA
ENDBRANCH   1  16
BRANCH   8  17
ATOM     17  O   UNL     1      -6.760  12.417  17.256  0.00  0.00    +0.000 OA
ATOM     18  C   UNL     1      -6.947  13.779  16.857  0.00  0.00    +0.000 C 
ENDBRANCH   8  17
BRANCH   9  19
ATOM     19  O   UNL     1      -4.500  11.029  15.888  0.00  0.00    +0.000 OA
ATOM     20  C   UNL     1      -3.265  10.787  15.244  0.00  0.00    +0.000 C 
ENDBRANCH   9  19
BRANCH  14  21
ATOM     21  O   UNL     1       1.894  11.334  18.621  0.00  0.00    +0.000 OA
ATOM     22  C   UNL     1       1.889   9.995  18.121  0.00  0.00    +0.000 C 
ENDBRANCH  14  21
BRANCH   5  23
ATOM     23  C   UNL     1      -4.980  13.191  22.141  0.00  0.00    +0.000 C 
BRANCH  23  24
ATOM     24  N   UNL     1      -4.870  14.498  22.761  0.00  0.00    +0.000 N 
ATOM     25  C   UNL     1      -4.272  14.717  23.985  0.00  0.00    +0.000 C 
ATOM     26  O   UNL     1      -3.707  13.890  24.677  0.00  0.00    +0.000 OA
ATOM     27  C   UNL     1      -4.551  16.138  24.390  0.00  0.00    +0.000 C 
ATOM     28  C   UNL     1      -4.911  16.838  23.091  0.00  0.00    +0.000 C 
ATOM     29  C   UNL     1      -5.286  15.727  22.111  0.00  0.00    +0.000 C 
BRANCH  29  30
ATOM     30  C   UNL     1      -4.619  16.041  20.769  0.00  0.00    +0.000 C 
ATOM     31  O   UNL     1      -5.274  16.141  19.739  0.00  0.00    +0.000 OA
BRANCH  30  32
ATOM     32  O   UNL     1      -3.280  16.283  20.881  0.00  0.00    +0.000 OA
BRANCH  32  33
ATOM     33  C   UNL     1      -2.747  17.569  20.456  0.00  0.00    +0.000 C 
ATOM     34  C   UNL     1      -1.908  18.218  21.564  0.00  0.00    +0.000 C 
ATOM     35  C   UNL     1      -1.832  17.301  19.245  0.00  0.00    +0.000 C 
ATOM     36  C   UNL     1      -3.890  18.475  19.981  0.00  0.00    +0.000 C 
ENDBRANCH  32  33
ENDBRANCH  30  32
ENDBRANCH  29  30
ENDBRANCH  23  24
ENDBRANCH   5  23
TORSDOF 9
ENDMDL
MODEL 4
REMARK VINA RESULT:      -5.1      2.280      5.949
REMARK  Name = 
REMARK  16 active torsions:
REMARK  status: ('A' for Active; 'I' for Inactive)
REMARK    1  A    between atoms: C_1  and  O_2
REMARK    2  A    between atoms: O_2  and  C_3
REMARK    3  A    between atoms: C_7  and  C_8
REMARK    4  A    between atoms: C_8  and  N_9
REMARK    5  A    between atoms: C_14  and  C_15
REMARK    6  A    between atoms: C_15  and  O_17
REMARK    7  A    between atoms: O_17  and  C_18
REMARK    8  A    between atoms: C_18  and  C_19
REMARK    9  A    between atoms: C_18  and  C_20
REMARK   10  A    between atoms: C_18  and  C_21
REMARK   11  A    between atoms: C_24  and  O_25
REMARK   12  A    between atoms: O_25  and  C_26
REMARK   13  A    between atoms: C_27  and  O_28
REMARK   14  A    between atoms: O_28  and  C_29
REMARK   15  A    between atoms: C_34  and  O_35
REMARK   16  A    between atoms: O_35  and  C_36
REMARK                            x       y       z     vdW  Elec       q    Type
REMARK                         _______ _______ _______ _____ _____    ______ ____
ROOT
ATOM      1  C   UNL     1       1.787  14.328  20.736  0.00  0.00    +0.000 A 
ATOM      2  C   UNL     1       0.579  14.214  21.447  0.00  0.00    +0.000 A 
ATOM      3  C   UNL     1      -0.526  13.526  20.926  0.00  0.00    +0.000 A 
ATOM      4  C   UNL     1      -1.692  13.409  21.686  0.00  0.00    +0.000 A 
ATOM      5  C   UNL     1      -2.835  12.799  21.172  0.00  0.00    +0.000 A 
ATOM      6  C   UNL     1      -2.830  12.357  19.820  0.00  0.00    +0.000 A 
ATOM      7  C   UNL     1      -3.990  11.918  19.153  0.00  0.00    +0.000 A 
ATOM      8  C   UNL     1      -4.013  11.547  17.791  0.00  0.00    +0.000 A 
ATOM      9  C   UNL     1      -2.808  11.429  17.109  0.00  0.00    +0.000 A 
ATOM     10  C   UNL     1      -1.644  11.849  17.762  0.00  0.00    +0.000 A 
ATOM     11  C   UNL     1      -1.622  12.386  19.068  0.00  0.00    +0.000 A 
ATOM     12  C   UNL     1      -0.453  12.970  19.635  0.00  0.00    +0.000 A 
ATOM     13  C   UNL     1       0.785  13.071  18.951  0.00  0.00    +0.000 A 
ATOM     14  C   UNL     1       1.897  13.739  19.475  0.00  0.00    +0.000 A 
ENDROOT
BRANCH   1  16
ATOM     15  C   UNL     1       2.593  15.848  22.357  0.00  0.00    +0.000 C 
ATOM     16  O   UNL     1       2.864  15.033  21.219  0.00  0.00    +0.000 OA
ENDBRANCH   1  16
BRANCH   8  17
ATOM     17  O   UNL     1      -5.197  11.312  17.145  0.00  0.00    +0.000 OA
ATOM     18  C   UNL     1      -6.371  11.596  17.914  0.00  0.00    +0.000 C 
ENDBRANCH   8  17
BRANCH   9  19
ATOM     19  O   UNL     1      -2.530  11.017  15.840  0.00  0.00    +0.000 OA
ATOM     20  C   UNL     1      -3.279   9.979  15.239  0.00  0.00    +0.000 C 
ENDBRANCH   9  19
BRANCH  14  21
ATOM     21  O   UNL     1       3.094  13.847  18.808  0.00  0.00    +0.000 OA
ATOM     22  C   UNL     1       3.211  14.912  17.862  0.00  0.00    +0.000 C 
ENDBRANCH  14  21
BRANCH   5  23
ATOM     23  C   UNL     1      -4.027  12.608  22.103  0.00  0.00    +0.000 C 
BRANCH  23  24
ATOM     24  N   UNL     1      -5.191  13.400  21.751  0.00  0.00    +0.000 N 
ATOM     25  C   UNL     1      -6.427  12.859  21.465  0.00  0.00    +0.000 C 
ATOM     26  O   UNL     1      -6.739  11.683  21.528  0.00  0.00    +0.000 OA
ATOM     27  C   UNL     1      -7.304  13.958  20.932  0.00  0.00    +0.000 C 
ATOM     28  C   UNL     1      -6.637  15.238  21.408  0.00  0.00    +0.000 C 
ATOM     29  C   UNL     1      -5.201  14.851  21.762  0.00  0.00    +0.000 C 
BRANCH  29  30
ATOM     30  C   UNL     1      -4.851  15.518  23.095  0.00  0.00    +0.000 C 
ATOM     31  O   UNL     1      -5.626  15.496  24.043  0.00  0.00    +0.000 OA
BRANCH  30  32
ATOM     32  O   UNL     1      -3.584  16.028  23.122  0.00  0.00    +0.000 OA
BRANCH  32  33
ATOM     33  C   UNL     1      -2.854  16.062  24.381  0.00  0.00    +0.000 C 
ATOM     34  C   UNL     1      -3.030  14.753  25.162  0.00  0.00    +0.000 C 
ATOM     35  C   UNL     1      -1.361  16.224  24.032  0.00  0.00    +0.000 C 
ATOM     36  C   UNL     1      -3.276  17.291  25.195  0.00  0.00    +0.000 C 
ENDBRANCH  32  33
ENDBRANCH  30  32
ENDBRANCH  29  30
ENDBRANCH  23  24
ENDBRANCH   5  23
TORSDOF 9
ENDMDL
MODEL 5
REMARK VINA RESULT:      -5.1      2.458      4.659
REMARK  Name = 
REMARK  16 active torsions:
REMARK  status: ('A' for Active; 'I' for Inactive)
REMARK    1  A    between atoms: C_1  and  O_2
REMARK    2  A    between atoms: O_2  and  C_3
REMARK    3  A    between atoms: C_7  and  C_8
REMARK    4  A    between atoms: C_8  and  N_9
REMARK    5  A    between atoms: C_14  and  C_15
REMARK    6  A    between atoms: C_15  and  O_17
REMARK    7  A    between atoms: O_17  and  C_18
REMARK    8  A    between atoms: C_18  and  C_19
REMARK    9  A    between atoms: C_18  and  C_20
REMARK   10  A    between atoms: C_18  and  C_21
REMARK   11  A    between atoms: C_24  and  O_25
REMARK   12  A    between atoms: O_25  and  C_26
REMARK   13  A    between atoms: C_27  and  O_28
REMARK   14  A    between atoms: O_28  and  C_29
REMARK   15  A    between atoms: C_34  and  O_35
REMARK   16  A    between atoms: O_35  and  C_36
REMARK                            x       y       z     vdW  Elec       q    Type
REMARK                         _______ _______ _______ _____ _____    ______ ____
ROOT
ATOM      1  C   UNL     1      -4.986  14.400  22.155  0.00  0.00    +0.000 A 
ATOM      2  C   UNL     1      -3.599  14.613  22.249  0.00  0.00    +0.000 A 
ATOM      3  C   UNL     1      -2.691  13.977  21.392  0.00  0.00    +0.000 A 
ATOM      4  C   UNL     1      -1.325  14.249  21.502  0.00  0.00    +0.000 A 
ATOM      5  C   UNL     1      -0.386  13.581  20.718  0.00  0.00    +0.000 A 
ATOM      6  C   UNL     1      -0.829  12.549  19.844  0.00  0.00    +0.000 A 
ATOM      7  C   UNL     1       0.055  11.685  19.169  0.00  0.00    +0.000 A 
ATOM      8  C   UNL     1      -0.373  10.611  18.358  0.00  0.00    +0.000 A 
ATOM      9  C   UNL     1      -1.725  10.498  18.054  0.00  0.00    +0.000 A 
ATOM     10  C   UNL     1      -2.615  11.358  18.707  0.00  0.00    +0.000 A 
ATOM     11  C   UNL     1      -2.222  12.328  19.656  0.00  0.00    +0.000 A 
ATOM     12  C   UNL     1      -3.164  13.061  20.434  0.00  0.00    +0.000 A 
ATOM     13  C   UNL     1      -4.567  12.887  20.336  0.00  0.00    +0.000 A 
ATOM     14  C   UNL     1      -5.479  13.535  21.177  0.00  0.00    +0.000 A 
ENDROOT
BRANCH   1  16
ATOM     15  C   UNL     1      -5.352  16.036  23.821  0.00  0.00    +0.000 C 
ATOM     16  O   UNL     1      -5.883  14.987  23.015  0.00  0.00    +0.000 OA
ENDBRANCH   1  16
BRANCH   8  17
ATOM     17  O   UNL     1       0.520   9.690  17.880  0.00  0.00    +0.000 OA
ATOM     18  C   UNL     1       1.898  10.018  18.094  0.00  0.00    +0.000 C 
ENDBRANCH   8  17
BRANCH   9  19
ATOM     19  O   UNL     1      -2.394   9.629  17.246  0.00  0.00    +0.000 OA
ATOM     20  C   UNL     1      -3.245  10.106  16.223  0.00  0.00    +0.000 C 
ENDBRANCH   9  19
BRANCH  14  21
ATOM     21  O   UNL     1      -6.840  13.358  21.091  0.00  0.00    +0.000 OA
ATOM     22  C   UNL     1      -7.420  13.442  19.787  0.00  0.00    +0.000 C 
ENDBRANCH  14  21
BRANCH   5  23
ATOM     23  C   UNL     1       1.071  14.016  20.816  0.00  0.00    +0.000 C 
BRANCH  23  24
ATOM     24  N   UNL     1       1.338  15.337  20.279  0.00  0.00    +0.000 N 
ATOM     25  C   UNL     1       1.446  16.472  21.055  0.00  0.00    +0.000 C 
ATOM     26  O   UNL     1       1.404  16.528  22.271  0.00  0.00    +0.000 OA
ATOM     27  C   UNL     1       1.496  17.661  20.136  0.00  0.00    +0.000 C 
ATOM     28  C   UNL     1       1.912  17.084  18.794  0.00  0.00    +0.000 C 
ATOM     29  C   UNL     1       1.619  15.586  18.877  0.00  0.00    +0.000 C 
BRANCH  29  30
ATOM     30  C   UNL     1       2.819  14.840  18.286  0.00  0.00    +0.000 C 
ATOM     31  O   UNL     1       2.768  13.641  18.044  0.00  0.00    +0.000 OA
BRANCH  30  32
ATOM     32  O   UNL     1       3.865  15.664  17.984  0.00  0.00    +0.000 OA
BRANCH  32  33
ATOM     33  C   UNL     1       5.131  15.499  18.684  0.00  0.00    +0.000 C 
ATOM     34  C   UNL     1       6.084  14.584  17.902  0.00  0.00    +0.000 C 
ATOM     35  C   UNL     1       5.774  16.896  18.790  0.00  0.00    +0.000 C 
ATOM     36  C   UNL     1       4.876  14.996  20.110  0.00  0.00    +0.000 C 
ENDBRANCH  32  33
ENDBRANCH  30  32
ENDBRANCH  29  30
ENDBRANCH  23  24
ENDBRANCH   5  23
TORSDOF 9
ENDMDL
MODEL 6
REMARK VINA RESULT:      -5.1      1.825      4.729
REMARK  Name = 
REMARK  16 active torsions:
REMARK  status: ('A' for Active; 'I' for Inactive)
REMARK    1  A    between atoms: C_1  and  O_2
REMARK    2  A    between atoms: O_2  and  C_3
REMARK    3  A    between atoms: C_7  and  C_8
REMARK    4  A    between atoms: C_8  and  N_9
REMARK    5  A    between atoms: C_14  and  C_15
REMARK    6  A    between atoms: C_15  and  O_17
REMARK    7  A    between atoms: O_17  and  C_18
REMARK    8  A    between atoms: C_18  and  C_19
REMARK    9  A    between atoms: C_18  and  C_20
REMARK   10  A    between atoms: C_18  and  C_21
REMARK   11  A    between atoms: C_24  and  O_25
REMARK   12  A    between atoms: O_25  and  C_26
REMARK   13  A    between atoms: C_27  and  O_28
REMARK   14  A    between atoms: O_28  and  C_29
REMARK   15  A    between atoms: C_34  and  O_35
REMARK   16  A    between atoms: O_35  and  C_36
REMARK                            x       y       z     vdW  Elec       q    Type
REMARK                         _______ _______ _______ _____ _____    ______ ____
ROOT
ATOM      1  C   UNL     1      -0.575  10.309  18.259  0.00  0.00    +0.000 A 
ATOM      2  C   UNL     1      -0.224  10.980  19.443  0.00  0.00    +0.000 A 
ATOM      3  C   UNL     1      -1.151  11.741  20.169  0.00  0.00    +0.000 A 
ATOM      4  C   UNL     1      -0.762  12.359  21.360  0.00  0.00    +0.000 A 
ATOM      5  C   UNL     1      -1.635  13.183  22.068  0.00  0.00    +0.000 A 
ATOM      6  C   UNL     1      -2.920  13.457  21.521  0.00  0.00    +0.000 A 
ATOM      7  C   UNL     1      -3.788  14.430  22.053  0.00  0.00    +0.000 A 
ATOM      8  C   UNL     1      -5.033  14.762  21.477  0.00  0.00    +0.000 A 
ATOM      9  C   UNL     1      -5.523  13.974  20.441  0.00  0.00    +0.000 A 
ATOM     10  C   UNL     1      -4.678  12.994  19.910  0.00  0.00    +0.000 A 
ATOM     11  C   UNL     1      -3.359  12.761  20.360  0.00  0.00    +0.000 A 
ATOM     12  C   UNL     1      -2.464  11.884  19.683  0.00  0.00    +0.000 A 
ATOM     13  C   UNL     1      -2.804  11.173  18.505  0.00  0.00    +0.000 A 
ATOM     14  C   UNL     1      -1.887  10.396  17.788  0.00  0.00    +0.000 A 
ENDROOT
BRANCH   1  16
ATOM     15  C   UNL     1       1.575   9.332  18.171  0.00  0.00    +0.000 C 
ATOM     16  O   UNL     1       0.335   9.593  17.518  0.00  0.00    +0.000 OA
ENDBRANCH   1  16
BRANCH   8  17
ATOM     17  O   UNL     1      -5.749  15.841  21.920  0.00  0.00    +0.000 OA
ATOM     18  C   UNL     1      -6.672  15.559  22.978  0.00  0.00    +0.000 C 
ENDBRANCH   8  17
BRANCH   9  19
ATOM     19  O   UNL     1      -6.707  14.011  19.767  0.00  0.00    +0.000 OA
ATOM     20  C   UNL     1      -7.301  12.821  19.289  0.00  0.00    +0.000 C 
ENDBRANCH   9  19
BRANCH  14  21
ATOM     21  O   UNL     1      -2.212   9.716  16.638  0.00  0.00    +0.000 OA
ATOM     22  C   UNL     1      -2.746  10.488  15.561  0.00  0.00    +0.000 C 
ENDBRANCH  14  21
BRANCH   5  23
ATOM     23  C   UNL     1      -1.174  13.728  23.415  0.00  0.00    +0.000 C 
BRANCH  23  24
ATOM     24  N   UNL     1      -1.020  15.170  23.455  0.00  0.00    +0.000 N 
ATOM     25  C   UNL     1      -1.297  15.940  24.565  0.00  0.00    +0.000 C 
ATOM     26  O   UNL     1      -1.638  15.537  25.663  0.00  0.00    +0.000 OA
ATOM     27  C   UNL     1      -1.236  17.385  24.155  0.00  0.00    +0.000 C 
ATOM     28  C   UNL     1      -0.419  17.381  22.875  0.00  0.00    +0.000 C 
ATOM     29  C   UNL     1      -0.460  15.942  22.361  0.00  0.00    +0.000 C 
BRANCH  29  30
ATOM     30  C   UNL     1       0.957  15.561  21.921  0.00  0.00    +0.000 C 
ATOM     31  O   UNL     1       1.606  14.716  22.525  0.00  0.00    +0.000 OA
BRANCH  30  32
ATOM     32  O   UNL     1       1.344  16.179  20.767  0.00  0.00    +0.000 OA
BRANCH  32  33
ATOM     33  C   UNL     1       1.102  15.525  19.489  0.00  0.00    +0.000 C 
ATOM     34  C   UNL     1      -0.401  15.359  19.225  0.00  0.00    +0.000 C 
ATOM     35  C   UNL     1       1.691  16.437  18.396  0.00  0.00    +0.000 C 
ATOM     36  C   UNL     1       1.856  14.191  19.436  0.00  0.00    +0.000 C 
ENDBRANCH  32  33
ENDBRANCH  30  32
ENDBRANCH  29  30
ENDBRANCH  23  24
ENDBRANCH   5  23
TORSDOF 9
ENDMDL
MODEL 7
REMARK VINA RESULT:      -5.0      2.221      3.834
REMARK  Name = 
REMARK  16 active torsions:
REMARK  status: ('A' for Active; 'I' for Inactive)
REMARK    1  A    between atoms: C_1  and  O_2
REMARK    2  A    between atoms: O_2  and  C_3
REMARK    3  A    between atoms: C_7  and  C_8
REMARK    4  A    between atoms: C_8  and  N_9
REMARK    5  A    between atoms: C_14  and  C_15
REMARK    6  A    between atoms: C_15  and  O_17
REMARK    7  A    between atoms: O_17  and  C_18
REMARK    8  A    between atoms: C_18  and  C_19
REMARK    9  A    between atoms: C_18  and  C_20
REMARK   10  A    between atoms: C_18  and  C_21
REMARK   11  A    between atoms: C_24  and  O_25
REMARK   12  A    between atoms: O_25  and  C_26
REMARK   13  A    between atoms: C_27  and  O_28
REMARK   14  A    between atoms: O_28  and  C_29
REMARK   15  A    between atoms: C_34  and  O_35
REMARK   16  A    between atoms: O_35  and  C_36
REMARK                            x       y       z     vdW  Elec       q    Type
REMARK                         _______ _______ _______ _____ _____    ______ ____
ROOT
ATOM      1  C   UNL     1      -5.843  13.689  22.191  0.00  0.00    +0.000 A 
ATOM      2  C   UNL     1      -4.544  14.087  22.551  0.00  0.00    +0.000 A 
ATOM      3  C   UNL     1      -3.420  13.718  21.800  0.00  0.00    +0.000 A 
ATOM      4  C   UNL     1      -2.153  14.169  22.179  0.00  0.00    +0.000 A 
ATOM      5  C   UNL     1      -1.005  13.762  21.501  0.00  0.00    +0.000 A 
ATOM      6  C   UNL     1      -1.127  12.808  20.453  0.00  0.00    +0.000 A 
ATOM      7  C   UNL     1      -0.016  12.186  19.849  0.00  0.00    +0.000 A 
ATOM      8  C   UNL     1      -0.126  11.184  18.861  0.00  0.00    +0.000 A 
ATOM      9  C   UNL     1      -1.376  10.917  18.313  0.00  0.00    +0.000 A 
ATOM     10  C   UNL     1      -2.488  11.538  18.892  0.00  0.00    +0.000 A 
ATOM     11  C   UNL     1      -2.417  12.414  19.998  0.00  0.00    +0.000 A 
ATOM     12  C   UNL     1      -3.578  12.885  20.677  0.00  0.00    +0.000 A 
ATOM     13  C   UNL     1      -4.899  12.522  20.315  0.00  0.00    +0.000 A 
ATOM     14  C   UNL     1      -6.026  12.905  21.050  0.00  0.00    +0.000 A 
ENDROOT
BRANCH   1  16
ATOM     15  C   UNL     1      -7.143  15.406  23.165  0.00  0.00    +0.000 C 
ATOM     16  O   UNL     1      -6.949  14.012  22.941  0.00  0.00    +0.000 OA
ENDBRANCH   1  16
BRANCH   8  17
ATOM     17  O   UNL     1       0.972  10.480  18.446  0.00  0.00    +0.000 OA
ATOM     18  C   UNL     1       1.242   9.289  19.194  0.00  0.00    +0.000 C 
ENDBRANCH   8  17
BRANCH   9  19
ATOM     19  O   UNL     1      -1.756  10.081  17.306  0.00  0.00    +0.000 OA
ATOM     20  C   UNL     1      -3.110  10.000  16.909  0.00  0.00    +0.000 C 
ENDBRANCH   9  19
BRANCH  14  21
ATOM     21  O   UNL     1      -7.308  12.545  20.707  0.00  0.00    +0.000 OA
ATOM     22  C   UNL     1      -7.512  11.186  20.313  0.00  0.00    +0.000 C 
ENDBRANCH  14  21
BRANCH   5  23
ATOM     23  C   UNL     1       0.326  14.387  21.902  0.00  0.00    +0.000 C 
BRANCH  23  24
ATOM     24  N   UNL     1       0.368  15.832  21.778  0.00  0.00    +0.000 N 
ATOM     25  C   UNL     1       0.925  16.667  22.724  0.00  0.00    +0.000 C 
ATOM     26  O   UNL     1       1.507  16.329  23.740  0.00  0.00    +0.000 OA
ATOM     27  C   UNL     1       0.579  18.083  22.356  0.00  0.00    +0.000 C 
ATOM     28  C   UNL     1       0.223  18.014  20.881  0.00  0.00    +0.000 C 
ATOM     29  C   UNL     1      -0.082  16.544  20.595  0.00  0.00    +0.000 C 
BRANCH  29  30
ATOM     30  C   UNL     1       0.605  16.169  19.280  0.00  0.00    +0.000 C 
ATOM     31  O   UNL     1       0.063  15.434  18.464  0.00  0.00    +0.000 OA
BRANCH  30  32
ATOM     32  O   UNL     1       1.797  16.810  19.097  0.00  0.00    +0.000 OA
BRANCH  32  33
ATOM     33  C   UNL     1       3.011  16.026  18.924  0.00  0.00    +0.000 C 
ATOM     34  C   UNL     1       2.822  14.588  19.427  0.00  0.00    +0.000 C 
ATOM     35  C   UNL     1       3.307  15.978  17.412  0.00  0.00    +0.000 C 
ATOM     36  C   UNL     1       4.189  16.733  19.605  0.00  0.00    +0.000 C 
ENDBRANCH  32  33
ENDBRANCH  30  32
ENDBRANCH  29  30
ENDBRANCH  23  24
ENDBRANCH   5  23
TORSDOF 9
ENDMDL
MODEL 8
REMARK VINA RESULT:      -5.0      1.944      3.687
REMARK  Name = 
REMARK  16 active torsions:
REMARK  status: ('A' for Active; 'I' for Inactive)
REMARK    1  A    between atoms: C_1  and  O_2
REMARK    2  A    between atoms: O_2  and  C_3
REMARK    3  A    between atoms: C_7  and  C_8
REMARK    4  A    between atoms: C_8  and  N_9
REMARK    5  A    between atoms: C_14  and  C_15
REMARK    6  A    between atoms: C_15  and  O_17
REMARK    7  A    between atoms: O_17  and  C_18
REMARK    8  A    between atoms: C_18  and  C_19
REMARK    9  A    between atoms: C_18  and  C_20
REMARK   10  A    between atoms: C_18  and  C_21
REMARK   11  A    between atoms: C_24  and  O_25
REMARK   12  A    between atoms: O_25  and  C_26
REMARK   13  A    between atoms: C_27  and  O_28
REMARK   14  A    between atoms: O_28  and  C_29
REMARK   15  A    between atoms: C_34  and  O_35
REMARK   16  A    between atoms: O_35  and  C_36
REMARK                            x       y       z     vdW  Elec       q    Type
REMARK                         _______ _______ _______ _____ _____    ______ ____
ROOT
ATOM      1  C   UNL     1      -4.128  11.831  17.210  0.00  0.00    +0.000 A 
ATOM      2  C   UNL     1      -3.784  11.942  18.569  0.00  0.00    +0.000 A 
ATOM      3  C   UNL     1      -2.584  11.424  19.075  0.00  0.00    +0.000 A 
ATOM      4  C   UNL     1      -2.270  11.592  20.426  0.00  0.00    +0.000 A 
ATOM      5  C   UNL     1      -1.123  11.027  20.980  0.00  0.00    +0.000 A 
ATOM      6  C   UNL     1      -0.301  10.200  20.166  0.00  0.00    +0.000 A 
ATOM      7  C   UNL     1       0.757   9.426  20.681  0.00  0.00    +0.000 A 
ATOM      8  C   UNL     1       1.533   8.546  19.896  0.00  0.00    +0.000 A 
ATOM      9  C   UNL     1       1.379   8.569  18.514  0.00  0.00    +0.000 A 
ATOM     10  C   UNL     1       0.342   9.344  17.985  0.00  0.00    +0.000 A 
ATOM     11  C   UNL     1      -0.559  10.099  18.770  0.00  0.00    +0.000 A 
ATOM     12  C   UNL     1      -1.711  10.729  18.218  0.00  0.00    +0.000 A 
ATOM     13  C   UNL     1      -2.064  10.657  16.847  0.00  0.00    +0.000 A 
ATOM     14  C   UNL     1      -3.251  11.190  16.333  0.00  0.00    +0.000 A 
ENDROOT
BRANCH   1  16
ATOM     15  C   UNL     1      -6.396  12.335  17.643  0.00  0.00    +0.000 C 
ATOM     16  O   UNL     1      -5.319  12.300  16.709  0.00  0.00    +0.000 OA
ENDBRANCH   1  16
BRANCH   8  17
ATOM     17  O   UNL     1       2.419   7.679  20.477  0.00  0.00    +0.000 OA
ATOM     18  C   UNL     1       2.001   6.309  20.491  0.00  0.00    +0.000 C 
ENDBRANCH   8  17
BRANCH   9  19
ATOM     19  O   UNL     1       2.041   7.903  17.526  0.00  0.00    +0.000 OA
ATOM     20  C   UNL     1       3.450   7.962  17.436  0.00  0.00    +0.000 C 
ENDBRANCH   9  19
BRANCH  14  21
ATOM     21  O   UNL     1      -3.600  11.111  15.006  0.00  0.00    +0.000 OA
ATOM     22  C   UNL     1      -3.159   9.954  14.291  0.00  0.00    +0.000 C 
ENDBRANCH  14  21
BRANCH   5  23
ATOM     23  C   UNL     1      -0.793  11.351  22.433  0.00  0.00    +0.000 C 
BRANCH  23  24
ATOM     24  N   UNL     1      -1.008  12.739  22.798  0.00  0.00    +0.000 N 
ATOM     25  C   UNL     1      -0.326  13.795  22.232  0.00  0.00    +0.000 C 
ATOM     26  O   UNL     1       0.485  13.735  21.324  0.00  0.00    +0.000 OA
ATOM     27  C   UNL     1      -0.654  15.035  23.016  0.00  0.00    +0.000 C 
ATOM     28  C   UNL     1      -1.945  14.694  23.740  0.00  0.00    +0.000 C 
ATOM     29  C   UNL     1      -2.038  13.168  23.726  0.00  0.00    +0.000 C 
BRANCH  29  30
ATOM     30  C   UNL     1      -3.476  12.790  23.361  0.00  0.00    +0.000 C 
ATOM     31  O   UNL     1      -4.149  12.066  24.085  0.00  0.00    +0.000 OA
BRANCH  30  32
ATOM     32  O   UNL     1      -3.925  13.416  22.233  0.00  0.00    +0.000 OA
BRANCH  32  33
ATOM     33  C   UNL     1      -5.279  13.949  22.201  0.00  0.00    +0.000 C 
ATOM     34  C   UNL     1      -5.420  15.045  21.137  0.00  0.00    +0.000 C 
ATOM     35  C   UNL     1      -6.215  12.783  21.827  0.00  0.00    +0.000 C 
ATOM     36  C   UNL     1      -5.680  14.435  23.599  0.00  0.00    +0.000 C 
ENDBRANCH  32  33
ENDBRANCH  30  32
ENDBRANCH  29  30
ENDBRANCH  23  24
ENDBRANCH   5  23
TORSDOF 9
ENDMDL
MODEL 9
REMARK VINA RESULT:      -4.9      2.659      6.146
REMARK  Name = 
REMARK  16 active torsions:
REMARK  status: ('A' for Active; 'I' for Inactive)
REMARK    1  A    between atoms: C_1  and  O_2
REMARK    2  A    between atoms: O_2  and  C_3
REMARK    3  A    between atoms: C_7  and  C_8
REMARK    4  A    between atoms: C_8  and  N_9
REMARK    5  A    between atoms: C_14  and  C_15
REMARK    6  A    between atoms: C_15  and  O_17
REMARK    7  A    between atoms: O_17  and  C_18
REMARK    8  A    between atoms: C_18  and  C_19
REMARK    9  A    between atoms: C_18  and  C_20
REMARK   10  A    between atoms: C_18  and  C_21
REMARK   11  A    between atoms: C_24  and  O_25
REMARK   12  A    between atoms: O_25  and  C_26
REMARK   13  A    between atoms: C_27  and  O_28
REMARK   14  A    between atoms: O_28  and  C_29
REMARK   15  A    between atoms: C_34  and  O_35
REMARK   16  A    between atoms: O_35  and  C_36
REMARK                            x       y       z     vdW  Elec       q    Type
REMARK                         _______ _______ _______ _____ _____    ______ ____
ROOT
ATOM      1  C   UNL     1      -2.617  14.473  24.320  0.00  0.00    +0.000 A 
ATOM      2  C   UNL     1      -1.379  14.171  23.725  0.00  0.00    +0.000 A 
ATOM      3  C   UNL     1      -1.287  13.647  22.429  0.00  0.00    +0.000 A 
ATOM      4  C   UNL     1      -0.032  13.398  21.868  0.00  0.00    +0.000 A 
ATOM      5  C   UNL     1       0.098  12.808  20.612  0.00  0.00    +0.000 A 
ATOM      6  C   UNL     1      -1.075  12.385  19.927  0.00  0.00    +0.000 A 
ATOM      7  C   UNL     1      -1.038  11.602  18.756  0.00  0.00    +0.000 A 
ATOM      8  C   UNL     1      -2.193  11.114  18.109  0.00  0.00    +0.000 A 
ATOM      9  C   UNL     1      -3.439  11.569  18.527  0.00  0.00    +0.000 A 
ATOM     10  C   UNL     1      -3.491  12.359  19.680  0.00  0.00    +0.000 A 
ATOM     11  C   UNL     1      -2.358  12.717  20.444  0.00  0.00    +0.000 A 
ATOM     12  C   UNL     1      -2.463  13.366  21.708  0.00  0.00    +0.000 A 
ATOM     13  C   UNL     1      -3.697  13.708  22.315  0.00  0.00    +0.000 A 
ATOM     14  C   UNL     1      -3.793  14.250  23.602  0.00  0.00    +0.000 A 
ENDROOT
BRANCH   1  16
ATOM     15  C   UNL     1      -1.562  15.613  26.102  0.00  0.00    +0.000 C 
ATOM     16  O   UNL     1      -2.722  14.950  25.605  0.00  0.00    +0.000 OA
ENDBRANCH   1  16
BRANCH   8  17
ATOM     17  O   UNL     1      -2.099  10.204  17.089  0.00  0.00    +0.000 OA
ATOM     18  C   UNL     1      -2.572  10.669  15.820  0.00  0.00    +0.000 C 
ENDBRANCH   8  17
BRANCH   9  19
ATOM     19  O   UNL     1      -4.690  11.336  18.040  0.00  0.00    +0.000 OA
ATOM     20  C   UNL     1      -5.828  11.853  18.701  0.00  0.00    +0.000 C 
ENDBRANCH   9  19
BRANCH  14  21
ATOM     21  O   UNL     1      -4.990  14.571  24.197  0.00  0.00    +0.000 OA
ATOM     22  C   UNL     1      -5.895  15.372  23.434  0.00  0.00    +0.000 C 
ENDBRANCH  14  21
BRANCH   5  23
ATOM     23  C   UNL     1       1.497  12.675  20.022  0.00  0.00    +0.000 C 
BRANCH  23  24
ATOM     24  N   UNL     1       2.150  13.940  19.743  0.00  0.00    +0.000 N 
ATOM     25  C   UNL     1       1.560  14.967  19.035  0.00  0.00    +0.000 C 
ATOM     26  O   UNL     1       0.418  14.996  18.610  0.00  0.00    +0.000 OA
ATOM     27  C   UNL     1       2.611  16.006  18.760  0.00  0.00    +0.000 C 
ATOM     28  C   UNL     1       3.696  15.728  19.786  0.00  0.00    +0.000 C 
ATOM     29  C   UNL     1       3.455  14.296  20.267  0.00  0.00    +0.000 C 
BRANCH  29  30
ATOM     30  C   UNL     1       3.597  14.284  21.791  0.00  0.00    +0.000 C 
ATOM     31  O   UNL     1       2.908  15.005  22.502  0.00  0.00    +0.000 OA
BRANCH  30  32
ATOM     32  O   UNL     1       4.475  13.339  22.240  0.00  0.00    +0.000 OA
BRANCH  32  33
ATOM     33  C   UNL     1       5.701  13.759  22.904  0.00  0.00    +0.000 C 
ATOM     34  C   UNL     1       6.680  12.588  23.057  0.00  0.00    +0.000 C 
ATOM     35  C   UNL     1       6.357  14.828  22.007  0.00  0.00    +0.000 C 
ATOM     36  C   UNL     1       5.366  14.422  24.245  0.00  0.00    +0.000 C 
ENDBRANCH  32  33
ENDBRANCH  30  32
ENDBRANCH  29  30
ENDBRANCH  23  24
ENDBRANCH   5  23
TORSDOF 9
ENDMDL
