MODEL 1
REMARK VINA RESULT:      -8.0      0.000      0.000
REMARK  Name = 
REMARK  7 active torsions:
REMARK  status: ('A' for Active; 'I' for Inactive)
REMARK    1  A    between atoms: C_1  and  C_2
REMARK    2  A    between atoms: N_4  and  C_5
REMARK    3  A    between atoms: C_5  and  C_6
REMARK    4  A    between atoms: C_12  and  C_13
REMARK    5  A    between atoms: C_14  and  N_15
REMARK    6  A    between atoms: C_16  and  C_18
REMARK    7  A    between atoms: C_20  and  C_21
REMARK                            x       y       z     vdW  Elec       q    Type
REMARK                         _______ _______ _______ _____ _____    ______ ____
ROOT
ATOM      1  C   UNL     1       1.943   3.360  17.858  0.00  0.00    +0.000 C 
ATOM      2  C   UNL     1       3.159   4.125  17.482  0.00  0.00    +0.000 A 
ATOM      3  N   UNL     1       4.176   3.493  16.877  0.00  0.00    +0.000 NA
ATOM      4  N   UNL     1       5.056   4.474  16.575  0.00  0.00    +0.000 N 
ATOM      5  C   UNL     1       4.616   5.730  16.944  0.00  0.00    +0.000 A 
ATOM      6  C   UNL     1       5.403   6.975  16.801  0.00  0.00    +0.000 C 
ATOM      7  C   UNL     1       3.399   5.519  17.572  0.00  0.00    +0.000 A 
ENDROOT
BRANCH   7   8
ATOM      8  N   UNL     1       2.651   6.547  18.103  0.00  0.00    +0.000 N 
ATOM      9  C   UNL     1       2.441   6.738  19.456  0.00  0.00    +0.000 C 
ATOM     10  O   UNL     1       2.830   6.005  20.358  0.00  0.00    +0.000 OA
ATOM     11  H   UNL     1       2.544   7.384  17.541  0.00  0.00    +0.000 HD
BRANCH   9  12
ATOM     12  C   UNL     1       1.758   8.010  19.733  0.00  0.00    +0.000 A 
ATOM     13  C   UNL     1       0.972   8.364  20.859  0.00  0.00    +0.000 A 
ATOM     14  C   UNL     1       0.538   9.655  20.621  0.00  0.00    +0.000 A 
ATOM     15  O   UNL     1       1.069  10.048  19.421  0.00  0.00    +0.000 OA
ATOM     16  N   UNL     1       1.839   9.044  18.877  0.00  0.00    +0.000 NA
BRANCH  14  17
ATOM     17  C   UNL     1      -0.305  10.523  21.399  0.00  0.00    +0.000 A 
ATOM     18  C   UNL     1      -0.615  10.376  22.740  0.00  0.00    +0.000 A 
ATOM     19  C   UNL     1      -1.476  11.405  23.222  0.00  0.00    +0.000 A 
ATOM     20  C   UNL     1      -1.798  12.308  22.234  0.00  0.00    +0.000 A 
ATOM     21  S   UNL     1      -1.066  11.910  20.740  0.00  0.00    +0.000 S 
ENDBRANCH  14  17
ENDBRANCH   9  12
ENDBRANCH   7   8
BRANCH   4  22
ATOM     22  C   UNL     1       6.383   4.096  16.098  0.00  0.00    +0.000 C 
BRANCH  22  23
ATOM     23  C   UNL     1       6.581   4.276  14.611  0.00  0.00    +0.000 A 
ATOM     24  C   UNL     1       7.519   5.203  14.130  0.00  0.00    +0.000 A 
ATOM     25  C   UNL     1       7.812   5.278  12.765  0.00  0.00    +0.000 A 
ATOM     26  C   UNL     1       7.171   4.429  11.866  0.00  0.00    +0.000 A 
ATOM     27  C   UNL     1       6.223   3.519  12.327  0.00  0.00    +0.000 A 
ATOM     28  C   UNL     1       5.928   3.443  13.690  0.00  0.00    +0.000 A 
ENDBRANCH  22  23
ENDBRANCH   4  22
TORSDOF 5
ENDMDL
MODEL 2
REMARK VINA RESULT:      -7.9      4.890      7.752
REMARK  Name = 
REMARK  7 active torsions:
REMARK  status: ('A' for Active; 'I' for Inactive)
REMARK    1  A    between atoms: C_1  and  C_2
REMARK    2  A    between atoms: N_4  and  C_5
REMARK    3  A    between atoms: C_5  and  C_6
REMARK    4  A    between atoms: C_12  and  C_13
REMARK    5  A    between atoms: C_14  and  N_15
REMARK    6  A    between atoms: C_16  and  C_18
REMARK    7  A    between atoms: C_20  and  C_21
REMARK                            x       y       z     vdW  Elec       q    Type
REMARK                         _______ _______ _______ _____ _____    ______ ____
ROOT
ATOM      1  C   UNL     1       6.638   4.769  14.981  0.00  0.00    +0.000 C 
ATOM      2  C   UNL     1       5.541   4.881  15.975  0.00  0.00    +0.000 A 
ATOM      3  N   UNL     1       4.609   3.919  16.041  0.00  0.00    +0.000 NA
ATOM      4  N   UNL     1       3.842   4.260  17.100  0.00  0.00    +0.000 N 
ATOM      5  C   UNL     1       4.276   5.405  17.739  0.00  0.00    +0.000 A 
ATOM      6  C   UNL     1       3.586   6.047  18.881  0.00  0.00    +0.000 C 
ATOM      7  C   UNL     1       5.360   5.846  16.997  0.00  0.00    +0.000 A 
ENDROOT
BRANCH   7   8
ATOM      8  N   UNL     1       6.059   6.990  17.315  0.00  0.00    +0.000 N 
ATOM      9  C   UNL     1       7.269   7.001  17.984  0.00  0.00    +0.000 C 
ATOM     10  O   UNL     1       7.855   6.023  18.435  0.00  0.00    +0.000 OA
ATOM     11  H   UNL     1       5.885   7.815  16.751  0.00  0.00    +0.000 HD
BRANCH   9  12
ATOM     12  C   UNL     1       7.863   8.346  18.025  0.00  0.00    +0.000 A 
ATOM     13  C   UNL     1       8.920   8.820  18.843  0.00  0.00    +0.000 A 
ATOM     14  C   UNL     1       9.077  10.154  18.515  0.00  0.00    +0.000 A 
ATOM     15  O   UNL     1       8.168  10.440  17.530  0.00  0.00    +0.000 OA
ATOM     16  N   UNL     1       7.430   9.323  17.210  0.00  0.00    +0.000 NA
BRANCH  14  17
ATOM     17  C   UNL     1       9.976  11.150  19.031  0.00  0.00    +0.000 A 
ATOM     18  C   UNL     1      10.065  11.568  20.348  0.00  0.00    +0.000 A 
ATOM     19  C   UNL     1      11.061  12.572  20.541  0.00  0.00    +0.000 A 
ATOM     20  C   UNL     1      11.702  12.889  19.365  0.00  0.00    +0.000 A 
ATOM     21  S   UNL     1      11.103  11.982  18.044  0.00  0.00    +0.000 S 
ENDBRANCH  14  17
ENDBRANCH   9  12
ENDBRANCH   7   8
BRANCH   4  22
ATOM     22  C   UNL     1       2.595   3.532  17.320  0.00  0.00    +0.000 C 
BRANCH  22  23
ATOM     23  C   UNL     1       2.338   3.165  18.763  0.00  0.00    +0.000 A 
ATOM     24  C   UNL     1       3.349   2.567  19.531  0.00  0.00    +0.000 A 
ATOM     25  C   UNL     1       3.170   2.352  20.901  0.00  0.00    +0.000 A 
ATOM     26  C   UNL     1       1.980   2.731  21.518  0.00  0.00    +0.000 A 
ATOM     27  C   UNL     1       0.960   3.306  20.763  0.00  0.00    +0.000 A 
ATOM     28  C   UNL     1       1.136   3.521  19.394  0.00  0.00    +0.000 A 
ENDBRANCH  22  23
ENDBRANCH   4  22
TORSDOF 5
ENDMDL
MODEL 3
REMARK VINA RESULT:      -7.8      1.438      1.711
REMARK  Name = 
REMARK  7 active torsions:
REMARK  status: ('A' for Active; 'I' for Inactive)
REMARK    1  A    between atoms: C_1  and  C_2
REMARK    2  A    between atoms: N_4  and  C_5
REMARK    3  A    between atoms: C_5  and  C_6
REMARK    4  A    between atoms: C_12  and  C_13
REMARK    5  A    between atoms: C_14  and  N_15
REMARK    6  A    between atoms: C_16  and  C_18
REMARK    7  A    between atoms: C_20  and  C_21
REMARK                            x       y       z     vdW  Elec       q    Type
REMARK                         _______ _______ _______ _____ _____    ______ ____
ROOT
ATOM      1  C   UNL     1       2.127   3.285  17.838  0.00  0.00    +0.000 C 
ATOM      2  C   UNL     1       3.318   4.091  17.469  0.00  0.00    +0.000 A 
ATOM      3  N   UNL     1       4.341   3.504  16.832  0.00  0.00    +0.000 NA
ATOM      4  N   UNL     1       5.192   4.516  16.549  0.00  0.00    +0.000 N 
ATOM      5  C   UNL     1       4.726   5.749  16.961  0.00  0.00    +0.000 A 
ATOM      6  C   UNL     1       5.479   7.018  16.846  0.00  0.00    +0.000 C 
ATOM      7  C   UNL     1       3.523   5.488  17.599  0.00  0.00    +0.000 A 
ENDROOT
BRANCH   7   8
ATOM      8  N   UNL     1       2.757   6.480  18.171  0.00  0.00    +0.000 N 
ATOM      9  C   UNL     1       2.498   6.580  19.525  0.00  0.00    +0.000 C 
ATOM     10  O   UNL     1       2.853   5.786  20.389  0.00  0.00    +0.000 OA
ATOM     11  H   UNL     1       2.672   7.354  17.663  0.00  0.00    +0.000 HD
BRANCH   9  12
ATOM     12  C   UNL     1       1.806   7.833  19.862  0.00  0.00    +0.000 A 
ATOM     13  C   UNL     1       1.552   8.953  19.030  0.00  0.00    +0.000 A 
ATOM     14  C   UNL     1       0.900   9.872  19.830  0.00  0.00    +0.000 A 
ATOM     15  O   UNL     1       0.754   9.303  21.068  0.00  0.00    +0.000 OA
ATOM     16  N   UNL     1       1.294   8.037  21.088  0.00  0.00    +0.000 NA
BRANCH  14  17
ATOM     17  C   UNL     1       0.417  11.196  19.542  0.00  0.00    +0.000 A 
ATOM     18  C   UNL     1       1.071  12.161  18.794  0.00  0.00    +0.000 A 
ATOM     19  C   UNL     1       0.328  13.373  18.687  0.00  0.00    +0.000 A 
ATOM     20  C   UNL     1      -0.873  13.298  19.356  0.00  0.00    +0.000 A 
ATOM     21  S   UNL     1      -1.094  11.775  20.105  0.00  0.00    +0.000 S 
ENDBRANCH  14  17
ENDBRANCH   9  12
ENDBRANCH   7   8
BRANCH   4  22
ATOM     22  C   UNL     1       6.521   4.187  16.043  0.00  0.00    +0.000 C 
BRANCH  22  23
ATOM     23  C   UNL     1       6.665   4.322  14.545  0.00  0.00    +0.000 A 
ATOM     24  C   UNL     1       7.582   5.236  14.002  0.00  0.00    +0.000 A 
ATOM     25  C   UNL     1       7.825   5.271  12.626  0.00  0.00    +0.000 A 
ATOM     26  C   UNL     1       7.155   4.394  11.777  0.00  0.00    +0.000 A 
ATOM     27  C   UNL     1       6.227   3.495  12.299  0.00  0.00    +0.000 A 
ATOM     28  C   UNL     1       5.982   3.460  13.674  0.00  0.00    +0.000 A 
ENDBRANCH  22  23
ENDBRANCH   4  22
TORSDOF 5
ENDMDL
MODEL 4
REMARK VINA RESULT:      -7.5      1.189      1.296
REMARK  Name = 
REMARK  7 active torsions:
REMARK  status: ('A' for Active; 'I' for Inactive)
REMARK    1  A    between atoms: C_1  and  C_2
REMARK    2  A    between atoms: N_4  and  C_5
REMARK    3  A    between atoms: C_5  and  C_6
REMARK    4  A    between atoms: C_12  and  C_13
REMARK    5  A    between atoms: C_14  and  N_15
REMARK    6  A    between atoms: C_16  and  C_18
REMARK    7  A    between atoms: C_20  and  C_21
REMARK                            x       y       z     vdW  Elec       q    Type
REMARK                         _______ _______ _______ _____ _____    ______ ____
ROOT
ATOM      1  C   UNL     1       1.883   3.831  17.619  0.00  0.00    +0.000 C 
ATOM      2  C   UNL     1       3.220   4.458  17.473  0.00  0.00    +0.000 A 
ATOM      3  N   UNL     1       4.162   3.843  16.743  0.00  0.00    +0.000 NA
ATOM      4  N   UNL     1       5.196   4.713  16.718  0.00  0.00    +0.000 N 
ATOM      5  C   UNL     1       4.932   5.890  17.389  0.00  0.00    +0.000 A 
ATOM      6  C   UNL     1       5.906   6.988  17.584  0.00  0.00    +0.000 C 
ATOM      7  C   UNL     1       3.663   5.728  17.922  0.00  0.00    +0.000 A 
ENDROOT
BRANCH   7   8
ATOM      8  N   UNL     1       3.051   6.697  18.687  0.00  0.00    +0.000 N 
ATOM      9  C   UNL     1       2.533   7.875  18.181  0.00  0.00    +0.000 C 
ATOM     10  O   UNL     1       2.593   8.249  17.016  0.00  0.00    +0.000 OA
ATOM     11  H   UNL     1       2.646   6.406  19.570  0.00  0.00    +0.000 HD
BRANCH   9  12
ATOM     12  C   UNL     1       1.786   8.628  19.199  0.00  0.00    +0.000 A 
ATOM     13  C   UNL     1       1.111   9.868  19.062  0.00  0.00    +0.000 A 
ATOM     14  C   UNL     1       0.597  10.155  20.312  0.00  0.00    +0.000 A 
ATOM     15  O   UNL     1       0.933   9.114  21.138  0.00  0.00    +0.000 OA
ATOM     16  N   UNL     1       1.650   8.160  20.452  0.00  0.00    +0.000 NA
BRANCH  14  17
ATOM     17  C   UNL     1      -0.158  11.285  20.784  0.00  0.00    +0.000 A 
ATOM     18  C   UNL     1      -0.498  11.549  22.099  0.00  0.00    +0.000 A 
ATOM     19  C   UNL     1      -1.250  12.753  22.242  0.00  0.00    +0.000 A 
ATOM     20  C   UNL     1      -1.461  13.371  21.030  0.00  0.00    +0.000 A 
ATOM     21  S   UNL     1      -0.757  12.501  19.736  0.00  0.00    +0.000 S 
ENDBRANCH  14  17
ENDBRANCH   9  12
ENDBRANCH   7   8
BRANCH   4  22
ATOM     22  C   UNL     1       6.476   4.258  16.181  0.00  0.00    +0.000 C 
BRANCH  22  23
ATOM     23  C   UNL     1       6.593   4.368  14.679  0.00  0.00    +0.000 A 
ATOM     24  C   UNL     1       7.547   5.223  14.105  0.00  0.00    +0.000 A 
ATOM     25  C   UNL     1       7.759   5.228  12.723  0.00  0.00    +0.000 A 
ATOM     26  C   UNL     1       7.022   4.381  11.900  0.00  0.00    +0.000 A 
ATOM     27  C   UNL     1       6.058   3.542  12.454  0.00  0.00    +0.000 A 
ATOM     28  C   UNL     1       5.843   3.536  13.834  0.00  0.00    +0.000 A 
ENDBRANCH  22  23
ENDBRANCH   4  22
TORSDOF 5
ENDMDL
MODEL 5
REMARK VINA RESULT:      -7.3      1.371      1.863
REMARK  Name = 
REMARK  7 active torsions:
REMARK  status: ('A' for Active; 'I' for Inactive)
REMARK    1  A    between atoms: C_1  and  C_2
REMARK    2  A    between atoms: N_4  and  C_5
REMARK    3  A    between atoms: C_5  and  C_6
REMARK    4  A    between atoms: C_12  and  C_13
REMARK    5  A    between atoms: C_14  and  N_15
REMARK    6  A    between atoms: C_16  and  C_18
REMARK    7  A    between atoms: C_20  and  C_21
REMARK                            x       y       z     vdW  Elec       q    Type
REMARK                         _______ _______ _______ _____ _____    ______ ____
ROOT
ATOM      1  C   UNL     1       2.362   3.333  17.566  0.00  0.00    +0.000 C 
ATOM      2  C   UNL     1       3.543   4.199  17.326  0.00  0.00    +0.000 A 
ATOM      3  N   UNL     1       4.611   3.699  16.687  0.00  0.00    +0.000 NA
ATOM      4  N   UNL     1       5.443   4.754  16.535  0.00  0.00    +0.000 N 
ATOM      5  C   UNL     1       4.922   5.932  17.033  0.00  0.00    +0.000 A 
ATOM      6  C   UNL     1       5.642   7.225  17.067  0.00  0.00    +0.000 C 
ATOM      7  C   UNL     1       3.701   5.583  17.589  0.00  0.00    +0.000 A 
ENDROOT
BRANCH   7   8
ATOM      8  N   UNL     1       2.882   6.500  18.210  0.00  0.00    +0.000 N 
ATOM      9  C   UNL     1       2.612   6.509  19.566  0.00  0.00    +0.000 C 
ATOM     10  O   UNL     1       3.006   5.687  20.387  0.00  0.00    +0.000 OA
ATOM     11  H   UNL     1       2.752   7.395  17.752  0.00  0.00    +0.000 HD
BRANCH   9  12
ATOM     12  C   UNL     1       1.854   7.702  19.969  0.00  0.00    +0.000 A 
ATOM     13  C   UNL     1       1.442   8.799  19.169  0.00  0.00    +0.000 A 
ATOM     14  C   UNL     1       0.788   9.662  20.028  0.00  0.00    +0.000 A 
ATOM     15  O   UNL     1       0.793   9.084  21.270  0.00  0.00    +0.000 OA
ATOM     16  N   UNL     1       1.433   7.864  21.235  0.00  0.00    +0.000 NA
BRANCH  14  17
ATOM     17  C   UNL     1       0.179  10.944  19.790  0.00  0.00    +0.000 A 
ATOM     18  C   UNL     1      -0.072  11.513  18.553  0.00  0.00    +0.000 A 
ATOM     19  C   UNL     1      -0.691  12.794  18.652  0.00  0.00    +0.000 A 
ATOM     20  C   UNL     1      -0.895  13.164  19.962  0.00  0.00    +0.000 A 
ATOM     21  S   UNL     1      -0.341  11.972  21.057  0.00  0.00    +0.000 S 
ENDBRANCH  14  17
ENDBRANCH   9  12
ENDBRANCH   7   8
BRANCH   4  22
ATOM     22  C   UNL     1       6.802   4.506  16.064  0.00  0.00    +0.000 C 
BRANCH  22  23
ATOM     23  C   UNL     1       6.926   4.385  14.563  0.00  0.00    +0.000 A 
ATOM     24  C   UNL     1       6.137   3.460  13.861  0.00  0.00    +0.000 A 
ATOM     25  C   UNL     1       6.140   3.435  12.464  0.00  0.00    +0.000 A 
ATOM     26  C   UNL     1       6.931   4.333  11.752  0.00  0.00    +0.000 A 
ATOM     27  C   UNL     1       7.735   5.243  12.435  0.00  0.00    +0.000 A 
ATOM     28  C   UNL     1       7.734   5.268  13.831  0.00  0.00    +0.000 A 
ENDBRANCH  22  23
ENDBRANCH   4  22
TORSDOF 5
ENDMDL
MODEL 6
REMARK VINA RESULT:      -7.3      4.188     10.836
REMARK  Name = 
REMARK  7 active torsions:
REMARK  status: ('A' for Active; 'I' for Inactive)
REMARK    1  A    between atoms: C_1  and  C_2
REMARK    2  A    between atoms: N_4  and  C_5
REMARK    3  A    between atoms: C_5  and  C_6
REMARK    4  A    between atoms: C_12  and  C_13
REMARK    5  A    between atoms: C_14  and  N_15
REMARK    6  A    between atoms: C_16  and  C_18
REMARK    7  A    between atoms: C_20  and  C_21
REMARK                            x       y       z     vdW  Elec       q    Type
REMARK                         _______ _______ _______ _____ _____    ______ ____
ROOT
ATOM      1  C   UNL     1      -0.929  12.284  21.107  0.00  0.00    +0.000 C 
ATOM      2  C   UNL     1      -1.844  11.831  20.030  0.00  0.00    +0.000 A 
ATOM      3  N   UNL     1      -2.977  12.510  19.796  0.00  0.00    +0.000 NA
ATOM      4  N   UNL     1      -3.510  11.918  18.704  0.00  0.00    +0.000 N 
ATOM      5  C   UNL     1      -2.732  10.891  18.208  0.00  0.00    +0.000 A 
ATOM      6  C   UNL     1      -3.105  10.024  17.068  0.00  0.00    +0.000 C 
ATOM      7  C   UNL     1      -1.660  10.793  19.082  0.00  0.00    +0.000 A 
ENDROOT
BRANCH   7   8
ATOM      8  N   UNL     1      -0.663   9.855  18.929  0.00  0.00    +0.000 N 
ATOM      9  C   UNL     1       0.663  10.161  18.689  0.00  0.00    +0.000 C 
ATOM     10  O   UNL     1       1.127  11.284  18.522  0.00  0.00    +0.000 OA
ATOM     11  H   UNL     1      -0.813   8.943  19.348  0.00  0.00    +0.000 HD
BRANCH   9  12
ATOM     12  C   UNL     1       1.523   8.970  18.750  0.00  0.00    +0.000 A 
ATOM     13  C   UNL     1       2.265   8.362  17.705  0.00  0.00    +0.000 A 
ATOM     14  C   UNL     1       2.878   7.262  18.273  0.00  0.00    +0.000 A 
ATOM     15  O   UNL     1       2.532   7.242  19.599  0.00  0.00    +0.000 OA
ATOM     16  N   UNL     1       1.711   8.305  19.903  0.00  0.00    +0.000 NA
BRANCH  14  17
ATOM     17  C   UNL     1       3.734   6.259  17.698  0.00  0.00    +0.000 A 
ATOM     18  C   UNL     1       3.482   4.898  17.651  0.00  0.00    +0.000 A 
ATOM     19  C   UNL     1       4.526   4.167  17.010  0.00  0.00    +0.000 A 
ATOM     20  C   UNL     1       5.543   4.992  16.586  0.00  0.00    +0.000 A 
ATOM     21  S   UNL     1       5.235   6.632  16.962  0.00  0.00    +0.000 S 
ENDBRANCH  14  17
ENDBRANCH   9  12
ENDBRANCH   7   8
BRANCH   4  22
ATOM     22  C   UNL     1      -4.868  12.281  18.309  0.00  0.00    +0.000 C 
BRANCH  22  23
ATOM     23  C   UNL     1      -5.950  11.624  19.133  0.00  0.00    +0.000 A 
ATOM     24  C   UNL     1      -6.372  10.319  18.836  0.00  0.00    +0.000 A 
ATOM     25  C   UNL     1      -7.268   9.650  19.675  0.00  0.00    +0.000 A 
ATOM     26  C   UNL     1      -7.755  10.278  20.818  0.00  0.00    +0.000 A 
ATOM     27  C   UNL     1      -7.361  11.581  21.115  0.00  0.00    +0.000 A 
ATOM     28  C   UNL     1      -6.466  12.251  20.278  0.00  0.00    +0.000 A 
ENDBRANCH  22  23
ENDBRANCH   4  22
TORSDOF 5
ENDMDL
MODEL 7
REMARK VINA RESULT:      -7.2      4.361      6.671
REMARK  Name = 
REMARK  7 active torsions:
REMARK  status: ('A' for Active; 'I' for Inactive)
REMARK    1  A    between atoms: C_1  and  C_2
REMARK    2  A    between atoms: N_4  and  C_5
REMARK    3  A    between atoms: C_5  and  C_6
REMARK    4  A    between atoms: C_12  and  C_13
REMARK    5  A    between atoms: C_14  and  N_15
REMARK    6  A    between atoms: C_16  and  C_18
REMARK    7  A    between atoms: C_20  and  C_21
REMARK                            x       y       z     vdW  Elec       q    Type
REMARK                         _______ _______ _______ _____ _____    ______ ____
ROOT
ATOM      1  C   UNL     1       0.110   8.978  22.641  0.00  0.00    +0.000 C 
ATOM      2  C   UNL     1       0.864   8.709  21.390  0.00  0.00    +0.000 A 
ATOM      3  N   UNL     1       1.400   7.496  21.190  0.00  0.00    +0.000 NA
ATOM      4  N   UNL     1       1.906   7.550  19.937  0.00  0.00    +0.000 N 
ATOM      5  C   UNL     1       1.682   8.761  19.313  0.00  0.00    +0.000 A 
ATOM      6  C   UNL     1       2.187   9.123  17.969  0.00  0.00    +0.000 C 
ATOM      7  C   UNL     1       1.039   9.544  20.258  0.00  0.00    +0.000 A 
ENDROOT
BRANCH   7   8
ATOM      8  N   UNL     1       0.664  10.846  20.010  0.00  0.00    +0.000 N 
ATOM      9  C   UNL     1      -0.608  11.230  19.628  0.00  0.00    +0.000 C 
ATOM     10  O   UNL     1      -1.552  10.481  19.401  0.00  0.00    +0.000 OA
ATOM     11  H   UNL     1       1.207  11.580  20.451  0.00  0.00    +0.000 HD
BRANCH   9  12
ATOM     12  C   UNL     1      -0.759  12.692  19.609  0.00  0.00    +0.000 A 
ATOM     13  C   UNL     1      -0.042  13.645  18.842  0.00  0.00    +0.000 A 
ATOM     14  C   UNL     1      -0.544  14.878  19.212  0.00  0.00    +0.000 A 
ATOM     15  O   UNL     1      -1.531  14.655  20.136  0.00  0.00    +0.000 OA
ATOM     16  N   UNL     1      -1.682  13.306  20.370  0.00  0.00    +0.000 NA
BRANCH  14  17
ATOM     17  C   UNL     1      -0.188  16.206  18.787  0.00  0.00    +0.000 A 
ATOM     18  C   UNL     1      -1.069  17.226  18.471  0.00  0.00    +0.000 A 
ATOM     19  C   UNL     1      -0.403  18.428  18.086  0.00  0.00    +0.000 A 
ATOM     20  C   UNL     1       0.966  18.288  18.121  0.00  0.00    +0.000 A 
ATOM     21  S   UNL     1       1.437  16.719  18.613  0.00  0.00    +0.000 S 
ENDBRANCH  14  17
ENDBRANCH   9  12
ENDBRANCH   7   8
BRANCH   4  22
ATOM     22  C   UNL     1       2.756   6.453  19.482  0.00  0.00    +0.000 C 
BRANCH  22  23
ATOM     23  C   UNL     1       2.023   5.151  19.262  0.00  0.00    +0.000 A 
ATOM     24  C   UNL     1       2.079   4.510  18.014  0.00  0.00    +0.000 A 
ATOM     25  C   UNL     1       1.524   3.239  17.839  0.00  0.00    +0.000 A 
ATOM     26  C   UNL     1       0.905   2.595  18.907  0.00  0.00    +0.000 A 
ATOM     27  C   UNL     1       0.823   3.228  20.146  0.00  0.00    +0.000 A 
ATOM     28  C   UNL     1       1.376   4.498  20.322  0.00  0.00    +0.000 A 
ENDBRANCH  22  23
ENDBRANCH   4  22
TORSDOF 5
ENDMDL
MODEL 8
REMARK VINA RESULT:      -7.1      4.789     10.222
REMARK  Name = 
REMARK  7 active torsions:
REMARK  status: ('A' for Active; 'I' for Inactive)
REMARK    1  A    between atoms: C_1  and  C_2
REMARK    2  A    between atoms: N_4  and  C_5
REMARK    3  A    between atoms: C_5  and  C_6
REMARK    4  A    between atoms: C_12  and  C_13
REMARK    5  A    between atoms: C_14  and  N_15
REMARK    6  A    between atoms: C_16  and  C_18
REMARK    7  A    between atoms: C_20  and  C_21
REMARK                            x       y       z     vdW  Elec       q    Type
REMARK                         _______ _______ _______ _____ _____    ______ ____
ROOT
ATOM      1  C   UNL     1      -1.943  11.876  17.956  0.00  0.00    +0.000 C 
ATOM      2  C   UNL     1      -0.833  12.693  18.506  0.00  0.00    +0.000 A 
ATOM      3  N   UNL     1      -1.075  13.948  18.911  0.00  0.00    +0.000 NA
ATOM      4  N   UNL     1       0.093  14.364  19.450  0.00  0.00    +0.000 N 
ATOM      5  C   UNL     1       1.076  13.394  19.430  0.00  0.00    +0.000 A 
ATOM      6  C   UNL     1       2.470  13.595  19.886  0.00  0.00    +0.000 C 
ATOM      7  C   UNL     1       0.504  12.310  18.782  0.00  0.00    +0.000 A 
ENDROOT
BRANCH   7   8
ATOM      8  N   UNL     1       1.191  11.139  18.549  0.00  0.00    +0.000 N 
ATOM      9  C   UNL     1       1.123  10.022  19.361  0.00  0.00    +0.000 C 
ATOM     10  O   UNL     1       0.503   9.931  20.414  0.00  0.00    +0.000 OA
ATOM     11  H   UNL     1       1.471  10.946  17.594  0.00  0.00    +0.000 HD
BRANCH   9  12
ATOM     12  C   UNL     1       1.818   8.869  18.769  0.00  0.00    +0.000 A 
ATOM     13  C   UNL     1       2.068   7.598  19.346  0.00  0.00    +0.000 A 
ATOM     14  C   UNL     1       2.775   6.888  18.394  0.00  0.00    +0.000 A 
ATOM     15  O   UNL     1       2.910   7.700  17.298  0.00  0.00    +0.000 OA
ATOM     16  N   UNL     1       2.304   8.917  17.517  0.00  0.00    +0.000 NA
BRANCH  14  17
ATOM     17  C   UNL     1       3.319   5.557  18.423  0.00  0.00    +0.000 A 
ATOM     18  C   UNL     1       2.727   4.420  17.900  0.00  0.00    +0.000 A 
ATOM     19  C   UNL     1       3.521   3.250  18.086  0.00  0.00    +0.000 A 
ATOM     20  C   UNL     1       4.696   3.529  18.747  0.00  0.00    +0.000 A 
ATOM     21  S   UNL     1       4.832   5.189  19.137  0.00  0.00    +0.000 S 
ENDBRANCH  14  17
ENDBRANCH   9  12
ENDBRANCH   7   8
BRANCH   4  22
ATOM     22  C   UNL     1       0.238  15.775  19.796  0.00  0.00    +0.000 C 
BRANCH  22  23
ATOM     23  C   UNL     1       0.338  16.698  18.605  0.00  0.00    +0.000 A 
ATOM     24  C   UNL     1      -0.797  17.386  18.146  0.00  0.00    +0.000 A 
ATOM     25  C   UNL     1      -0.688  18.347  17.136  0.00  0.00    +0.000 A 
ATOM     26  C   UNL     1       0.553  18.631  16.574  0.00  0.00    +0.000 A 
ATOM     27  C   UNL     1       1.684  17.942  17.005  0.00  0.00    +0.000 A 
ATOM     28  C   UNL     1       1.578  16.980  18.012  0.00  0.00    +0.000 A 
ENDBRANCH  22  23
ENDBRANCH   4  22
TORSDOF 5
ENDMDL
MODEL 9
REMARK VINA RESULT:      -7.0      3.244     10.691
REMARK  Name = 
REMARK  7 active torsions:
REMARK  status: ('A' for Active; 'I' for Inactive)
REMARK    1  A    between atoms: C_1  and  C_2
REMARK    2  A    between atoms: N_4  and  C_5
REMARK    3  A    between atoms: C_5  and  C_6
REMARK    4  A    between atoms: C_12  and  C_13
REMARK    5  A    between atoms: C_14  and  N_15
REMARK    6  A    between atoms: C_16  and  C_18
REMARK    7  A    between atoms: C_20  and  C_21
REMARK                            x       y       z     vdW  Elec       q    Type
REMARK                         _______ _______ _______ _____ _____    ______ ____
ROOT
ATOM      1  C   UNL     1      -2.085  10.035  16.888  0.00  0.00    +0.000 C 
ATOM      2  C   UNL     1      -1.533  10.617  18.137  0.00  0.00    +0.000 A 
ATOM      3  N   UNL     1      -2.172  11.636  18.730  0.00  0.00    +0.000 NA
ATOM      4  N   UNL     1      -1.487  11.848  19.876  0.00  0.00    +0.000 N 
ATOM      5  C   UNL     1      -0.438  10.968  20.052  0.00  0.00    +0.000 A 
ATOM      6  C   UNL     1       0.522  11.014  21.178  0.00  0.00    +0.000 C 
ATOM      7  C   UNL     1      -0.427  10.182  18.910  0.00  0.00    +0.000 A 
ENDROOT
BRANCH   7   8
ATOM      8  N   UNL     1       0.503   9.187  18.705  0.00  0.00    +0.000 N 
ATOM      9  C   UNL     1       1.720   9.376  18.077  0.00  0.00    +0.000 C 
ATOM     10  O   UNL     1       2.116  10.419  17.570  0.00  0.00    +0.000 OA
ATOM     11  H   UNL     1       0.473   8.386  19.326  0.00  0.00    +0.000 HD
BRANCH   9  12
ATOM     12  C   UNL     1       2.574   8.182  18.160  0.00  0.00    +0.000 A 
ATOM     13  C   UNL     1       3.717   7.858  17.386  0.00  0.00    +0.000 A 
ATOM     14  C   UNL     1       4.136   6.621  17.838  0.00  0.00    +0.000 A 
ATOM     15  O   UNL     1       3.290   6.249  18.850  0.00  0.00    +0.000 OA
ATOM     16  N   UNL     1       2.336   7.218  19.066  0.00  0.00    +0.000 NA
BRANCH  14  17
ATOM     17  C   UNL     1       5.226   5.784  17.414  0.00  0.00    +0.000 A 
ATOM     18  C   UNL     1       6.450   5.652  18.048  0.00  0.00    +0.000 A 
ATOM     19  C   UNL     1       7.320   4.739  17.380  0.00  0.00    +0.000 A 
ATOM     20  C   UNL     1       6.733   4.202  16.257  0.00  0.00    +0.000 A 
ATOM     21  S   UNL     1       5.148   4.798  16.015  0.00  0.00    +0.000 S 
ENDBRANCH  14  17
ENDBRANCH   9  12
ENDBRANCH   7   8
BRANCH   4  22
ATOM     22  C   UNL     1      -1.794  13.041  20.660  0.00  0.00    +0.000 C 
BRANCH  22  23
ATOM     23  C   UNL     1      -2.866  12.837  21.706  0.00  0.00    +0.000 A 
ATOM     24  C   UNL     1      -2.513  12.519  23.027  0.00  0.00    +0.000 A 
ATOM     25  C   UNL     1      -3.485  12.466  24.031  0.00  0.00    +0.000 A 
ATOM     26  C   UNL     1      -4.818  12.729  23.727  0.00  0.00    +0.000 A 
ATOM     27  C   UNL     1      -5.185  13.025  22.416  0.00  0.00    +0.000 A 
ATOM     28  C   UNL     1      -4.216  13.077  21.411  0.00  0.00    +0.000 A 
ENDBRANCH  22  23
ENDBRANCH   4  22
TORSDOF 5
ENDMDL
