MODEL 1
REMARK VINA RESULT:      -8.0      0.000      0.000
REMARK  Name = 
REMARK  6 active torsions:
REMARK  status: ('A' for Active; 'I' for Inactive)
REMARK    1  A    between atoms: C_1  and  N_2
REMARK    2  A    between atoms: N_2  and  C_3
REMARK    3  A    between atoms: N_2  and  S_10
REMARK    4  A    between atoms: S_10  and  C_13
REMARK    5  A    between atoms: C_16  and  C_17
REMARK    6  A    between atoms: N_19  and  C_20
REMARK                            x       y       z     vdW  Elec       q    Type
REMARK                         _______ _______ _______ _____ _____    ______ ____
ROOT
ATOM      1  C   UNL     1       2.064   4.822  19.049  0.00  0.00    +0.000 A 
ATOM      2  C   UNL     1       1.646   4.902  20.375  0.00  0.00    +0.000 A 
ATOM      3  C   UNL     1       1.425   6.155  20.951  0.00  0.00    +0.000 A 
ATOM      4  C   UNL     1       1.633   7.345  20.226  0.00  0.00    +0.000 A 
ATOM      5  C   UNL     1       2.095   7.254  18.906  0.00  0.00    +0.000 A 
ATOM      6  C   UNL     1       2.315   5.993  18.321  0.00  0.00    +0.000 A 
ENDROOT
BRANCH   4   7
ATOM      7  C   UNL     1       1.368   8.628  20.958  0.00  0.00    +0.000 C 
ATOM      8  O   UNL     1       1.760   8.692  22.120  0.00  0.00    +0.000 OA
ATOM      9  N   UNL     1       0.663   9.632  20.308  0.00  0.00    +0.000 N 
ATOM     10  H   UNL     1       0.216   9.422  19.429  0.00  0.00    +0.000 HD
BRANCH   9  11
ATOM     11  C   UNL     1       0.371  10.907  20.861  0.00  0.00    +0.000 A 
ATOM     12  C   UNL     1       1.073  12.070  20.519  0.00  0.00    +0.000 A 
ATOM     13  C   UNL     1       0.776  13.298  21.118  0.00  0.00    +0.000 A 
ATOM     14  C   UNL     1      -0.240  13.374  22.062  0.00  0.00    +0.000 A 
ATOM     15 BR   UNL     1      -0.624  15.030  22.889  0.00  0.00    +0.000 Br
ATOM     16  C   UNL     1      -0.971  12.237  22.397  0.00  0.00    +0.000 A 
ATOM     17  C   UNL     1      -0.671  11.008  21.789  0.00  0.00    +0.000 A 
ENDBRANCH   9  11
ENDBRANCH   4   7
BRANCH   1  18
ATOM     18  S   UNL     1       2.439   3.219  18.354  0.00  0.00    +0.000 S 
ATOM     19  O   UNL     1       2.228   3.313  16.923  0.00  0.00    +0.000 OA
ATOM     20  O   UNL     1       1.710   2.249  19.146  0.00  0.00    +0.000 OA
BRANCH  18  22
ATOM     21  C   UNL     1       4.495   2.016  19.662  0.00  0.00    +0.000 C 
ATOM     22  N   UNL     1       4.089   3.004  18.659  0.00  0.00    +0.000 N 
BRANCH  22  23
ATOM     23  C   UNL     1       5.018   4.025  18.298  0.00  0.00    +0.000 A 
ATOM     24  C   UNL     1       5.249   4.384  16.970  0.00  0.00    +0.000 A 
ATOM     25  C   UNL     1       6.106   5.450  16.675  0.00  0.00    +0.000 A 
ATOM     26  C   UNL     1       6.720   6.158  17.710  0.00  0.00    +0.000 A 
ATOM     27 CL   UNL     1       7.744   7.492  17.346  0.00  0.00    +0.000 Cl
ATOM     28  C   UNL     1       6.494   5.801  19.038  0.00  0.00    +0.000 A 
ATOM     29  C   UNL     1       5.648   4.730  19.329  0.00  0.00    +0.000 A 
ENDBRANCH  22  23
ENDBRANCH  18  22
ENDBRANCH   1  18
TORSDOF 5
ENDMDL
MODEL 2
REMARK VINA RESULT:      -7.9      1.655      1.915
REMARK  Name = 
REMARK  6 active torsions:
REMARK  status: ('A' for Active; 'I' for Inactive)
REMARK    1  A    between atoms: C_1  and  N_2
REMARK    2  A    between atoms: N_2  and  C_3
REMARK    3  A    between atoms: N_2  and  S_10
REMARK    4  A    between atoms: S_10  and  C_13
REMARK    5  A    between atoms: C_16  and  C_17
REMARK    6  A    between atoms: N_19  and  C_20
REMARK                            x       y       z     vdW  Elec       q    Type
REMARK                         _______ _______ _______ _____ _____    ______ ____
ROOT
ATOM      1  C   UNL     1       2.206   4.971  19.006  0.00  0.00    +0.000 A 
ATOM      2  C   UNL     1       2.226   5.914  17.980  0.00  0.00    +0.000 A 
ATOM      3  C   UNL     1       1.960   7.253  18.273  0.00  0.00    +0.000 A 
ATOM      4  C   UNL     1       1.653   7.672  19.583  0.00  0.00    +0.000 A 
ATOM      5  C   UNL     1       1.593   6.710  20.599  0.00  0.00    +0.000 A 
ATOM      6  C   UNL     1       1.865   5.360  20.309  0.00  0.00    +0.000 A 
ENDROOT
BRANCH   4   7
ATOM      7  C   UNL     1       1.378   9.136  19.767  0.00  0.00    +0.000 C 
ATOM      8  O   UNL     1       1.229   9.530  20.921  0.00  0.00    +0.000 OA
ATOM      9  N   UNL     1       1.258   9.939  18.640  0.00  0.00    +0.000 N 
ATOM     10  H   UNL     1       1.203   9.499  17.734  0.00  0.00    +0.000 HD
BRANCH   9  11
ATOM     11  C   UNL     1       1.035  11.341  18.662  0.00  0.00    +0.000 A 
ATOM     12  C   UNL     1       2.068  12.282  18.569  0.00  0.00    +0.000 A 
ATOM     13  C   UNL     1       1.806  13.654  18.634  0.00  0.00    +0.000 A 
ATOM     14  C   UNL     1       0.498  14.097  18.782  0.00  0.00    +0.000 A 
ATOM     15 BR   UNL     1       0.146  15.951  18.893  0.00  0.00    +0.000 Br
ATOM     16  C   UNL     1      -0.549  13.180  18.847  0.00  0.00    +0.000 A 
ATOM     17  C   UNL     1      -0.280  11.805  18.777  0.00  0.00    +0.000 A 
ENDBRANCH   9  11
ENDBRANCH   4   7
BRANCH   1  18
ATOM     18  S   UNL     1       2.450   3.247  18.604  0.00  0.00    +0.000 S 
ATOM     19  O   UNL     1       2.123   3.084  17.202  0.00  0.00    +0.000 OA
ATOM     20  O   UNL     1       1.748   2.487  19.619  0.00  0.00    +0.000 OA
BRANCH  18  22
ATOM     21  C   UNL     1       4.546   2.002  19.805  0.00  0.00    +0.000 C 
ATOM     22  N   UNL     1       4.109   2.997  18.821  0.00  0.00    +0.000 N 
BRANCH  22  23
ATOM     23  C   UNL     1       5.039   3.995  18.406  0.00  0.00    +0.000 A 
ATOM     24  C   UNL     1       5.290   4.265  17.061  0.00  0.00    +0.000 A 
ATOM     25  C   UNL     1       6.148   5.313  16.708  0.00  0.00    +0.000 A 
ATOM     26  C   UNL     1       6.741   6.093  17.703  0.00  0.00    +0.000 A 
ATOM     27 CL   UNL     1       7.765   7.404  17.265  0.00  0.00    +0.000 Cl
ATOM     28  C   UNL     1       6.495   5.826  19.048  0.00  0.00    +0.000 A 
ATOM     29  C   UNL     1       5.649   4.772  19.397  0.00  0.00    +0.000 A 
ENDBRANCH  22  23
ENDBRANCH  18  22
ENDBRANCH   1  18
TORSDOF 5
ENDMDL
MODEL 3
REMARK VINA RESULT:      -7.7      1.925      2.228
REMARK  Name = 
REMARK  6 active torsions:
REMARK  status: ('A' for Active; 'I' for Inactive)
REMARK    1  A    between atoms: C_1  and  N_2
REMARK    2  A    between atoms: N_2  and  C_3
REMARK    3  A    between atoms: N_2  and  S_10
REMARK    4  A    between atoms: S_10  and  C_13
REMARK    5  A    between atoms: C_16  and  C_17
REMARK    6  A    between atoms: N_19  and  C_20
REMARK                            x       y       z     vdW  Elec       q    Type
REMARK                         _______ _______ _______ _____ _____    ______ ____
ROOT
ATOM      1  C   UNL     1       2.162   5.172  19.341  0.00  0.00    +0.000 A 
ATOM      2  C   UNL     1       2.086   5.668  18.041  0.00  0.00    +0.000 A 
ATOM      3  C   UNL     1       1.946   7.042  17.839  0.00  0.00    +0.000 A 
ATOM      4  C   UNL     1       1.861   7.940  18.920  0.00  0.00    +0.000 A 
ATOM      5  C   UNL     1       1.894   7.427  20.224  0.00  0.00    +0.000 A 
ATOM      6  C   UNL     1       2.040   6.043  20.433  0.00  0.00    +0.000 A 
ENDROOT
BRANCH   4   7
ATOM      7  C   UNL     1       1.703   9.392  18.571  0.00  0.00    +0.000 C 
ATOM      8  O   UNL     1       2.158   9.753  17.489  0.00  0.00    +0.000 OA
ATOM      9  N   UNL     1       1.109  10.239  19.498  0.00  0.00    +0.000 N 
ATOM     10  H   UNL     1       0.941   9.897  20.432  0.00  0.00    +0.000 HD
BRANCH   9  11
ATOM     11  C   UNL     1       0.862  11.622  19.292  0.00  0.00    +0.000 A 
ATOM     12  C   UNL     1       1.803  12.619  19.580  0.00  0.00    +0.000 A 
ATOM     13  C   UNL     1       1.502  13.972  19.397  0.00  0.00    +0.000 A 
ATOM     14  C   UNL     1       0.254  14.339  18.911  0.00  0.00    +0.000 A 
ATOM     15 BR   UNL     1      -0.161  16.170  18.688  0.00  0.00    +0.000 Br
ATOM     16  C   UNL     1      -0.688  13.363  18.591  0.00  0.00    +0.000 A 
ATOM     17  C   UNL     1      -0.378  12.007  18.772  0.00  0.00    +0.000 A 
ENDBRANCH   9  11
ENDBRANCH   4   7
BRANCH   1  18
ATOM     18  S   UNL     1       2.241   3.404  19.591  0.00  0.00    +0.000 S 
ATOM     19  O   UNL     1       0.992   2.847  19.114  0.00  0.00    +0.000 OA
ATOM     20  O   UNL     1       2.663   3.203  20.964  0.00  0.00    +0.000 OA
BRANCH  18  22
ATOM     21  C   UNL     1       3.747   1.456  18.441  0.00  0.00    +0.000 C 
ATOM     22  N   UNL     1       3.499   2.893  18.581  0.00  0.00    +0.000 N 
BRANCH  22  23
ATOM     23  C   UNL     1       4.544   3.800  18.233  0.00  0.00    +0.000 A 
ATOM     24  C   UNL     1       4.804   4.164  16.912  0.00  0.00    +0.000 A 
ATOM     25  C   UNL     1       5.785   5.122  16.633  0.00  0.00    +0.000 A 
ATOM     26  C   UNL     1       6.492   5.720  17.677  0.00  0.00    +0.000 A 
ATOM     27 CL   UNL     1       7.671   6.925  17.333  0.00  0.00    +0.000 Cl
ATOM     28  C   UNL     1       6.237   5.358  18.999  0.00  0.00    +0.000 A 
ATOM     29  C   UNL     1       5.267   4.393  19.273  0.00  0.00    +0.000 A 
ENDBRANCH  22  23
ENDBRANCH  18  22
ENDBRANCH   1  18
TORSDOF 5
ENDMDL
MODEL 4
REMARK VINA RESULT:      -7.6      2.212      2.768
REMARK  Name = 
REMARK  6 active torsions:
REMARK  status: ('A' for Active; 'I' for Inactive)
REMARK    1  A    between atoms: C_1  and  N_2
REMARK    2  A    between atoms: N_2  and  C_3
REMARK    3  A    between atoms: N_2  and  S_10
REMARK    4  A    between atoms: S_10  and  C_13
REMARK    5  A    between atoms: C_16  and  C_17
REMARK    6  A    between atoms: N_19  and  C_20
REMARK                            x       y       z     vdW  Elec       q    Type
REMARK                         _______ _______ _______ _____ _____    ______ ____
ROOT
ATOM      1  C   UNL     1       2.504   6.586  19.643  0.00  0.00    +0.000 A 
ATOM      2  C   UNL     1       1.839   6.758  20.855  0.00  0.00    +0.000 A 
ATOM      3  C   UNL     1       1.072   7.907  21.059  0.00  0.00    +0.000 A 
ATOM      4  C   UNL     1       0.969   8.908  20.074  0.00  0.00    +0.000 A 
ATOM      5  C   UNL     1       1.676   8.745  18.875  0.00  0.00    +0.000 A 
ATOM      6  C   UNL     1       2.447   7.586  18.663  0.00  0.00    +0.000 A 
ENDROOT
BRANCH   4   7
ATOM      7  C   UNL     1       0.122  10.098  20.417  0.00  0.00    +0.000 C 
ATOM      8  O   UNL     1      -0.565  10.567  19.514  0.00  0.00    +0.000 OA
ATOM      9  N   UNL     1       0.201  10.624  21.700  0.00  0.00    +0.000 N 
ATOM     10  H   UNL     1       0.930  10.297  22.316  0.00  0.00    +0.000 HD
BRANCH   9  11
ATOM     11  C   UNL     1      -0.565  11.721  22.176  0.00  0.00    +0.000 A 
ATOM     12  C   UNL     1      -1.730  11.569  22.939  0.00  0.00    +0.000 A 
ATOM     13  C   UNL     1      -2.474  12.678  23.354  0.00  0.00    +0.000 A 
ATOM     14  C   UNL     1      -2.048  13.956  23.016  0.00  0.00    +0.000 A 
ATOM     15 BR   UNL     1      -3.068  15.453  23.557  0.00  0.00    +0.000 Br
ATOM     16  C   UNL     1      -0.877  14.133  22.283  0.00  0.00    +0.000 A 
ATOM     17  C   UNL     1      -0.132  13.017  21.874  0.00  0.00    +0.000 A 
ENDBRANCH   9  11
ENDBRANCH   4   7
BRANCH   1  18
ATOM     18  S   UNL     1       3.561   5.161  19.429  0.00  0.00    +0.000 S 
ATOM     19  O   UNL     1       3.066   4.124  20.312  0.00  0.00    +0.000 OA
ATOM     20  O   UNL     1       4.924   5.641  19.545  0.00  0.00    +0.000 OA
BRANCH  18  22
ATOM     21  C   UNL     1       2.176   3.815  17.517  0.00  0.00    +0.000 C 
ATOM     22  N   UNL     1       3.311   4.690  17.823  0.00  0.00    +0.000 N 
BRANCH  22  23
ATOM     23  C   UNL     1       4.382   4.765  16.885  0.00  0.00    +0.000 A 
ATOM     24  C   UNL     1       5.066   3.632  16.444  0.00  0.00    +0.000 A 
ATOM     25  C   UNL     1       6.051   3.753  15.458  0.00  0.00    +0.000 A 
ATOM     26  C   UNL     1       6.341   5.004  14.911  0.00  0.00    +0.000 A 
ATOM     27 CL   UNL     1       7.527   5.144  13.672  0.00  0.00    +0.000 Cl
ATOM     28  C   UNL     1       5.662   6.139  15.350  0.00  0.00    +0.000 A 
ATOM     29  C   UNL     1       4.687   6.018  16.342  0.00  0.00    +0.000 A 
ENDBRANCH  22  23
ENDBRANCH  18  22
ENDBRANCH   1  18
TORSDOF 5
ENDMDL
MODEL 5
REMARK VINA RESULT:      -7.6      1.518      1.873
REMARK  Name = 
REMARK  6 active torsions:
REMARK  status: ('A' for Active; 'I' for Inactive)
REMARK    1  A    between atoms: C_1  and  N_2
REMARK    2  A    between atoms: N_2  and  C_3
REMARK    3  A    between atoms: N_2  and  S_10
REMARK    4  A    between atoms: S_10  and  C_13
REMARK    5  A    between atoms: C_16  and  C_17
REMARK    6  A    between atoms: N_19  and  C_20
REMARK                            x       y       z     vdW  Elec       q    Type
REMARK                         _______ _______ _______ _____ _____    ______ ____
ROOT
ATOM      1  C   UNL     1       2.100   4.743  19.001  0.00  0.00    +0.000 A 
ATOM      2  C   UNL     1       1.844   5.241  20.277  0.00  0.00    +0.000 A 
ATOM      3  C   UNL     1       1.657   6.614  20.453  0.00  0.00    +0.000 A 
ATOM      4  C   UNL     1       1.739   7.512  19.371  0.00  0.00    +0.000 A 
ATOM      5  C   UNL     1       2.039   7.006  18.099  0.00  0.00    +0.000 A 
ATOM      6  C   UNL     1       2.224   5.622  17.916  0.00  0.00    +0.000 A 
ENDROOT
BRANCH   4   7
ATOM      7  C   UNL     1       1.527   8.963  19.691  0.00  0.00    +0.000 C 
ATOM      8  O   UNL     1       1.503   9.269  20.880  0.00  0.00    +0.000 OA
ATOM      9  N   UNL     1       1.322   9.853  18.644  0.00  0.00    +0.000 N 
ATOM     10  H   UNL     1       1.166   9.486  17.717  0.00  0.00    +0.000 HD
BRANCH   9  11
ATOM     11  C   UNL     1       1.144  11.254  18.793  0.00  0.00    +0.000 A 
ATOM     12  C   UNL     1      -0.041  11.830  19.266  0.00  0.00    +0.000 A 
ATOM     13  C   UNL     1      -0.184  13.218  19.360  0.00  0.00    +0.000 A 
ATOM     14  C   UNL     1       0.868  14.044  18.989  0.00  0.00    +0.000 A 
ATOM     15 BR   UNL     1       0.665  15.920  19.092  0.00  0.00    +0.000 Br
ATOM     16  C   UNL     1       2.067  13.493  18.542  0.00  0.00    +0.000 A 
ATOM     17  C   UNL     1       2.207  12.099  18.456  0.00  0.00    +0.000 A 
ENDBRANCH   9  11
ENDBRANCH   4   7
BRANCH   1  18
ATOM     18  S   UNL     1       2.435   2.999  18.802  0.00  0.00    +0.000 S 
ATOM     19  O   UNL     1       2.152   2.663  17.422  0.00  0.00    +0.000 OA
ATOM     20  O   UNL     1       1.745   2.324  19.883  0.00  0.00    +0.000 OA
BRANCH  18  22
ATOM     21  C   UNL     1       4.557   2.007  20.180  0.00  0.00    +0.000 C 
ATOM     22  N   UNL     1       4.099   2.858  19.078  0.00  0.00    +0.000 N 
BRANCH  22  23
ATOM     23  C   UNL     1       4.991   3.846  18.567  0.00  0.00    +0.000 A 
ATOM     24  C   UNL     1       5.237   3.991  17.201  0.00  0.00    +0.000 A 
ATOM     25  C   UNL     1       6.054   5.031  16.747  0.00  0.00    +0.000 A 
ATOM     26  C   UNL     1       6.613   5.928  17.659  0.00  0.00    +0.000 A 
ATOM     27 CL   UNL     1       7.588   7.229  17.094  0.00  0.00    +0.000 Cl
ATOM     28  C   UNL     1       6.372   5.786  19.024  0.00  0.00    +0.000 A 
ATOM     29  C   UNL     1       5.566   4.740  19.476  0.00  0.00    +0.000 A 
ENDBRANCH  22  23
ENDBRANCH  18  22
ENDBRANCH   1  18
TORSDOF 5
ENDMDL
MODEL 6
REMARK VINA RESULT:      -7.6      1.843      2.456
REMARK  Name = 
REMARK  6 active torsions:
REMARK  status: ('A' for Active; 'I' for Inactive)
REMARK    1  A    between atoms: C_1  and  N_2
REMARK    2  A    between atoms: N_2  and  C_3
REMARK    3  A    between atoms: N_2  and  S_10
REMARK    4  A    between atoms: S_10  and  C_13
REMARK    5  A    between atoms: C_16  and  C_17
REMARK    6  A    between atoms: N_19  and  C_20
REMARK                            x       y       z     vdW  Elec       q    Type
REMARK                         _______ _______ _______ _____ _____    ______ ____
ROOT
ATOM      1  C   UNL     1       3.530   5.552  18.391  0.00  0.00    +0.000 A 
ATOM      2  C   UNL     1       3.172   6.572  17.513  0.00  0.00    +0.000 A 
ATOM      3  C   UNL     1       2.439   7.661  17.989  0.00  0.00    +0.000 A 
ATOM      4  C   UNL     1       2.036   7.744  19.337  0.00  0.00    +0.000 A 
ATOM      5  C   UNL     1       2.364   6.691  20.201  0.00  0.00    +0.000 A 
ATOM      6  C   UNL     1       3.107   5.594  19.726  0.00  0.00    +0.000 A 
ENDROOT
BRANCH   4   7
ATOM      7  C   UNL     1       1.245   8.959  19.723  0.00  0.00    +0.000 C 
ATOM      8  O   UNL     1       0.781   9.632  18.807  0.00  0.00    +0.000 OA
ATOM      9  N   UNL     1       1.130   9.278  21.070  0.00  0.00    +0.000 N 
ATOM     10  H   UNL     1       1.701   8.782  21.738  0.00  0.00    +0.000 HD
BRANCH   9  11
ATOM     11  C   UNL     1       0.386  10.373  21.585  0.00  0.00    +0.000 A 
ATOM     12  C   UNL     1       0.570  11.694  21.154  0.00  0.00    +0.000 A 
ATOM     13  C   UNL     1      -0.159  12.746  21.717  0.00  0.00    +0.000 A 
ATOM     14  C   UNL     1      -1.090  12.482  22.713  0.00  0.00    +0.000 A 
ATOM     15 BR   UNL     1      -2.057  13.908  23.490  0.00  0.00    +0.000 Br
ATOM     16  C   UNL     1      -1.310  11.173  23.136  0.00  0.00    +0.000 A 
ATOM     17  C   UNL     1      -0.580  10.121  22.565  0.00  0.00    +0.000 A 
ENDBRANCH   9  11
ENDBRANCH   4   7
BRANCH   1  18
ATOM     18  S   UNL     1       4.382   4.117  17.750  0.00  0.00    +0.000 S 
ATOM     19  O   UNL     1       3.478   3.458  16.830  0.00  0.00    +0.000 OA
ATOM     20  O   UNL     1       4.912   3.409  18.899  0.00  0.00    +0.000 OA
BRANCH  18  22
ATOM     21  C   UNL     1       6.276   3.955  15.808  0.00  0.00    +0.000 C 
ATOM     22  N   UNL     1       5.688   4.756  16.886  0.00  0.00    +0.000 N 
BRANCH  22  23
ATOM     23  C   UNL     1       6.466   5.811  17.448  0.00  0.00    +0.000 A 
ATOM     24  C   UNL     1       7.374   5.596  18.485  0.00  0.00    +0.000 A 
ATOM     25  C   UNL     1       8.173   6.650  18.942  0.00  0.00    +0.000 A 
ATOM     26  C   UNL     1       8.068   7.911  18.353  0.00  0.00    +0.000 A 
ATOM     27 CL   UNL     1       9.079   9.195  18.892  0.00  0.00    +0.000 Cl
ATOM     28  C   UNL     1       7.161   8.131  17.318  0.00  0.00    +0.000 A 
ATOM     29  C   UNL     1       6.356   7.081  16.872  0.00  0.00    +0.000 A 
ENDBRANCH  22  23
ENDBRANCH  18  22
ENDBRANCH   1  18
TORSDOF 5
ENDMDL
MODEL 7
REMARK VINA RESULT:      -7.6      0.448      1.360
REMARK  Name = 
REMARK  6 active torsions:
REMARK  status: ('A' for Active; 'I' for Inactive)
REMARK    1  A    between atoms: C_1  and  N_2
REMARK    2  A    between atoms: N_2  and  C_3
REMARK    3  A    between atoms: N_2  and  S_10
REMARK    4  A    between atoms: S_10  and  C_13
REMARK    5  A    between atoms: C_16  and  C_17
REMARK    6  A    between atoms: N_19  and  C_20
REMARK                            x       y       z     vdW  Elec       q    Type
REMARK                         _______ _______ _______ _____ _____    ______ ____
ROOT
ATOM      1  C   UNL     1       2.034   4.931  19.050  0.00  0.00    +0.000 A 
ATOM      2  C   UNL     1       2.226   6.141  18.387  0.00  0.00    +0.000 A 
ATOM      3  C   UNL     1       2.015   7.339  19.071  0.00  0.00    +0.000 A 
ATOM      4  C   UNL     1       1.593   7.355  20.415  0.00  0.00    +0.000 A 
ATOM      5  C   UNL     1       1.362   6.132  21.060  0.00  0.00    +0.000 A 
ATOM      6  C   UNL     1       1.578   4.922  20.375  0.00  0.00    +0.000 A 
ENDROOT
BRANCH   4   7
ATOM      7  C   UNL     1       1.393   8.706  21.036  0.00  0.00    +0.000 C 
ATOM      8  O   UNL     1       1.694   8.820  22.221  0.00  0.00    +0.000 OA
ATOM      9  N   UNL     1       0.840   9.719  20.263  0.00  0.00    +0.000 N 
ATOM     10  H   UNL     1       0.447   9.486  19.364  0.00  0.00    +0.000 HD
BRANCH   9  11
ATOM     11  C   UNL     1       0.627  11.052  20.704  0.00  0.00    +0.000 A 
ATOM     12  C   UNL     1      -0.279  11.388  21.719  0.00  0.00    +0.000 A 
ATOM     13  C   UNL     1      -0.485  12.719  22.094  0.00  0.00    +0.000 A 
ATOM     14  C   UNL     1       0.227  13.729  21.461  0.00  0.00    +0.000 A 
ATOM     15 BR   UNL     1      -0.070  15.530  21.952  0.00  0.00    +0.000 Br
ATOM     16  C   UNL     1       1.155  13.417  20.470  0.00  0.00    +0.000 A 
ATOM     17  C   UNL     1       1.360  12.079  20.101  0.00  0.00    +0.000 A 
ENDBRANCH   9  11
ENDBRANCH   4   7
BRANCH   1  18
ATOM     18  S   UNL     1       2.212   3.404  18.137  0.00  0.00    +0.000 S 
ATOM     19  O   UNL     1       1.911   3.697  16.750  0.00  0.00    +0.000 OA
ATOM     20  O   UNL     1       1.454   2.404  18.862  0.00  0.00    +0.000 OA
BRANCH  18  22
ATOM     21  C   UNL     1       4.231   1.837  19.060  0.00  0.00    +0.000 C 
ATOM     22  N   UNL     1       3.853   3.018  18.280  0.00  0.00    +0.000 N 
BRANCH  22  23
ATOM     23  C   UNL     1       4.842   4.018  18.039  0.00  0.00    +0.000 A 
ATOM     24  C   UNL     1       5.103   4.513  16.762  0.00  0.00    +0.000 A 
ATOM     25  C   UNL     1       6.023   5.554  16.593  0.00  0.00    +0.000 A 
ATOM     26  C   UNL     1       6.669   6.101  17.703  0.00  0.00    +0.000 A 
ATOM     27 CL   UNL     1       7.772   7.406  17.495  0.00  0.00    +0.000 Cl
ATOM     28  C   UNL     1       6.413   5.607  18.980  0.00  0.00    +0.000 A 
ATOM     29  C   UNL     1       5.504   4.561  19.145  0.00  0.00    +0.000 A 
ENDBRANCH  22  23
ENDBRANCH  18  22
ENDBRANCH   1  18
TORSDOF 5
ENDMDL
MODEL 8
REMARK VINA RESULT:      -7.6      1.702      2.404
REMARK  Name = 
REMARK  6 active torsions:
REMARK  status: ('A' for Active; 'I' for Inactive)
REMARK    1  A    between atoms: C_1  and  N_2
REMARK    2  A    between atoms: N_2  and  C_3
REMARK    3  A    between atoms: N_2  and  S_10
REMARK    4  A    between atoms: S_10  and  C_13
REMARK    5  A    between atoms: C_16  and  C_17
REMARK    6  A    between atoms: N_19  and  C_20
REMARK                            x       y       z     vdW  Elec       q    Type
REMARK                         _______ _______ _______ _____ _____    ______ ____
ROOT
ATOM      1  C   UNL     1       3.509   5.404  18.763  0.00  0.00    +0.000 A 
ATOM      2  C   UNL     1       3.279   6.465  17.890  0.00  0.00    +0.000 A 
ATOM      3  C   UNL     1       2.523   7.557  18.320  0.00  0.00    +0.000 A 
ATOM      4  C   UNL     1       1.971   7.605  19.615  0.00  0.00    +0.000 A 
ATOM      5  C   UNL     1       2.172   6.514  20.471  0.00  0.00    +0.000 A 
ATOM      6  C   UNL     1       2.937   5.412  20.043  0.00  0.00    +0.000 A 
ENDROOT
BRANCH   4   7
ATOM      7  C   UNL     1       1.172   8.829  19.955  0.00  0.00    +0.000 C 
ATOM      8  O   UNL     1       0.645   9.423  19.019  0.00  0.00    +0.000 OA
ATOM      9  N   UNL     1       1.119   9.242  21.280  0.00  0.00    +0.000 N 
ATOM     10  H   UNL     1       1.735   8.808  21.950  0.00  0.00    +0.000 HD
BRANCH   9  11
ATOM     11  C   UNL     1       0.376  10.357  21.754  0.00  0.00    +0.000 A 
ATOM     12  C   UNL     1      -0.654  10.246  22.696  0.00  0.00    +0.000 A 
ATOM     13  C   UNL     1      -1.384  11.367  23.104  0.00  0.00    +0.000 A 
ATOM     14  C   UNL     1      -1.079  12.615  22.578  0.00  0.00    +0.000 A 
ATOM     15 BR   UNL     1      -2.083  14.125  23.113  0.00  0.00    +0.000 Br
ATOM     16  C   UNL     1      -0.039  12.754  21.661  0.00  0.00    +0.000 A 
ATOM     17  C   UNL     1       0.693  11.627  21.259  0.00  0.00    +0.000 A 
ENDBRANCH   9  11
ENDBRANCH   4   7
BRANCH   1  18
ATOM     18  S   UNL     1       4.392   3.968  18.170  0.00  0.00    +0.000 S 
ATOM     19  O   UNL     1       3.431   3.125  17.489  0.00  0.00    +0.000 OA
ATOM     20  O   UNL     1       5.152   3.462  19.295  0.00  0.00    +0.000 OA
BRANCH  18  22
ATOM     21  C   UNL     1       5.837   3.764  15.878  0.00  0.00    +0.000 C 
ATOM     22  N   UNL     1       5.487   4.587  17.039  0.00  0.00    +0.000 N 
BRANCH  22  23
ATOM     23  C   UNL     1       6.364   5.651  17.406  0.00  0.00    +0.000 A 
ATOM     24  C   UNL     1       6.293   6.911  16.813  0.00  0.00    +0.000 A 
ATOM     25  C   UNL     1       7.120   7.944  17.271  0.00  0.00    +0.000 A 
ATOM     26  C   UNL     1       8.004   7.714  18.326  0.00  0.00    +0.000 A 
ATOM     27 CL   UNL     1       8.992   8.996  18.910  0.00  0.00    +0.000 Cl
ATOM     28  C   UNL     1       8.079   6.455  18.920  0.00  0.00    +0.000 A 
ATOM     29  C   UNL     1       7.263   5.423  18.453  0.00  0.00    +0.000 A 
ENDBRANCH  22  23
ENDBRANCH  18  22
ENDBRANCH   1  18
TORSDOF 5
ENDMDL
MODEL 9
REMARK VINA RESULT:      -7.6      1.759      2.172
REMARK  Name = 
REMARK  6 active torsions:
REMARK  status: ('A' for Active; 'I' for Inactive)
REMARK    1  A    between atoms: C_1  and  N_2
REMARK    2  A    between atoms: N_2  and  C_3
REMARK    3  A    between atoms: N_2  and  S_10
REMARK    4  A    between atoms: S_10  and  C_13
REMARK    5  A    between atoms: C_16  and  C_17
REMARK    6  A    between atoms: N_19  and  C_20
REMARK                            x       y       z     vdW  Elec       q    Type
REMARK                         _______ _______ _______ _____ _____    ______ ____
ROOT
ATOM      1  C   UNL     1       2.244   5.143  19.013  0.00  0.00    +0.000 A 
ATOM      2  C   UNL     1       2.153   5.734  17.755  0.00  0.00    +0.000 A 
ATOM      3  C   UNL     1       2.005   7.119  17.657  0.00  0.00    +0.000 A 
ATOM      4  C   UNL     1       1.928   7.934  18.803  0.00  0.00    +0.000 A 
ATOM      5  C   UNL     1       1.977   7.325  20.064  0.00  0.00    +0.000 A 
ATOM      6  C   UNL     1       2.131   5.929  20.168  0.00  0.00    +0.000 A 
ENDROOT
BRANCH   4   7
ATOM      7  C   UNL     1       1.761   9.406  18.566  0.00  0.00    +0.000 C 
ATOM      8  O   UNL     1       2.361   9.883  17.606  0.00  0.00    +0.000 OA
ATOM      9  N   UNL     1       0.993  10.142  19.459  0.00  0.00    +0.000 N 
ATOM     10  H   UNL     1       0.699   9.708  20.320  0.00  0.00    +0.000 HD
BRANCH   9  11
ATOM     11  C   UNL     1       0.719  11.531  19.341  0.00  0.00    +0.000 A 
ATOM     12  C   UNL     1      -0.378  12.038  18.634  0.00  0.00    +0.000 A 
ATOM     13  C   UNL     1      -0.587  13.416  18.513  0.00  0.00    +0.000 A 
ATOM     14  C   UNL     1       0.301  14.300  19.111  0.00  0.00    +0.000 A 
ATOM     15 BR   UNL     1       0.031  16.162  18.925  0.00  0.00    +0.000 Br
ATOM     16  C   UNL     1       1.383  13.819  19.843  0.00  0.00    +0.000 A 
ATOM     17  C   UNL     1       1.585  12.436  19.966  0.00  0.00    +0.000 A 
ENDBRANCH   9  11
ENDBRANCH   4   7
BRANCH   1  18
ATOM     18  S   UNL     1       2.334   3.362  19.130  0.00  0.00    +0.000 S 
ATOM     19  O   UNL     1       1.758   2.823  17.914  0.00  0.00    +0.000 OA
ATOM     20  O   UNL     1       1.787   3.009  20.425  0.00  0.00    +0.000 OA
BRANCH  18  22
ATOM     21  C   UNL     1       4.492   2.039  20.117  0.00  0.00    +0.000 C 
ATOM     22  N   UNL     1       3.991   3.026  19.156  0.00  0.00    +0.000 N 
BRANCH  22  23
ATOM     23  C   UNL     1       4.915   3.958  18.597  0.00  0.00    +0.000 A 
ATOM     24  C   UNL     1       5.095   4.092  17.220  0.00  0.00    +0.000 A 
ATOM     25  C   UNL     1       5.951   5.081  16.723  0.00  0.00    +0.000 A 
ATOM     26  C   UNL     1       6.613   5.938  17.603  0.00  0.00    +0.000 A 
ATOM     27 CL   UNL     1       7.635   7.177  16.986  0.00  0.00    +0.000 Cl
ATOM     28  C   UNL     1       6.437   5.807  18.979  0.00  0.00    +0.000 A 
ATOM     29  C   UNL     1       5.593   4.811  19.474  0.00  0.00    +0.000 A 
ENDBRANCH  22  23
ENDBRANCH  18  22
ENDBRANCH   1  18
TORSDOF 5
ENDMDL
