MODEL 1
REMARK VINA RESULT:      -7.2      0.000      0.000
REMARK  Name = 
REMARK  5 active torsions:
REMARK  status: ('A' for Active; 'I' for Inactive)
REMARK    1  A    between atoms: C_4  and  C_5
REMARK    2  A    between atoms: C_5  and  N_6
REMARK    3  A    between atoms: C_9  and  C_10
REMARK    4  A    between atoms: C_10  and  O_11
REMARK    5  A    between atoms: O_11  and  C_12
REMARK                            x       y       z     vdW  Elec       q    Type
REMARK                         _______ _______ _______ _____ _____    ______ ____
ROOT
ATOM      1  N   UNL     1       6.661   5.364  15.138  0.00  0.00    +0.000 NA
ATOM      2  C   UNL     1       5.356   6.071  15.186  0.00  0.00    +0.000 C 
ATOM      3  C   UNL     1       4.854   6.265  16.624  0.00  0.00    +0.000 C 
ATOM      4  C   UNL     1       4.863   4.956  17.442  0.00  0.00    +0.000 C 
ATOM      5  C   UNL     1       6.305   4.423  17.429  0.00  0.00    +0.000 C 
ATOM      6  C   UNL     1       6.800   4.160  15.999  0.00  0.00    +0.000 C 
ENDROOT
BRANCH   1   7
ATOM      7  C   UNL     1       7.195   5.161  13.760  0.00  0.00    +0.000 C 
BRANCH   7  11
ATOM      8  C   UNL     1       5.414   2.113  11.189  0.00  0.00    +0.000 A 
ATOM      9  C   UNL     1       4.582   2.972  11.892  0.00  0.00    +0.000 A 
ATOM     10  C   UNL     1       5.134   3.940  12.722  0.00  0.00    +0.000 A 
ATOM     11  C   UNL     1       6.524   4.095  12.875  0.00  0.00    +0.000 A 
ATOM     12  C   UNL     1       7.353   3.211  12.157  0.00  0.00    +0.000 A 
ATOM     13  C   UNL     1       6.798   2.230  11.324  0.00  0.00    +0.000 A 
ENDBRANCH   7  11
ENDBRANCH   1   7
BRANCH   4  14
ATOM     14  C   UNL     1       3.802   3.926  16.984  0.00  0.00    +0.000 C 
BRANCH  14  15
ATOM     15  O   UNL     1       2.682   3.955  17.853  0.00  0.00    +0.000 OA
BRANCH  15  16
ATOM     16  C   UNL     1       2.197   2.644  18.150  0.00  0.00    +0.000 C 
ATOM     17  C   UNL     1       3.242   1.929  19.035  0.00  0.00    +0.000 C 
ATOM     18  C   UNL     1       3.435   2.687  20.361  0.00  0.00    +0.000 C 
ATOM     19  C   UNL     1       2.100   2.814  21.114  0.00  0.00    +0.000 C 
ATOM     20  C   UNL     1       1.029   3.470  20.230  0.00  0.00    +0.000 C 
ATOM     21  C   UNL     1       0.859   2.669  18.932  0.00  0.00    +0.000 C 
ENDBRANCH  15  16
ENDBRANCH  14  15
ENDBRANCH   4  14
TORSDOF 5
ENDMDL
MODEL 2
REMARK VINA RESULT:      -7.2      1.131      1.513
REMARK  Name = 
REMARK  5 active torsions:
REMARK  status: ('A' for Active; 'I' for Inactive)
REMARK    1  A    between atoms: C_4  and  C_5
REMARK    2  A    between atoms: C_5  and  N_6
REMARK    3  A    between atoms: C_9  and  C_10
REMARK    4  A    between atoms: C_10  and  O_11
REMARK    5  A    between atoms: O_11  and  C_12
REMARK                            x       y       z     vdW  Elec       q    Type
REMARK                         _______ _______ _______ _____ _____    ______ ____
ROOT
ATOM      1  N   UNL     1       6.512   5.888  16.766  0.00  0.00    +0.000 NA
ATOM      2  C   UNL     1       5.311   6.528  16.171  0.00  0.00    +0.000 C 
ATOM      3  C   UNL     1       4.305   6.981  17.239  0.00  0.00    +0.000 C 
ATOM      4  C   UNL     1       3.957   5.863  18.245  0.00  0.00    +0.000 C 
ATOM      5  C   UNL     1       5.277   5.407  18.888  0.00  0.00    +0.000 C 
ATOM      6  C   UNL     1       6.271   4.887  17.839  0.00  0.00    +0.000 C 
ENDROOT
BRANCH   1   7
ATOM      7  C   UNL     1       7.523   5.440  15.766  0.00  0.00    +0.000 C 
BRANCH   7  11
ATOM      8  C   UNL     1       6.170   3.673  12.009  0.00  0.00    +0.000 A 
ATOM      9  C   UNL     1       5.449   3.426  13.168  0.00  0.00    +0.000 A 
ATOM     10  C   UNL     1       5.874   3.973  14.373  0.00  0.00    +0.000 A 
ATOM     11  C   UNL     1       7.016   4.788  14.467  0.00  0.00    +0.000 A 
ATOM     12  C   UNL     1       7.738   5.024  13.281  0.00  0.00    +0.000 A 
ATOM     13  C   UNL     1       7.315   4.469  12.066  0.00  0.00    +0.000 A 
ENDBRANCH   7  11
ENDBRANCH   1   7
BRANCH   4  14
ATOM     14  C   UNL     1       3.118   4.713  17.636  0.00  0.00    +0.000 C 
BRANCH  14  15
ATOM     15  O   UNL     1       2.022   4.406  18.480  0.00  0.00    +0.000 OA
BRANCH  15  16
ATOM     16  C   UNL     1       1.734   3.007  18.502  0.00  0.00    +0.000 C 
ATOM     17  C   UNL     1       3.025   2.252  18.887  0.00  0.00    +0.000 C 
ATOM     18  C   UNL     1       3.496   2.671  20.291  0.00  0.00    +0.000 C 
ATOM     19  C   UNL     1       2.397   2.409  21.335  0.00  0.00    +0.000 C 
ATOM     20  C   UNL     1       1.086   3.104  20.939  0.00  0.00    +0.000 C 
ATOM     21  C   UNL     1       0.647   2.640  19.544  0.00  0.00    +0.000 C 
ENDBRANCH  15  16
ENDBRANCH  14  15
ENDBRANCH   4  14
TORSDOF 5
ENDMDL
MODEL 3
REMARK VINA RESULT:      -7.1      3.022      7.146
REMARK  Name = 
REMARK  5 active torsions:
REMARK  status: ('A' for Active; 'I' for Inactive)
REMARK    1  A    between atoms: C_4  and  C_5
REMARK    2  A    between atoms: C_5  and  N_6
REMARK    3  A    between atoms: C_9  and  C_10
REMARK    4  A    between atoms: C_10  and  O_11
REMARK    5  A    between atoms: O_11  and  C_12
REMARK                            x       y       z     vdW  Elec       q    Type
REMARK                         _______ _______ _______ _____ _____    ______ ____
ROOT
ATOM      1  N   UNL     1       2.273   4.499  20.208  0.00  0.00    +0.000 NA
ATOM      2  C   UNL     1       1.303   4.218  19.119  0.00  0.00    +0.000 C 
ATOM      3  C   UNL     1       1.538   2.845  18.472  0.00  0.00    +0.000 C 
ATOM      4  C   UNL     1       3.006   2.631  18.044  0.00  0.00    +0.000 C 
ATOM      5  C   UNL     1       3.875   2.805  19.301  0.00  0.00    +0.000 C 
ATOM      6  C   UNL     1       3.701   4.198  19.923  0.00  0.00    +0.000 C 
ENDROOT
BRANCH   1   7
ATOM      7  C   UNL     1       2.076   5.819  20.874  0.00  0.00    +0.000 C 
BRANCH   7  11
ATOM      8  C   UNL     1       1.624   9.411  18.431  0.00  0.00    +0.000 A 
ATOM      9  C   UNL     1       2.306   8.321  17.908  0.00  0.00    +0.000 A 
ATOM     10  C   UNL     1       2.467   7.175  18.678  0.00  0.00    +0.000 A 
ATOM     11  C   UNL     1       1.951   7.067  19.983  0.00  0.00    +0.000 A 
ATOM     12  C   UNL     1       1.265   8.185  20.498  0.00  0.00    +0.000 A 
ATOM     13  C   UNL     1       1.107   9.344  19.726  0.00  0.00    +0.000 A 
ENDBRANCH   7  11
ENDBRANCH   1   7
BRANCH   4  14
ATOM     14  C   UNL     1       3.442   3.509  16.846  0.00  0.00    +0.000 C 
BRANCH  14  15
ATOM     15  O   UNL     1       4.857   3.564  16.768  0.00  0.00    +0.000 OA
BRANCH  15  16
ATOM     16  C   UNL     1       5.306   4.496  15.782  0.00  0.00    +0.000 C 
ATOM     17  C   UNL     1       4.983   5.922  16.281  0.00  0.00    +0.000 C 
ATOM     18  C   UNL     1       5.725   6.214  17.597  0.00  0.00    +0.000 C 
ATOM     19  C   UNL     1       7.243   6.047  17.415  0.00  0.00    +0.000 C 
ATOM     20  C   UNL     1       7.581   4.654  16.864  0.00  0.00    +0.000 C 
ATOM     21  C   UNL     1       6.835   4.418  15.544  0.00  0.00    +0.000 C 
ENDBRANCH  15  16
ENDBRANCH  14  15
ENDBRANCH   4  14
TORSDOF 5
ENDMDL
MODEL 4
REMARK VINA RESULT:      -7.1      0.119      1.053
REMARK  Name = 
REMARK  5 active torsions:
REMARK  status: ('A' for Active; 'I' for Inactive)
REMARK    1  A    between atoms: C_4  and  C_5
REMARK    2  A    between atoms: C_5  and  N_6
REMARK    3  A    between atoms: C_9  and  C_10
REMARK    4  A    between atoms: C_10  and  O_11
REMARK    5  A    between atoms: O_11  and  C_12
REMARK                            x       y       z     vdW  Elec       q    Type
REMARK                         _______ _______ _______ _____ _____    ______ ____
ROOT
ATOM      1  N   UNL     1       6.670   5.341  15.077  0.00  0.00    +0.000 NA
ATOM      2  C   UNL     1       5.369   6.054  15.145  0.00  0.00    +0.000 C 
ATOM      3  C   UNL     1       4.870   6.215  16.588  0.00  0.00    +0.000 C 
ATOM      4  C   UNL     1       4.873   4.885  17.373  0.00  0.00    +0.000 C 
ATOM      5  C   UNL     1       6.312   4.344  17.343  0.00  0.00    +0.000 C 
ATOM      6  C   UNL     1       6.803   4.115  15.907  0.00  0.00    +0.000 C 
ENDROOT
BRANCH   1   7
ATOM      7  C   UNL     1       7.200   5.170  13.693  0.00  0.00    +0.000 C 
BRANCH   7  11
ATOM      8  C   UNL     1       5.291   2.108  11.234  0.00  0.00    +0.000 A 
ATOM      9  C   UNL     1       6.674   2.114  11.350  0.00  0.00    +0.000 A 
ATOM     10  C   UNL     1       7.296   3.089  12.120  0.00  0.00    +0.000 A 
ATOM     11  C   UNL     1       6.571   4.080  12.808  0.00  0.00    +0.000 A 
ATOM     12  C   UNL     1       5.169   4.060  12.675  0.00  0.00    +0.000 A 
ATOM     13  C   UNL     1       4.540   3.081  11.894  0.00  0.00    +0.000 A 
ENDBRANCH   7  11
ENDBRANCH   1   7
BRANCH   4  14
ATOM     14  C   UNL     1       3.805   3.873  16.890  0.00  0.00    +0.000 C 
BRANCH  14  15
ATOM     15  O   UNL     1       2.702   3.861  17.780  0.00  0.00    +0.000 OA
BRANCH  15  16
ATOM     16  C   UNL     1       2.269   2.534  18.084  0.00  0.00    +0.000 C 
ATOM     17  C   UNL     1       3.313   1.884  19.019  0.00  0.00    +0.000 C 
ATOM     18  C   UNL     1       3.420   2.671  20.337  0.00  0.00    +0.000 C 
ATOM     19  C   UNL     1       2.054   2.747  21.038  0.00  0.00    +0.000 C 
ATOM     20  C   UNL     1       0.987   3.336  20.105  0.00  0.00    +0.000 C 
ATOM     21  C   UNL     1       0.903   2.507  18.816  0.00  0.00    +0.000 C 
ENDBRANCH  15  16
ENDBRANCH  14  15
ENDBRANCH   4  14
TORSDOF 5
ENDMDL
MODEL 5
REMARK VINA RESULT:      -7.0      1.333      2.244
REMARK  Name = 
REMARK  5 active torsions:
REMARK  status: ('A' for Active; 'I' for Inactive)
REMARK    1  A    between atoms: C_4  and  C_5
REMARK    2  A    between atoms: C_5  and  N_6
REMARK    3  A    between atoms: C_9  and  C_10
REMARK    4  A    between atoms: C_10  and  O_11
REMARK    5  A    between atoms: O_11  and  C_12
REMARK                            x       y       z     vdW  Elec       q    Type
REMARK                         _______ _______ _______ _____ _____    ______ ____
ROOT
ATOM      1  N   UNL     1       5.605   4.755  16.801  0.00  0.00    +0.000 NA
ATOM      2  C   UNL     1       4.848   5.875  16.185  0.00  0.00    +0.000 C 
ATOM      3  C   UNL     1       4.512   6.976  17.202  0.00  0.00    +0.000 C 
ATOM      4  C   UNL     1       3.844   6.425  18.480  0.00  0.00    +0.000 C 
ATOM      5  C   UNL     1       4.808   5.391  19.085  0.00  0.00    +0.000 C 
ATOM      6  C   UNL     1       5.102   4.247  18.104  0.00  0.00    +0.000 C 
ENDROOT
BRANCH   1   7
ATOM      7  C   UNL     1       5.963   3.665  15.848  0.00  0.00    +0.000 C 
BRANCH   7  11
ATOM      8  C   UNL     1       7.346   4.684  11.833  0.00  0.00    +0.000 A 
ATOM      9  C   UNL     1       7.908   5.332  12.924  0.00  0.00    +0.000 A 
ATOM     10  C   UNL     1       7.470   5.026  14.207  0.00  0.00    +0.000 A 
ATOM     11  C   UNL     1       6.473   4.063  14.452  0.00  0.00    +0.000 A 
ATOM     12  C   UNL     1       5.912   3.419  13.331  0.00  0.00    +0.000 A 
ATOM     13  C   UNL     1       6.348   3.731  12.036  0.00  0.00    +0.000 A 
ENDBRANCH   7  11
ENDBRANCH   1   7
BRANCH   4  14
ATOM     14  C   UNL     1       2.406   5.896  18.256  0.00  0.00    +0.000 C 
BRANCH  14  15
ATOM     15  O   UNL     1       2.373   4.487  18.408  0.00  0.00    +0.000 OA
BRANCH  15  16
ATOM     16  C   UNL     1       1.164   4.040  19.024  0.00  0.00    +0.000 C 
ATOM     17  C   UNL     1       1.195   2.497  19.090  0.00  0.00    +0.000 C 
ATOM     18  C   UNL     1       2.380   2.018  19.947  0.00  0.00    +0.000 C 
ATOM     19  C   UNL     1       2.301   2.608  21.365  0.00  0.00    +0.000 C 
ATOM     20  C   UNL     1       2.211   4.140  21.319  0.00  0.00    +0.000 C 
ATOM     21  C   UNL     1       1.004   4.568  20.472  0.00  0.00    +0.000 C 
ENDBRANCH  15  16
ENDBRANCH  14  15
ENDBRANCH   4  14
TORSDOF 5
ENDMDL
MODEL 6
REMARK VINA RESULT:      -7.0      2.905      7.122
REMARK  Name = 
REMARK  5 active torsions:
REMARK  status: ('A' for Active; 'I' for Inactive)
REMARK    1  A    between atoms: C_4  and  C_5
REMARK    2  A    between atoms: C_5  and  N_6
REMARK    3  A    between atoms: C_9  and  C_10
REMARK    4  A    between atoms: C_10  and  O_11
REMARK    5  A    between atoms: O_11  and  C_12
REMARK                            x       y       z     vdW  Elec       q    Type
REMARK                         _______ _______ _______ _____ _____    ______ ____
ROOT
ATOM      1  N   UNL     1       2.226   3.995  20.227  0.00  0.00    +0.000 NA
ATOM      2  C   UNL     1       1.276   3.831  19.097  0.00  0.00    +0.000 C 
ATOM      3  C   UNL     1       1.545   2.550  18.294  0.00  0.00    +0.000 C 
ATOM      4  C   UNL     1       3.022   2.412  17.866  0.00  0.00    +0.000 C 
ATOM      5  C   UNL     1       3.870   2.447  19.148  0.00  0.00    +0.000 C 
ATOM      6  C   UNL     1       3.663   3.752  19.930  0.00  0.00    +0.000 C 
ENDROOT
BRANCH   1   7
ATOM      7  C   UNL     1       1.998   5.222  21.043  0.00  0.00    +0.000 C 
BRANCH   7  11
ATOM      8  C   UNL     1       1.716   8.992  18.858  0.00  0.00    +0.000 A 
ATOM      9  C   UNL     1       1.189   8.915  20.140  0.00  0.00    +0.000 A 
ATOM     10  C   UNL     1       1.263   7.718  20.844  0.00  0.00    +0.000 A 
ATOM     11  C   UNL     1       1.866   6.566  20.307  0.00  0.00    +0.000 A 
ATOM     12  C   UNL     1       2.391   6.663  19.003  0.00  0.00    +0.000 A 
ATOM     13  C   UNL     1       2.313   7.866  18.290  0.00  0.00    +0.000 A 
ENDBRANCH   7  11
ENDBRANCH   1   7
BRANCH   4  14
ATOM     14  C   UNL     1       3.458   3.435  16.789  0.00  0.00    +0.000 C 
BRANCH  14  15
ATOM     15  O   UNL     1       4.873   3.501  16.721  0.00  0.00    +0.000 OA
BRANCH  15  16
ATOM     16  C   UNL     1       5.322   4.508  15.812  0.00  0.00    +0.000 C 
ATOM     17  C   UNL     1       4.960   5.890  16.401  0.00  0.00    +0.000 C 
ATOM     18  C   UNL     1       5.669   6.104  17.750  0.00  0.00    +0.000 C 
ATOM     19  C   UNL     1       7.194   5.979  17.589  0.00  0.00    +0.000 C 
ATOM     20  C   UNL     1       7.572   4.635  16.950  0.00  0.00    +0.000 C 
ATOM     21  C   UNL     1       6.857   4.477  15.601  0.00  0.00    +0.000 C 
ENDBRANCH  15  16
ENDBRANCH  14  15
ENDBRANCH   4  14
TORSDOF 5
ENDMDL
MODEL 7
REMARK VINA RESULT:      -7.0      3.693      7.764
REMARK  Name = 
REMARK  5 active torsions:
REMARK  status: ('A' for Active; 'I' for Inactive)
REMARK    1  A    between atoms: C_4  and  C_5
REMARK    2  A    between atoms: C_5  and  N_6
REMARK    3  A    between atoms: C_9  and  C_10
REMARK    4  A    between atoms: C_10  and  O_11
REMARK    5  A    between atoms: O_11  and  C_12
REMARK                            x       y       z     vdW  Elec       q    Type
REMARK                         _______ _______ _______ _____ _____    ______ ____
ROOT
ATOM      1  N   UNL     1       2.436   6.035  19.056  0.00  0.00    +0.000 NA
ATOM      2  C   UNL     1       1.839   5.366  17.872  0.00  0.00    +0.000 C 
ATOM      3  C   UNL     1       1.717   3.847  18.063  0.00  0.00    +0.000 C 
ATOM      4  C   UNL     1       3.039   3.195  18.523  0.00  0.00    +0.000 C 
ATOM      5  C   UNL     1       3.453   3.885  19.833  0.00  0.00    +0.000 C 
ATOM      6  C   UNL     1       3.644   5.397  19.644  0.00  0.00    +0.000 C 
ENDROOT
BRANCH   1   7
ATOM      7  C   UNL     1       2.565   7.515  18.920  0.00  0.00    +0.000 C 
BRANCH   7  11
ATOM      8  C   UNL     1      -0.238   9.928  21.241  0.00  0.00    +0.000 A 
ATOM      9  C   UNL     1       0.083  10.323  19.950  0.00  0.00    +0.000 A 
ATOM     10  C   UNL     1       0.982   9.570  19.203  0.00  0.00    +0.000 A 
ATOM     11  C   UNL     1       1.582   8.401  19.705  0.00  0.00    +0.000 A 
ATOM     12  C   UNL     1       1.248   8.019  21.019  0.00  0.00    +0.000 A 
ATOM     13  C   UNL     1       0.346   8.779  21.776  0.00  0.00    +0.000 A 
ENDBRANCH   7  11
ENDBRANCH   1   7
BRANCH   4  14
ATOM     14  C   UNL     1       4.142   3.186  17.436  0.00  0.00    +0.000 C 
BRANCH  14  15
ATOM     15  O   UNL     1       5.211   4.036  17.815  0.00  0.00    +0.000 OA
BRANCH  15  16
ATOM     16  C   UNL     1       6.123   4.267  16.740  0.00  0.00    +0.000 C 
ATOM     17  C   UNL     1       5.620   5.484  15.931  0.00  0.00    +0.000 C 
ATOM     18  C   UNL     1       5.586   6.743  16.816  0.00  0.00    +0.000 C 
ATOM     19  C   UNL     1       6.978   7.033  17.403  0.00  0.00    +0.000 C 
ATOM     20  C   UNL     1       7.521   5.814  18.162  0.00  0.00    +0.000 C 
ATOM     21  C   UNL     1       7.555   4.592  17.234  0.00  0.00    +0.000 C 
ENDBRANCH  15  16
ENDBRANCH  14  15
ENDBRANCH   4  14
TORSDOF 5
ENDMDL
MODEL 8
REMARK VINA RESULT:      -6.9      3.710      7.784
REMARK  Name = 
REMARK  5 active torsions:
REMARK  status: ('A' for Active; 'I' for Inactive)
REMARK    1  A    between atoms: C_4  and  C_5
REMARK    2  A    between atoms: C_5  and  N_6
REMARK    3  A    between atoms: C_9  and  C_10
REMARK    4  A    between atoms: C_10  and  O_11
REMARK    5  A    between atoms: O_11  and  C_12
REMARK                            x       y       z     vdW  Elec       q    Type
REMARK                         _______ _______ _______ _____ _____    ______ ____
ROOT
ATOM      1  N   UNL     1       2.404   5.995  19.064  0.00  0.00    +0.000 NA
ATOM      2  C   UNL     1       1.813   5.330  17.874  0.00  0.00    +0.000 C 
ATOM      3  C   UNL     1       1.703   3.809  18.054  0.00  0.00    +0.000 C 
ATOM      4  C   UNL     1       3.030   3.164  18.509  0.00  0.00    +0.000 C 
ATOM      5  C   UNL     1       3.437   3.847  19.825  0.00  0.00    +0.000 C 
ATOM      6  C   UNL     1       3.616   5.362  19.647  0.00  0.00    +0.000 C 
ENDROOT
BRANCH   1   7
ATOM      7  C   UNL     1       2.521   7.476  18.939  0.00  0.00    +0.000 C 
BRANCH   7  11
ATOM      8  C   UNL     1      -0.161  10.056  21.226  0.00  0.00    +0.000 A 
ATOM      9  C   UNL     1       0.320   8.894  21.813  0.00  0.00    +0.000 A 
ATOM     10  C   UNL     1       1.166   8.058  21.094  0.00  0.00    +0.000 A 
ATOM     11  C   UNL     1       1.570   8.349  19.778  0.00  0.00    +0.000 A 
ATOM     12  C   UNL     1       1.068   9.530  19.197  0.00  0.00    +0.000 A 
ATOM     13  C   UNL     1       0.210  10.372  19.918  0.00  0.00    +0.000 A 
ENDBRANCH   7  11
ENDBRANCH   1   7
BRANCH   4  14
ATOM     14  C   UNL     1       4.134   3.172  17.423  0.00  0.00    +0.000 C 
BRANCH  14  15
ATOM     15  O   UNL     1       5.176   4.061  17.790  0.00  0.00    +0.000 OA
BRANCH  15  16
ATOM     16  C   UNL     1       6.079   4.307  16.711  0.00  0.00    +0.000 C 
ATOM     17  C   UNL     1       5.596   5.561  15.950  0.00  0.00    +0.000 C 
ATOM     18  C   UNL     1       5.603   6.790  16.876  0.00  0.00    +0.000 C 
ATOM     19  C   UNL     1       7.008   7.028  17.453  0.00  0.00    +0.000 C 
ATOM     20  C   UNL     1       7.532   5.772  18.164  0.00  0.00    +0.000 C 
ATOM     21  C   UNL     1       7.525   4.581  17.196  0.00  0.00    +0.000 C 
ENDBRANCH  15  16
ENDBRANCH  14  15
ENDBRANCH   4  14
TORSDOF 5
ENDMDL
MODEL 9
REMARK VINA RESULT:      -6.9      3.296      7.140
REMARK  Name = 
REMARK  5 active torsions:
REMARK  status: ('A' for Active; 'I' for Inactive)
REMARK    1  A    between atoms: C_4  and  C_5
REMARK    2  A    between atoms: C_5  and  N_6
REMARK    3  A    between atoms: C_9  and  C_10
REMARK    4  A    between atoms: C_10  and  O_11
REMARK    5  A    between atoms: O_11  and  C_12
REMARK                            x       y       z     vdW  Elec       q    Type
REMARK                         _______ _______ _______ _____ _____    ______ ____
ROOT
ATOM      1  N   UNL     1       2.084   5.157  19.622  0.00  0.00    +0.000 NA
ATOM      2  C   UNL     1       2.052   5.239  18.139  0.00  0.00    +0.000 C 
ATOM      3  C   UNL     1       1.655   3.905  17.492  0.00  0.00    +0.000 C 
ATOM      4  C   UNL     1       2.491   2.716  18.013  0.00  0.00    +0.000 C 
ATOM      5  C   UNL     1       2.305   2.666  19.539  0.00  0.00    +0.000 C 
ATOM      6  C   UNL     1       2.761   3.970  20.209  0.00  0.00    +0.000 C 
ENDROOT
BRANCH   1   7
ATOM      7  C   UNL     1       2.455   6.434  20.296  0.00  0.00    +0.000 C 
BRANCH   7  11
ATOM      8  C   UNL     1       1.084  10.192  18.544  0.00  0.00    +0.000 A 
ATOM      9  C   UNL     1       1.908   9.362  17.798  0.00  0.00    +0.000 A 
ATOM     10  C   UNL     1       2.361   8.168  18.346  0.00  0.00    +0.000 A 
ATOM     11  C   UNL     1       2.005   7.753  19.643  0.00  0.00    +0.000 A 
ATOM     12  C   UNL     1       1.172   8.612  20.387  0.00  0.00    +0.000 A 
ATOM     13  C   UNL     1       0.719   9.819  19.838  0.00  0.00    +0.000 A 
ENDBRANCH   7  11
ENDBRANCH   1   7
BRANCH   4  14
ATOM     14  C   UNL     1       3.969   2.744  17.555  0.00  0.00    +0.000 C 
BRANCH  14  15
ATOM     15  O   UNL     1       4.172   3.785  16.615  0.00  0.00    +0.000 OA
BRANCH  15  16
ATOM     16  C   UNL     1       5.559   4.048  16.392  0.00  0.00    +0.000 C 
ATOM     17  C   UNL     1       5.676   5.201  15.371  0.00  0.00    +0.000 C 
ATOM     18  C   UNL     1       5.024   6.480  15.925  0.00  0.00    +0.000 C 
ATOM     19  C   UNL     1       5.670   6.886  17.260  0.00  0.00    +0.000 C 
ATOM     20  C   UNL     1       5.616   5.732  18.271  0.00  0.00    +0.000 C 
ATOM     21  C   UNL     1       6.295   4.488  17.683  0.00  0.00    +0.000 C 
ENDBRANCH  15  16
ENDBRANCH  14  15
ENDBRANCH   4  14
TORSDOF 5
ENDMDL
