MODEL 1
REMARK VINA RESULT:      -7.8      0.000      0.000
REMARK  Name = 
REMARK  6 active torsions:
REMARK  status: ('A' for Active; 'I' for Inactive)
REMARK    1  A    between atoms: C_1  and  C_2
REMARK    2  A    between atoms: C_5  and  C_6
REMARK    3  A    between atoms: C_6  and  C_8
REMARK    4  A    between atoms: N_17  and  C_18
REMARK    5  A    between atoms: C_18  and  C_19
REMARK    6  A    between atoms: C_18  and  C_20
REMARK                            x       y       z     vdW  Elec       q    Type
REMARK                         _______ _______ _______ _____ _____    ______ ____
ROOT
ATOM      1  C   UNL     1       3.420   5.243  18.463  0.00  0.00    +0.000 A 
ATOM      2  C   UNL     1       4.741   5.549  18.099  0.00  0.00    +0.000 A 
ATOM      3  C   UNL     1       5.157   6.666  17.367  0.00  0.00    +0.000 A 
ATOM      4  C   UNL     1       6.540   6.640  17.088  0.00  0.00    +0.000 A 
ATOM      5  C   UNL     1       7.433   5.618  17.542  0.00  0.00    +0.000 A 
ATOM      6  C   UNL     1       7.039   4.517  18.335  0.00  0.00    +0.000 A 
ATOM      7  C   UNL     1       5.669   4.530  18.589  0.00  0.00    +0.000 A 
ATOM      8  N   UNL     1       4.915   3.684  19.319  0.00  0.00    +0.000 N 
ATOM      9  O   UNL     1       5.252   2.694  20.024  0.00  0.00    +0.000 OA
ATOM     10  N   UNL     1       3.571   4.061  19.220  0.00  0.00    +0.000 N 
ENDROOT
BRANCH   1  11
ATOM     11  C   UNL     1       2.161   5.923  18.202  0.00  0.00    +0.000 C 
ATOM     12  O   UNL     1       1.289   5.431  17.491  0.00  0.00    +0.000 OA
BRANCH  11  17
ATOM     13  C   UNL     1       0.770  11.100  20.405  0.00  0.00    +0.000 C 
ATOM     14  C   UNL     1       1.189   9.773  19.843  0.00  0.00    +0.000 A 
ATOM     15  C   UNL     1       1.397   9.608  18.469  0.00  0.00    +0.000 A 
ATOM     16  C   UNL     1       1.744   8.357  17.953  0.00  0.00    +0.000 A 
ATOM     17  C   UNL     1       1.878   7.256  18.806  0.00  0.00    +0.000 A 
ATOM     18  C   UNL     1       1.722   7.429  20.187  0.00  0.00    +0.000 A 
ATOM     19  C   UNL     1       1.355   8.676  20.698  0.00  0.00    +0.000 A 
ENDBRANCH  11  17
ENDBRANCH   1  11
BRANCH  10  20
ATOM     20  C   UNL     1       2.472   3.202  19.688  0.00  0.00    +0.000 C 
ATOM     21  C   UNL     1       1.469   3.932  20.586  0.00  0.00    +0.000 C 
BRANCH  20  22
ATOM     22  C   UNL     1       1.765   2.422  18.579  0.00  0.00    +0.000 C 
ATOM     23  N   UNL     1       2.530   1.825  17.626  0.00  0.00    +0.000 N 
ATOM     24  O   UNL     1       0.539   2.392  18.468  0.00  0.00    +0.000 OA
ATOM     25  H   UNL     1       3.545   1.737  17.723  0.00  0.00    +0.000 HD
ATOM     26  H   UNL     1       2.063   1.313  16.891  0.00  0.00    +0.000 HD
ENDBRANCH  20  22
ENDBRANCH  10  20
TORSDOF 4
ENDMDL
MODEL 2
REMARK VINA RESULT:      -7.8      1.764      3.851
REMARK  Name = 
REMARK  6 active torsions:
REMARK  status: ('A' for Active; 'I' for Inactive)
REMARK    1  A    between atoms: C_1  and  C_2
REMARK    2  A    between atoms: C_5  and  C_6
REMARK    3  A    between atoms: C_6  and  C_8
REMARK    4  A    between atoms: N_17  and  C_18
REMARK    5  A    between atoms: C_18  and  C_19
REMARK    6  A    between atoms: C_18  and  C_20
REMARK                            x       y       z     vdW  Elec       q    Type
REMARK                         _______ _______ _______ _____ _____    ______ ____
ROOT
ATOM      1  C   UNL     1       3.529   5.499  18.693  0.00  0.00    +0.000 A 
ATOM      2  C   UNL     1       2.645   4.666  19.398  0.00  0.00    +0.000 A 
ATOM      3  C   UNL     1       1.278   4.891  19.592  0.00  0.00    +0.000 A 
ATOM      4  C   UNL     1       0.686   3.914  20.422  0.00  0.00    +0.000 A 
ATOM      5  C   UNL     1       1.385   2.789  20.965  0.00  0.00    +0.000 A 
ATOM      6  C   UNL     1       2.751   2.516  20.726  0.00  0.00    +0.000 A 
ATOM      7  C   UNL     1       3.340   3.493  19.927  0.00  0.00    +0.000 A 
ATOM      8  N   UNL     1       4.600   3.583  19.455  0.00  0.00    +0.000 N 
ATOM      9  O   UNL     1       5.564   2.777  19.549  0.00  0.00    +0.000 OA
ATOM     10  N   UNL     1       4.746   4.788  18.759  0.00  0.00    +0.000 N 
ENDROOT
BRANCH   1  11
ATOM     11  C   UNL     1       3.327   6.767  18.009  0.00  0.00    +0.000 C 
ATOM     12  O   UNL     1       3.879   7.028  16.944  0.00  0.00    +0.000 OA
BRANCH  11  17
ATOM     13  C   UNL     1      -0.432  10.664  20.076  0.00  0.00    +0.000 C 
ATOM     14  C   UNL     1       0.587   9.694  19.554  0.00  0.00    +0.000 A 
ATOM     15  C   UNL     1       0.940   9.682  18.199  0.00  0.00    +0.000 A 
ATOM     16  C   UNL     1       1.856   8.745  17.717  0.00  0.00    +0.000 A 
ATOM     17  C   UNL     1       2.424   7.804  18.584  0.00  0.00    +0.000 A 
ATOM     18  C   UNL     1       2.112   7.846  19.948  0.00  0.00    +0.000 A 
ATOM     19  C   UNL     1       1.180   8.770  20.425  0.00  0.00    +0.000 A 
ENDBRANCH  11  17
ENDBRANCH   1  11
BRANCH  10  20
ATOM     20  C   UNL     1       6.059   5.305  18.341  0.00  0.00    +0.000 C 
ATOM     21  C   UNL     1       7.012   5.565  19.512  0.00  0.00    +0.000 C 
BRANCH  20  22
ATOM     22  C   UNL     1       6.737   4.491  17.239  0.00  0.00    +0.000 C 
ATOM     23  N   UNL     1       5.952   3.739  16.422  0.00  0.00    +0.000 N 
ATOM     24  O   UNL     1       7.960   4.422  17.124  0.00  0.00    +0.000 OA
ATOM     25  H   UNL     1       4.933   3.833  16.411  0.00  0.00    +0.000 HD
ATOM     26  H   UNL     1       6.399   3.197  15.697  0.00  0.00    +0.000 HD
ENDBRANCH  20  22
ENDBRANCH  10  20
TORSDOF 4
ENDMDL
MODEL 3
REMARK VINA RESULT:      -7.7      1.889      3.940
REMARK  Name = 
REMARK  6 active torsions:
REMARK  status: ('A' for Active; 'I' for Inactive)
REMARK    1  A    between atoms: C_1  and  C_2
REMARK    2  A    between atoms: C_5  and  C_6
REMARK    3  A    between atoms: C_6  and  C_8
REMARK    4  A    between atoms: N_17  and  C_18
REMARK    5  A    between atoms: C_18  and  C_19
REMARK    6  A    between atoms: C_18  and  C_20
REMARK                            x       y       z     vdW  Elec       q    Type
REMARK                         _______ _______ _______ _____ _____    ______ ____
ROOT
ATOM      1  C   UNL     1       3.690   5.575  17.986  0.00  0.00    +0.000 A 
ATOM      2  C   UNL     1       2.816   4.500  18.218  0.00  0.00    +0.000 A 
ATOM      3  C   UNL     1       1.427   4.518  18.056  0.00  0.00    +0.000 A 
ATOM      4  C   UNL     1       0.825   3.306  18.458  0.00  0.00    +0.000 A 
ATOM      5  C   UNL     1       1.549   2.166  18.930  0.00  0.00    +0.000 A 
ATOM      6  C   UNL     1       2.957   2.112  19.040  0.00  0.00    +0.000 A 
ATOM      7  C   UNL     1       3.549   3.317  18.667  0.00  0.00    +0.000 A 
ATOM      8  N   UNL     1       4.852   3.660  18.604  0.00  0.00    +0.000 N 
ATOM      9  O   UNL     1       5.886   2.966  18.799  0.00  0.00    +0.000 OA
ATOM     10  N   UNL     1       4.956   5.008  18.247  0.00  0.00    +0.000 N 
ENDROOT
BRANCH   1  11
ATOM     11  C   UNL     1       3.450   6.943  17.555  0.00  0.00    +0.000 C 
ATOM     12  O   UNL     1       3.944   7.399  16.527  0.00  0.00    +0.000 OA
BRANCH  11  17
ATOM     13  C   UNL     1      -0.204  10.371  20.468  0.00  0.00    +0.000 C 
ATOM     14  C   UNL     1       0.788   9.518  19.734  0.00  0.00    +0.000 A 
ATOM     15  C   UNL     1       1.134   9.796  18.406  0.00  0.00    +0.000 A 
ATOM     16  C   UNL     1       2.025   8.969  17.720  0.00  0.00    +0.000 A 
ATOM     17  C   UNL     1       2.575   7.848  18.352  0.00  0.00    +0.000 A 
ATOM     18  C   UNL     1       2.271   7.595  19.696  0.00  0.00    +0.000 A 
ATOM     19  C   UNL     1       1.364   8.412  20.374  0.00  0.00    +0.000 A 
ENDBRANCH  11  17
ENDBRANCH   1  11
BRANCH  10  20
ATOM     20  C   UNL     1       6.221   5.755  18.340  0.00  0.00    +0.000 C 
ATOM     21  C   UNL     1       6.959   5.540  19.665  0.00  0.00    +0.000 C 
BRANCH  20  22
ATOM     22  C   UNL     1       7.154   5.568  17.143  0.00  0.00    +0.000 C 
ATOM     23  N   UNL     1       7.793   4.375  17.008  0.00  0.00    +0.000 N 
ATOM     24  O   UNL     1       7.415   6.479  16.358  0.00  0.00    +0.000 OA
ATOM     25  H   UNL     1       7.541   3.558  17.572  0.00  0.00    +0.000 HD
ATOM     26  H   UNL     1       8.413   4.252  16.221  0.00  0.00    +0.000 HD
ENDBRANCH  20  22
ENDBRANCH  10  20
TORSDOF 4
ENDMDL
MODEL 4
REMARK VINA RESULT:      -7.5      1.790      4.011
REMARK  Name = 
REMARK  6 active torsions:
REMARK  status: ('A' for Active; 'I' for Inactive)
REMARK    1  A    between atoms: C_1  and  C_2
REMARK    2  A    between atoms: C_5  and  C_6
REMARK    3  A    between atoms: C_6  and  C_8
REMARK    4  A    between atoms: N_17  and  C_18
REMARK    5  A    between atoms: C_18  and  C_19
REMARK    6  A    between atoms: C_18  and  C_20
REMARK                            x       y       z     vdW  Elec       q    Type
REMARK                         _______ _______ _______ _____ _____    ______ ____
ROOT
ATOM      1  C   UNL     1       3.600   5.686  18.508  0.00  0.00    +0.000 A 
ATOM      2  C   UNL     1       2.767   4.716  19.087  0.00  0.00    +0.000 A 
ATOM      3  C   UNL     1       1.374   4.787  19.201  0.00  0.00    +0.000 A 
ATOM      4  C   UNL     1       0.838   3.693  19.914  0.00  0.00    +0.000 A 
ATOM      5  C   UNL     1       1.616   2.605  20.422  0.00  0.00    +0.000 A 
ATOM      6  C   UNL     1       3.015   2.488  20.260  0.00  0.00    +0.000 A 
ATOM      7  C   UNL     1       3.547   3.580  19.578  0.00  0.00    +0.000 A 
ATOM      8  N   UNL     1       4.817   3.833  19.202  0.00  0.00    +0.000 N 
ATOM      9  O   UNL     1       5.853   3.122  19.305  0.00  0.00    +0.000 OA
ATOM     10  N   UNL     1       4.879   5.098  18.607  0.00  0.00    +0.000 N 
ENDROOT
BRANCH   1  11
ATOM     11  C   UNL     1       3.310   6.978  17.906  0.00  0.00    +0.000 C 
ATOM     12  O   UNL     1       3.850   7.349  16.867  0.00  0.00    +0.000 OA
BRANCH  11  17
ATOM     13  C   UNL     1      -0.272  10.716  20.512  0.00  0.00    +0.000 C 
ATOM     14  C   UNL     1       0.608   9.712  19.826  0.00  0.00    +0.000 A 
ATOM     15  C   UNL     1       1.243   8.697  20.552  0.00  0.00    +0.000 A 
ATOM     16  C   UNL     1       2.094   7.796  19.910  0.00  0.00    +0.000 A 
ATOM     17  C   UNL     1       2.325   7.904  18.533  0.00  0.00    +0.000 A 
ATOM     18  C   UNL     1       1.651   8.885  17.795  0.00  0.00    +0.000 A 
ATOM     19  C   UNL     1       0.816   9.798  18.443  0.00  0.00    +0.000 A 
ENDBRANCH  11  17
ENDBRANCH   1  11
BRANCH  10  20
ATOM     20  C   UNL     1       6.153   5.775  18.321  0.00  0.00    +0.000 C 
ATOM     21  C   UNL     1       7.140   5.737  19.492  0.00  0.00    +0.000 C 
BRANCH  20  22
ATOM     22  C   UNL     1       6.820   5.341  17.015  0.00  0.00    +0.000 C 
ATOM     23  N   UNL     1       7.735   4.337  17.064  0.00  0.00    +0.000 N 
ATOM     24  O   UNL     1       6.626   5.923  15.947  0.00  0.00    +0.000 OA
ATOM     25  H   UNL     1       7.862   3.760  17.899  0.00  0.00    +0.000 HD
ATOM     26  H   UNL     1       8.180   4.053  16.202  0.00  0.00    +0.000 HD
ENDBRANCH  20  22
ENDBRANCH  10  20
TORSDOF 4
ENDMDL
MODEL 5
REMARK VINA RESULT:      -7.3      2.422      5.558
REMARK  Name = 
REMARK  6 active torsions:
REMARK  status: ('A' for Active; 'I' for Inactive)
REMARK    1  A    between atoms: C_1  and  C_2
REMARK    2  A    between atoms: C_5  and  C_6
REMARK    3  A    between atoms: C_6  and  C_8
REMARK    4  A    between atoms: N_17  and  C_18
REMARK    5  A    between atoms: C_18  and  C_19
REMARK    6  A    between atoms: C_18  and  C_20
REMARK                            x       y       z     vdW  Elec       q    Type
REMARK                         _______ _______ _______ _____ _____    ______ ____
ROOT
ATOM      1  C   UNL     1       4.399   5.026  18.165  0.00  0.00    +0.000 A 
ATOM      2  C   UNL     1       3.720   6.252  18.072  0.00  0.00    +0.000 A 
ATOM      3  C   UNL     1       4.181   7.401  17.421  0.00  0.00    +0.000 A 
ATOM      4  C   UNL     1       3.306   8.497  17.585  0.00  0.00    +0.000 A 
ATOM      5  C   UNL     1       2.063   8.435  18.291  0.00  0.00    +0.000 A 
ATOM      6  C   UNL     1       1.555   7.265  18.900  0.00  0.00    +0.000 A 
ATOM      7  C   UNL     1       2.431   6.191  18.759  0.00  0.00    +0.000 A 
ATOM      8  N   UNL     1       2.306   4.912  19.168  0.00  0.00    +0.000 N 
ATOM      9  O   UNL     1       1.338   4.326  19.725  0.00  0.00    +0.000 OA
ATOM     10  N   UNL     1       3.481   4.215  18.867  0.00  0.00    +0.000 N 
ENDROOT
BRANCH   1  11
ATOM     11  C   UNL     1       5.698   4.597  17.671  0.00  0.00    +0.000 C 
ATOM     12  O   UNL     1       6.616   4.296  18.428  0.00  0.00    +0.000 OA
BRANCH  11  17
ATOM     13  C   UNL     1       6.981   4.048  12.046  0.00  0.00    +0.000 C 
ATOM     14  C   UNL     1       6.615   4.238  13.488  0.00  0.00    +0.000 A 
ATOM     15  C   UNL     1       7.411   5.017  14.336  0.00  0.00    +0.000 A 
ATOM     16  C   UNL     1       7.083   5.151  15.687  0.00  0.00    +0.000 A 
ATOM     17  C   UNL     1       5.959   4.500  16.206  0.00  0.00    +0.000 A 
ATOM     18  C   UNL     1       5.131   3.762  15.351  0.00  0.00    +0.000 A 
ATOM     19  C   UNL     1       5.472   3.613  14.005  0.00  0.00    +0.000 A 
ENDBRANCH  11  17
ENDBRANCH   1  11
BRANCH  10  20
ATOM     20  C   UNL     1       3.765   2.876  19.405  0.00  0.00    +0.000 C 
ATOM     21  C   UNL     1       3.210   2.656  20.816  0.00  0.00    +0.000 C 
BRANCH  20  22
ATOM     22  C   UNL     1       3.388   1.726  18.470  0.00  0.00    +0.000 C 
ATOM     23  N   UNL     1       4.179   0.620  18.460  0.00  0.00    +0.000 N 
ATOM     24  O   UNL     1       2.456   1.802  17.669  0.00  0.00    +0.000 OA
ATOM     25  H   UNL     1       4.903   0.466  19.167  0.00  0.00    +0.000 HD
ATOM     26  H   UNL     1       3.933  -0.137  17.839  0.00  0.00    +0.000 HD
ENDBRANCH  20  22
ENDBRANCH  10  20
TORSDOF 4
ENDMDL
MODEL 6
REMARK VINA RESULT:      -7.3      2.295      5.505
REMARK  Name = 
REMARK  6 active torsions:
REMARK  status: ('A' for Active; 'I' for Inactive)
REMARK    1  A    between atoms: C_1  and  C_2
REMARK    2  A    between atoms: C_5  and  C_6
REMARK    3  A    between atoms: C_6  and  C_8
REMARK    4  A    between atoms: N_17  and  C_18
REMARK    5  A    between atoms: C_18  and  C_19
REMARK    6  A    between atoms: C_18  and  C_20
REMARK                            x       y       z     vdW  Elec       q    Type
REMARK                         _______ _______ _______ _____ _____    ______ ____
ROOT
ATOM      1  C   UNL     1       4.297   5.016  18.384  0.00  0.00    +0.000 A 
ATOM      2  C   UNL     1       3.646   6.245  18.190  0.00  0.00    +0.000 A 
ATOM      3  C   UNL     1       4.164   7.354  17.512  0.00  0.00    +0.000 A 
ATOM      4  C   UNL     1       3.300   8.468  17.568  0.00  0.00    +0.000 A 
ATOM      5  C   UNL     1       2.016   8.460  18.200  0.00  0.00    +0.000 A 
ATOM      6  C   UNL     1       1.453   7.329  18.835  0.00  0.00    +0.000 A 
ATOM      7  C   UNL     1       2.317   6.237  18.801  0.00  0.00    +0.000 A 
ATOM      8  N   UNL     1       2.146   4.982  19.264  0.00  0.00    +0.000 N 
ATOM      9  O   UNL     1       1.137   4.439  19.790  0.00  0.00    +0.000 OA
ATOM     10  N   UNL     1       3.325   4.255  19.069  0.00  0.00    +0.000 N 
ENDROOT
BRANCH   1  11
ATOM     11  C   UNL     1       5.615   4.545  17.991  0.00  0.00    +0.000 C 
ATOM     12  O   UNL     1       6.477   4.255  18.816  0.00  0.00    +0.000 OA
BRANCH  11  17
ATOM     13  C   UNL     1       6.739   4.139  12.320  0.00  0.00    +0.000 C 
ATOM     14  C   UNL     1       6.477   4.191  13.796  0.00  0.00    +0.000 A 
ATOM     15  C   UNL     1       5.299   3.663  14.337  0.00  0.00    +0.000 A 
ATOM     16  C   UNL     1       5.046   3.757  15.707  0.00  0.00    +0.000 A 
ATOM     17  C   UNL     1       5.967   4.388  16.551  0.00  0.00    +0.000 A 
ATOM     18  C   UNL     1       7.170   4.871  16.022  0.00  0.00    +0.000 A 
ATOM     19  C   UNL     1       7.412   4.794  14.649  0.00  0.00    +0.000 A 
ENDBRANCH  11  17
ENDBRANCH   1  11
BRANCH  10  20
ATOM     20  C   UNL     1       3.554   2.940  19.689  0.00  0.00    +0.000 C 
ATOM     21  C   UNL     1       3.027   2.844  21.124  0.00  0.00    +0.000 C 
BRANCH  20  22
ATOM     22  C   UNL     1       3.092   1.753  18.842  0.00  0.00    +0.000 C 
ATOM     23  N   UNL     1       1.756   1.533  18.721  0.00  0.00    +0.000 N 
ATOM     24  O   UNL     1       3.880   0.946  18.348  0.00  0.00    +0.000 OA
ATOM     25  H   UNL     1       1.063   2.221  19.028  0.00  0.00    +0.000 HD
ATOM     26  H   UNL     1       1.451   0.746  18.167  0.00  0.00    +0.000 HD
ENDBRANCH  20  22
ENDBRANCH  10  20
TORSDOF 4
ENDMDL
MODEL 7
REMARK VINA RESULT:      -7.3      5.249      8.787
REMARK  Name = 
REMARK  6 active torsions:
REMARK  status: ('A' for Active; 'I' for Inactive)
REMARK    1  A    between atoms: C_1  and  C_2
REMARK    2  A    between atoms: C_5  and  C_6
REMARK    3  A    between atoms: C_6  and  C_8
REMARK    4  A    between atoms: N_17  and  C_18
REMARK    5  A    between atoms: C_18  and  C_19
REMARK    6  A    between atoms: C_18  and  C_20
REMARK                            x       y       z     vdW  Elec       q    Type
REMARK                         _______ _______ _______ _____ _____    ______ ____
ROOT
ATOM      1  C   UNL     1      -0.544  11.215  18.927  0.00  0.00    +0.000 A 
ATOM      2  C   UNL     1      -1.668  10.930  18.135  0.00  0.00    +0.000 A 
ATOM      3  C   UNL     1      -1.680  10.160  16.967  0.00  0.00    +0.000 A 
ATOM      4  C   UNL     1      -2.951  10.136  16.353  0.00  0.00    +0.000 A 
ATOM      5  C   UNL     1      -4.113  10.781  16.884  0.00  0.00    +0.000 A 
ATOM      6  C   UNL     1      -4.130  11.510  18.095  0.00  0.00    +0.000 A 
ATOM      7  C   UNL     1      -2.870  11.554  18.688  0.00  0.00    +0.000 A 
ATOM      8  N   UNL     1      -2.477  12.118  19.848  0.00  0.00    +0.000 N 
ATOM      9  O   UNL     1      -3.152  12.697  20.741  0.00  0.00    +0.000 OA
ATOM     10  N   UNL     1      -1.093  11.969  19.986  0.00  0.00    +0.000 N 
ENDROOT
BRANCH   1  11
ATOM     11  C   UNL     1       0.856  10.846  18.790  0.00  0.00    +0.000 C 
ATOM     12  O   UNL     1       1.714  11.657  18.454  0.00  0.00    +0.000 OA
BRANCH  11  17
ATOM     13  C   UNL     1       2.906   5.524  19.822  0.00  0.00    +0.000 C 
ATOM     14  C   UNL     1       2.322   6.877  19.541  0.00  0.00    +0.000 A 
ATOM     15  C   UNL     1       2.421   7.453  18.269  0.00  0.00    +0.000 A 
ATOM     16  C   UNL     1       1.912   8.732  18.031  0.00  0.00    +0.000 A 
ATOM     17  C   UNL     1       1.304   9.451  19.066  0.00  0.00    +0.000 A 
ATOM     18  C   UNL     1       1.157   8.858  20.326  0.00  0.00    +0.000 A 
ATOM     19  C   UNL     1       1.685   7.588  20.567  0.00  0.00    +0.000 A 
ENDBRANCH  11  17
ENDBRANCH   1  11
BRANCH  10  20
ATOM     20  C   UNL     1      -0.319  12.689  21.010  0.00  0.00    +0.000 C 
ATOM     21  C   UNL     1      -0.297  14.207  20.799  0.00  0.00    +0.000 C 
BRANCH  20  22
ATOM     22  C   UNL     1      -0.687  12.330  22.450  0.00  0.00    +0.000 C 
ATOM     23  N   UNL     1      -1.304  13.274  23.209  0.00  0.00    +0.000 N 
ATOM     24  O   UNL     1      -0.367  11.260  22.967  0.00  0.00    +0.000 OA
ATOM     25  H   UNL     1      -1.676  14.137  22.805  0.00  0.00    +0.000 HD
ATOM     26  H   UNL     1      -1.542  13.039  24.162  0.00  0.00    +0.000 HD
ENDBRANCH  20  22
ENDBRANCH  10  20
TORSDOF 4
ENDMDL
MODEL 8
REMARK VINA RESULT:      -7.3      0.991      1.354
REMARK  Name = 
REMARK  6 active torsions:
REMARK  status: ('A' for Active; 'I' for Inactive)
REMARK    1  A    between atoms: C_1  and  C_2
REMARK    2  A    between atoms: C_5  and  C_6
REMARK    3  A    between atoms: C_6  and  C_8
REMARK    4  A    between atoms: N_17  and  C_18
REMARK    5  A    between atoms: C_18  and  C_19
REMARK    6  A    between atoms: C_18  and  C_20
REMARK                            x       y       z     vdW  Elec       q    Type
REMARK                         _______ _______ _______ _____ _____    ______ ____
ROOT
ATOM      1  C   UNL     1       3.524   5.395  18.373  0.00  0.00    +0.000 A 
ATOM      2  C   UNL     1       4.853   5.769  18.117  0.00  0.00    +0.000 A 
ATOM      3  C   UNL     1       5.273   6.954  17.503  0.00  0.00    +0.000 A 
ATOM      4  C   UNL     1       6.670   6.992  17.308  0.00  0.00    +0.000 A 
ATOM      5  C   UNL     1       7.570   5.963  17.733  0.00  0.00    +0.000 A 
ATOM      6  C   UNL     1       7.167   4.789  18.409  0.00  0.00    +0.000 A 
ATOM      7  C   UNL     1       5.785   4.741  18.579  0.00  0.00    +0.000 A 
ATOM      8  N   UNL     1       5.019   3.816  19.192  0.00  0.00    +0.000 N 
ATOM      9  O   UNL     1       5.348   2.782  19.834  0.00  0.00    +0.000 OA
ATOM     10  N   UNL     1       3.672   4.160  19.041  0.00  0.00    +0.000 N 
ENDROOT
BRANCH   1  11
ATOM     11  C   UNL     1       2.260   6.057  18.090  0.00  0.00    +0.000 C 
ATOM     12  O   UNL     1       1.412   5.556  17.357  0.00  0.00    +0.000 OA
BRANCH  11  17
ATOM     13  C   UNL     1       0.743  11.198  20.294  0.00  0.00    +0.000 C 
ATOM     14  C   UNL     1       1.194   9.881  19.734  0.00  0.00    +0.000 A 
ATOM     15  C   UNL     1       1.459   9.732  18.368  0.00  0.00    +0.000 A 
ATOM     16  C   UNL     1       1.835   8.491  17.852  0.00  0.00    +0.000 A 
ATOM     17  C   UNL     1       1.944   7.381  18.697  0.00  0.00    +0.000 A 
ATOM     18  C   UNL     1       1.730   7.536  20.073  0.00  0.00    +0.000 A 
ATOM     19  C   UNL     1       1.334   8.774  20.583  0.00  0.00    +0.000 A 
ENDBRANCH  11  17
ENDBRANCH   1  11
BRANCH  10  20
ATOM     20  C   UNL     1       2.577   3.234  19.369  0.00  0.00    +0.000 C 
ATOM     21  C   UNL     1       2.840   1.795  18.912  0.00  0.00    +0.000 C 
BRANCH  20  22
ATOM     22  C   UNL     1       2.125   3.282  20.829  0.00  0.00    +0.000 C 
ATOM     23  N   UNL     1       2.755   2.475  21.723  0.00  0.00    +0.000 N 
ATOM     24  O   UNL     1       1.161   3.951  21.202  0.00  0.00    +0.000 OA
ATOM     25  H   UNL     1       3.617   1.976  21.489  0.00  0.00    +0.000 HD
ATOM     26  H   UNL     1       2.453   2.503  22.687  0.00  0.00    +0.000 HD
ENDBRANCH  20  22
ENDBRANCH  10  20
TORSDOF 4
ENDMDL
MODEL 9
REMARK VINA RESULT:      -7.1      5.263      8.807
REMARK  Name = 
REMARK  6 active torsions:
REMARK  status: ('A' for Active; 'I' for Inactive)
REMARK    1  A    between atoms: C_1  and  C_2
REMARK    2  A    between atoms: C_5  and  C_6
REMARK    3  A    between atoms: C_6  and  C_8
REMARK    4  A    between atoms: N_17  and  C_18
REMARK    5  A    between atoms: C_18  and  C_19
REMARK    6  A    between atoms: C_18  and  C_20
REMARK                            x       y       z     vdW  Elec       q    Type
REMARK                         _______ _______ _______ _____ _____    ______ ____
ROOT
ATOM      1  C   UNL     1      -0.463  11.119  18.983  0.00  0.00    +0.000 A 
ATOM      2  C   UNL     1      -1.596  10.823  18.209  0.00  0.00    +0.000 A 
ATOM      3  C   UNL     1      -1.630  10.003  17.077  0.00  0.00    +0.000 A 
ATOM      4  C   UNL     1      -2.904   9.979  16.470  0.00  0.00    +0.000 A 
ATOM      5  C   UNL     1      -4.050  10.669  16.977  0.00  0.00    +0.000 A 
ATOM      6  C   UNL     1      -4.046  11.451  18.154  0.00  0.00    +0.000 A 
ATOM      7  C   UNL     1      -2.783  11.495  18.739  0.00  0.00    +0.000 A 
ATOM      8  N   UNL     1      -2.372  12.101  19.872  0.00  0.00    +0.000 N 
ATOM      9  O   UNL     1      -3.031  12.732  20.742  0.00  0.00    +0.000 OA
ATOM     10  N   UNL     1      -0.991  11.930  20.011  0.00  0.00    +0.000 N 
ENDROOT
BRANCH   1  11
ATOM     11  C   UNL     1       0.929  10.716  18.857  0.00  0.00    +0.000 C 
ATOM     12  O   UNL     1       1.792  11.478  18.428  0.00  0.00    +0.000 OA
BRANCH  11  17
ATOM     13  C   UNL     1       2.300   5.309  20.431  0.00  0.00    +0.000 C 
ATOM     14  C   UNL     1       2.000   6.727  20.042  0.00  0.00    +0.000 A 
ATOM     15  C   UNL     1       1.370   7.601  20.937  0.00  0.00    +0.000 A 
ATOM     16  C   UNL     1       1.056   8.904  20.549  0.00  0.00    +0.000 A 
ATOM     17  C   UNL     1       1.363   9.347  19.257  0.00  0.00    +0.000 A 
ATOM     18  C   UNL     1       2.039   8.494  18.377  0.00  0.00    +0.000 A 
ATOM     19  C   UNL     1       2.333   7.184  18.760  0.00  0.00    +0.000 A 
ENDBRANCH  11  17
ENDBRANCH   1  11
BRANCH  10  20
ATOM     20  C   UNL     1      -0.197  12.678  20.998  0.00  0.00    +0.000 C 
ATOM     21  C   UNL     1       0.024  14.145  20.616  0.00  0.00    +0.000 C 
BRANCH  20  22
ATOM     22  C   UNL     1      -0.693  12.545  22.439  0.00  0.00    +0.000 C 
ATOM     23  N   UNL     1      -1.219  13.644  23.041  0.00  0.00    +0.000 N 
ATOM     24  O   UNL     1      -0.549  11.513  23.096  0.00  0.00    +0.000 OA
ATOM     25  H   UNL     1      -1.448  14.493  22.516  0.00  0.00    +0.000 HD
ATOM     26  H   UNL     1      -1.542  13.559  23.994  0.00  0.00    +0.000 HD
ENDBRANCH  20  22
ENDBRANCH  10  20
TORSDOF 4
ENDMDL
