MODEL 1
REMARK VINA RESULT:      -6.4      0.000      0.000
REMARK  Name = 
REMARK  10 active torsions:
REMARK  status: ('A' for Active; 'I' for Inactive)
REMARK    1  A    between atoms: C_1  and  C_2
REMARK    2  A    between atoms: C_2  and  C_3
REMARK    3  A    between atoms: C_3  and  N_4
REMARK    4  A    between atoms: N_4  and  C_5
REMARK    5  A    between atoms: N_4  and  C_8
REMARK    6  A    between atoms: C_5  and  C_6
REMARK    7  A    between atoms: C_6  and  C_7
REMARK    8  A    between atoms: C_8  and  C_9
REMARK    9  A    between atoms: C_9  and  C_10
REMARK   10  A    between atoms: C_15  and  O_16
REMARK                            x       y       z     vdW  Elec       q    Type
REMARK                         _______ _______ _______ _____ _____    ______ ____
ROOT
ATOM      1  C   UNL     1       4.221   5.423  17.094  0.00  0.00    +0.000 C 
ENDROOT
BRANCH   1   2
ATOM      2  C   UNL     1       3.486   4.718  18.207  0.00  0.00    +0.000 A 
ATOM      3  C   UNL     1       3.444   5.279  19.493  0.00  0.00    +0.000 A 
ATOM      4  C   UNL     1       2.754   4.638  20.521  0.00  0.00    +0.000 A 
ATOM      5  C   UNL     1       2.095   3.429  20.286  0.00  0.00    +0.000 A 
ATOM      6 CL   UNL     1       1.237   2.666  21.617  0.00  0.00    +0.000 Cl
ATOM      7  C   UNL     1       2.127   2.855  18.999  0.00  0.00    +0.000 A 
ATOM      8  C   UNL     1       2.821   3.503  17.967  0.00  0.00    +0.000 A 
BRANCH   7   9
ATOM      9  O   UNL     1       1.498   1.691  18.722  0.00  0.00    +0.000 OA
ATOM     10  H   UNL     1       1.721   0.855  19.154  0.00  0.00    +0.000 HD
ENDBRANCH   7   9
ENDBRANCH   1   2
BRANCH   1  11
ATOM     11  C   UNL     1       5.212   4.489  16.366  0.00  0.00    +0.000 C 
BRANCH  11  12
ATOM     12  N   UNL     1       6.552   5.095  16.118  0.00  0.00    +0.000 NA
BRANCH  12  13
ATOM     13  C   UNL     1       7.502   4.603  17.158  0.00  0.00    +0.000 C 
BRANCH  13  15
ATOM     14  C   UNL     1       7.801   6.890  18.164  0.00  0.00    +0.000 C 
ATOM     15  C   UNL     1       7.523   5.415  18.464  0.00  0.00    +0.000 C 
ENDBRANCH  13  15
ENDBRANCH  12  13
BRANCH  12  16
ATOM     16  C   UNL     1       7.026   4.753  14.744  0.00  0.00    +0.000 C 
BRANCH  16  17
ATOM     17  C   UNL     1       6.004   3.974  13.882  0.00  0.00    +0.000 C 
ATOM     18  C   UNL     1       6.527   3.668  12.480  0.00  0.00    +0.000 C 
ENDBRANCH  16  17
ENDBRANCH  12  16
ENDBRANCH  11  12
ENDBRANCH   1  11
TORSDOF 8
ENDMDL
MODEL 2
REMARK VINA RESULT:      -6.2      1.058      3.085
REMARK  Name = 
REMARK  10 active torsions:
REMARK  status: ('A' for Active; 'I' for Inactive)
REMARK    1  A    between atoms: C_1  and  C_2
REMARK    2  A    between atoms: C_2  and  C_3
REMARK    3  A    between atoms: C_3  and  N_4
REMARK    4  A    between atoms: N_4  and  C_5
REMARK    5  A    between atoms: N_4  and  C_8
REMARK    6  A    between atoms: C_5  and  C_6
REMARK    7  A    between atoms: C_6  and  C_7
REMARK    8  A    between atoms: C_8  and  C_9
REMARK    9  A    between atoms: C_9  and  C_10
REMARK   10  A    between atoms: C_15  and  O_16
REMARK                            x       y       z     vdW  Elec       q    Type
REMARK                         _______ _______ _______ _____ _____    ______ ____
ROOT
ATOM      1  C   UNL     1       4.169   6.826  17.417  0.00  0.00    +0.000 C 
ENDROOT
BRANCH   1   2
ATOM      2  C   UNL     1       3.394   5.852  18.269  0.00  0.00    +0.000 A 
ATOM      3  C   UNL     1       3.386   5.986  19.666  0.00  0.00    +0.000 A 
ATOM      4  C   UNL     1       2.661   5.096  20.457  0.00  0.00    +0.000 A 
ATOM      5  C   UNL     1       1.932   4.059  19.870  0.00  0.00    +0.000 A 
ATOM      6 CL   UNL     1       1.031   2.969  20.915  0.00  0.00    +0.000 Cl
ATOM      7  C   UNL     1       1.928   3.914  18.468  0.00  0.00    +0.000 A 
ATOM      8  C   UNL     1       2.658   4.811  17.676  0.00  0.00    +0.000 A 
BRANCH   7   9
ATOM      9  O   UNL     1       1.232   2.931  17.856  0.00  0.00    +0.000 OA
ATOM     10  H   UNL     1       1.638   2.292  17.253  0.00  0.00    +0.000 HD
ENDBRANCH   7   9
ENDBRANCH   1   2
BRANCH   1  11
ATOM     11  C   UNL     1       5.008   6.115  16.334  0.00  0.00    +0.000 C 
BRANCH  11  12
ATOM     12  N   UNL     1       6.339   5.635  16.809  0.00  0.00    +0.000 NA
BRANCH  12  13
ATOM     13  C   UNL     1       6.948   4.782  15.747  0.00  0.00    +0.000 C 
BRANCH  13  15
ATOM     14  C   UNL     1       6.244   3.897  13.499  0.00  0.00    +0.000 C 
ATOM     15  C   UNL     1       5.969   3.859  15.005  0.00  0.00    +0.000 C 
ENDBRANCH  13  15
ENDBRANCH  12  13
BRANCH  12  16
ATOM     16  C   UNL     1       7.216   6.796  17.143  0.00  0.00    +0.000 C 
BRANCH  16  17
ATOM     17  C   UNL     1       7.905   6.709  18.526  0.00  0.00    +0.000 C 
ATOM     18  C   UNL     1       7.319   5.607  19.407  0.00  0.00    +0.000 C 
ENDBRANCH  16  17
ENDBRANCH  12  16
ENDBRANCH  11  12
ENDBRANCH   1  11
TORSDOF 8
ENDMDL
MODEL 3
REMARK VINA RESULT:      -6.1      3.586      5.957
REMARK  Name = 
REMARK  10 active torsions:
REMARK  status: ('A' for Active; 'I' for Inactive)
REMARK    1  A    between atoms: C_1  and  C_2
REMARK    2  A    between atoms: C_2  and  C_3
REMARK    3  A    between atoms: C_3  and  N_4
REMARK    4  A    between atoms: N_4  and  C_5
REMARK    5  A    between atoms: N_4  and  C_8
REMARK    6  A    between atoms: C_5  and  C_6
REMARK    7  A    between atoms: C_6  and  C_7
REMARK    8  A    between atoms: C_8  and  C_9
REMARK    9  A    between atoms: C_9  and  C_10
REMARK   10  A    between atoms: C_15  and  O_16
REMARK                            x       y       z     vdW  Elec       q    Type
REMARK                         _______ _______ _______ _____ _____    ______ ____
ROOT
ATOM      1  C   UNL     1       3.854   2.640  17.702  0.00  0.00    +0.000 C 
ENDROOT
BRANCH   1   2
ATOM      2  C   UNL     1       4.737   3.861  17.629  0.00  0.00    +0.000 A 
ATOM      3  C   UNL     1       5.534   4.224  18.726  0.00  0.00    +0.000 A 
ATOM      4  C   UNL     1       6.361   5.343  18.660  0.00  0.00    +0.000 A 
ATOM      5  C   UNL     1       6.411   6.120  17.499  0.00  0.00    +0.000 A 
ATOM      6 CL   UNL     1       7.476   7.518  17.467  0.00  0.00    +0.000 Cl
ATOM      7  C   UNL     1       5.618   5.766  16.388  0.00  0.00    +0.000 A 
ATOM      8  C   UNL     1       4.787   4.639  16.459  0.00  0.00    +0.000 A 
BRANCH   7   9
ATOM      9  O   UNL     1       5.638   6.483  15.243  0.00  0.00    +0.000 OA
ATOM     10  H   UNL     1       4.872   6.974  14.913  0.00  0.00    +0.000 HD
ENDBRANCH   7   9
ENDBRANCH   1   2
BRANCH   1  11
ATOM     11  C   UNL     1       2.358   3.008  17.808  0.00  0.00    +0.000 C 
BRANCH  11  12
ATOM     12  N   UNL     1       2.020   3.859  18.986  0.00  0.00    +0.000 NA
BRANCH  12  13
ATOM     13  C   UNL     1       1.704   5.236  18.507  0.00  0.00    +0.000 C 
BRANCH  13  15
ATOM     14  C   UNL     1       2.814   7.463  18.131  0.00  0.00    +0.000 C 
ATOM     15  C   UNL     1       2.528   6.361  19.155  0.00  0.00    +0.000 C 
ENDBRANCH  13  15
ENDBRANCH  12  13
BRANCH  12  16
ATOM     16  C   UNL     1       0.873   3.268  19.736  0.00  0.00    +0.000 C 
BRANCH  16  17
ATOM     17  C   UNL     1       1.198   2.850  21.191  0.00  0.00    +0.000 C 
ATOM     18  C   UNL     1       2.700   2.803  21.467  0.00  0.00    +0.000 C 
ENDBRANCH  16  17
ENDBRANCH  12  16
ENDBRANCH  11  12
ENDBRANCH   1  11
TORSDOF 8
ENDMDL
MODEL 4
REMARK VINA RESULT:      -6.1      1.634      2.053
REMARK  Name = 
REMARK  10 active torsions:
REMARK  status: ('A' for Active; 'I' for Inactive)
REMARK    1  A    between atoms: C_1  and  C_2
REMARK    2  A    between atoms: C_2  and  C_3
REMARK    3  A    between atoms: C_3  and  N_4
REMARK    4  A    between atoms: N_4  and  C_5
REMARK    5  A    between atoms: N_4  and  C_8
REMARK    6  A    between atoms: C_5  and  C_6
REMARK    7  A    between atoms: C_6  and  C_7
REMARK    8  A    between atoms: C_8  and  C_9
REMARK    9  A    between atoms: C_9  and  C_10
REMARK   10  A    between atoms: C_15  and  O_16
REMARK                            x       y       z     vdW  Elec       q    Type
REMARK                         _______ _______ _______ _____ _____    ______ ____
ROOT
ATOM      1  C   UNL     1       4.674   6.786  17.693  0.00  0.00    +0.000 C 
ENDROOT
BRANCH   1   2
ATOM      2  C   UNL     1       3.976   5.537  18.170  0.00  0.00    +0.000 A 
ATOM      3  C   UNL     1       2.585   5.408  18.033  0.00  0.00    +0.000 A 
ATOM      4  C   UNL     1       1.937   4.251  18.460  0.00  0.00    +0.000 A 
ATOM      5  C   UNL     1       2.663   3.202  19.032  0.00  0.00    +0.000 A 
ATOM      6 CL   UNL     1       1.796   1.763  19.549  0.00  0.00    +0.000 Cl
ATOM      7  C   UNL     1       4.061   3.317  19.174  0.00  0.00    +0.000 A 
ATOM      8  C   UNL     1       4.709   4.483  18.742  0.00  0.00    +0.000 A 
BRANCH   7   9
ATOM      9  O   UNL     1       4.805   2.327  19.714  0.00  0.00    +0.000 OA
ATOM     10  H   UNL     1       5.343   2.444  20.510  0.00  0.00    +0.000 HD
ENDBRANCH   7   9
ENDBRANCH   1   2
BRANCH   1  11
ATOM     11  C   UNL     1       5.214   6.640  16.254  0.00  0.00    +0.000 C 
BRANCH  11  12
ATOM     12  N   UNL     1       6.694   6.471  16.171  0.00  0.00    +0.000 NA
BRANCH  12  13
ATOM     13  C   UNL     1       7.302   6.940  17.450  0.00  0.00    +0.000 C 
BRANCH  13  15
ATOM     14  C   UNL     1       8.649   8.693  18.654  0.00  0.00    +0.000 C 
ATOM     15  C   UNL     1       7.704   8.424  17.480  0.00  0.00    +0.000 C 
ENDBRANCH  13  15
ENDBRANCH  12  13
BRANCH  12  16
ATOM     16  C   UNL     1       7.035   5.043  15.899  0.00  0.00    +0.000 C 
BRANCH  16  17
ATOM     17  C   UNL     1       5.899   4.220  15.244  0.00  0.00    +0.000 C 
ATOM     18  C   UNL     1       6.163   3.924  13.769  0.00  0.00    +0.000 C 
ENDBRANCH  16  17
ENDBRANCH  12  16
ENDBRANCH  11  12
ENDBRANCH   1  11
TORSDOF 8
ENDMDL
MODEL 5
REMARK VINA RESULT:      -6.1      3.614      5.858
REMARK  Name = 
REMARK  10 active torsions:
REMARK  status: ('A' for Active; 'I' for Inactive)
REMARK    1  A    between atoms: C_1  and  C_2
REMARK    2  A    between atoms: C_2  and  C_3
REMARK    3  A    between atoms: C_3  and  N_4
REMARK    4  A    between atoms: N_4  and  C_5
REMARK    5  A    between atoms: N_4  and  C_8
REMARK    6  A    between atoms: C_5  and  C_6
REMARK    7  A    between atoms: C_6  and  C_7
REMARK    8  A    between atoms: C_8  and  C_9
REMARK    9  A    between atoms: C_9  and  C_10
REMARK   10  A    between atoms: C_15  and  O_16
REMARK                            x       y       z     vdW  Elec       q    Type
REMARK                         _______ _______ _______ _____ _____    ______ ____
ROOT
ATOM      1  C   UNL     1       3.952   3.028  17.086  0.00  0.00    +0.000 C 
ENDROOT
BRANCH   1   2
ATOM      2  C   UNL     1       5.011   4.031  17.470  0.00  0.00    +0.000 A 
ATOM      3  C   UNL     1       5.248   4.327  18.821  0.00  0.00    +0.000 A 
ATOM      4  C   UNL     1       6.234   5.244  19.182  0.00  0.00    +0.000 A 
ATOM      5  C   UNL     1       7.001   5.881  18.203  0.00  0.00    +0.000 A 
ATOM      6 CL   UNL     1       8.235   7.024  18.713  0.00  0.00    +0.000 Cl
ATOM      7  C   UNL     1       6.776   5.592  16.842  0.00  0.00    +0.000 A 
ATOM      8  C   UNL     1       5.783   4.669  16.484  0.00  0.00    +0.000 A 
BRANCH   7   9
ATOM      9  O   UNL     1       7.497   6.178  15.861  0.00  0.00    +0.000 OA
ATOM     10  H   UNL     1       7.556   5.822  14.963  0.00  0.00    +0.000 HD
ENDBRANCH   7   9
ENDBRANCH   1   2
BRANCH   1  11
ATOM     11  C   UNL     1       3.026   2.675  18.270  0.00  0.00    +0.000 C 
BRANCH  11  12
ATOM     12  N   UNL     1       1.632   3.186  18.128  0.00  0.00    +0.000 NA
BRANCH  12  13
ATOM     13  C   UNL     1       0.956   3.110  19.457  0.00  0.00    +0.000 C 
BRANCH  13  15
ATOM     14  C   UNL     1       2.109   3.444  21.668  0.00  0.00    +0.000 C 
ATOM     15  C   UNL     1       1.771   2.432  20.570  0.00  0.00    +0.000 C 
ENDBRANCH  13  15
ENDBRANCH  12  13
BRANCH  12  16
ATOM     16  C   UNL     1       1.645   4.584  17.605  0.00  0.00    +0.000 C 
BRANCH  16  17
ATOM     17  C   UNL     1       1.888   5.674  18.677  0.00  0.00    +0.000 C 
ATOM     18  C   UNL     1       2.662   6.873  18.132  0.00  0.00    +0.000 C 
ENDBRANCH  16  17
ENDBRANCH  12  16
ENDBRANCH  11  12
ENDBRANCH   1  11
TORSDOF 8
ENDMDL
MODEL 6
REMARK VINA RESULT:      -6.1      0.824      3.092
REMARK  Name = 
REMARK  10 active torsions:
REMARK  status: ('A' for Active; 'I' for Inactive)
REMARK    1  A    between atoms: C_1  and  C_2
REMARK    2  A    between atoms: C_2  and  C_3
REMARK    3  A    between atoms: C_3  and  N_4
REMARK    4  A    between atoms: N_4  and  C_5
REMARK    5  A    between atoms: N_4  and  C_8
REMARK    6  A    between atoms: C_5  and  C_6
REMARK    7  A    between atoms: C_6  and  C_7
REMARK    8  A    between atoms: C_8  and  C_9
REMARK    9  A    between atoms: C_9  and  C_10
REMARK   10  A    between atoms: C_15  and  O_16
REMARK                            x       y       z     vdW  Elec       q    Type
REMARK                         _______ _______ _______ _____ _____    ______ ____
ROOT
ATOM      1  C   UNL     1       4.280   4.470  16.361  0.00  0.00    +0.000 C 
ENDROOT
BRANCH   1   2
ATOM      2  C   UNL     1       3.550   4.030  17.605  0.00  0.00    +0.000 A 
ATOM      3  C   UNL     1       3.708   4.739  18.806  0.00  0.00    +0.000 A 
ATOM      4  C   UNL     1       3.026   4.344  19.956  0.00  0.00    +0.000 A 
ATOM      5  C   UNL     1       2.174   3.237  19.928  0.00  0.00    +0.000 A 
ATOM      6 CL   UNL     1       1.334   2.786  21.405  0.00  0.00    +0.000 Cl
ATOM      7  C   UNL     1       2.004   2.517  18.729  0.00  0.00    +0.000 A 
ATOM      8  C   UNL     1       2.691   2.918  17.575  0.00  0.00    +0.000 A 
BRANCH   7   9
ATOM      9  O   UNL     1       1.185   1.444  18.653  0.00  0.00    +0.000 OA
ATOM     10  H   UNL     1       0.220   1.514  18.657  0.00  0.00    +0.000 HD
ENDBRANCH   7   9
ENDBRANCH   1   2
BRANCH   1  11
ATOM     11  C   UNL     1       5.650   3.774  16.211  0.00  0.00    +0.000 C 
BRANCH  11  12
ATOM     12  N   UNL     1       6.779   4.704  15.920  0.00  0.00    +0.000 NA
BRANCH  12  13
ATOM     13  C   UNL     1       6.991   4.753  14.443  0.00  0.00    +0.000 C 
BRANCH  13  15
ATOM     14  C   UNL     1       6.657   3.702  12.181  0.00  0.00    +0.000 C 
ATOM     15  C   UNL     1       6.157   3.753  13.627  0.00  0.00    +0.000 C 
ENDBRANCH  13  15
ENDBRANCH  12  13
BRANCH  12  16
ATOM     16  C   UNL     1       6.487   6.059  16.472  0.00  0.00    +0.000 C 
BRANCH  16  17
ATOM     17  C   UNL     1       7.345   6.458  17.697  0.00  0.00    +0.000 C 
ATOM     18  C   UNL     1       7.790   7.918  17.653  0.00  0.00    +0.000 C 
ENDBRANCH  16  17
ENDBRANCH  12  16
ENDBRANCH  11  12
ENDBRANCH   1  11
TORSDOF 8
ENDMDL
MODEL 7
REMARK VINA RESULT:      -6.1      1.339      3.257
REMARK  Name = 
REMARK  10 active torsions:
REMARK  status: ('A' for Active; 'I' for Inactive)
REMARK    1  A    between atoms: C_1  and  C_2
REMARK    2  A    between atoms: C_2  and  C_3
REMARK    3  A    between atoms: C_3  and  N_4
REMARK    4  A    between atoms: N_4  and  C_5
REMARK    5  A    between atoms: N_4  and  C_8
REMARK    6  A    between atoms: C_5  and  C_6
REMARK    7  A    between atoms: C_6  and  C_7
REMARK    8  A    between atoms: C_8  and  C_9
REMARK    9  A    between atoms: C_9  and  C_10
REMARK   10  A    between atoms: C_15  and  O_16
REMARK                            x       y       z     vdW  Elec       q    Type
REMARK                         _______ _______ _______ _____ _____    ______ ____
ROOT
ATOM      1  C   UNL     1       4.033   4.636  16.693  0.00  0.00    +0.000 C 
ENDROOT
BRANCH   1   2
ATOM      2  C   UNL     1       3.490   4.095  17.991  0.00  0.00    +0.000 A 
ATOM      3  C   UNL     1       2.149   4.315  18.344  0.00  0.00    +0.000 A 
ATOM      4  C   UNL     1       1.639   3.806  19.537  0.00  0.00    +0.000 A 
ATOM      5  C   UNL     1       2.456   3.069  20.399  0.00  0.00    +0.000 A 
ATOM      6 CL   UNL     1       1.760   2.446  21.888  0.00  0.00    +0.000 Cl
ATOM      7  C   UNL     1       3.803   2.838  20.057  0.00  0.00    +0.000 A 
ATOM      8  C   UNL     1       4.312   3.351  18.855  0.00  0.00    +0.000 A 
BRANCH   7   9
ATOM      9  O   UNL     1       4.628   2.124  20.855  0.00  0.00    +0.000 OA
ATOM     10  H   UNL     1       5.127   1.355  20.547  0.00  0.00    +0.000 HD
ENDBRANCH   7   9
ENDBRANCH   1   2
BRANCH   1  11
ATOM     11  C   UNL     1       5.318   3.905  16.247  0.00  0.00    +0.000 C 
BRANCH  11  12
ATOM     12  N   UNL     1       6.483   4.806  16.013  0.00  0.00    +0.000 NA
BRANCH  12  13
ATOM     13  C   UNL     1       6.876   4.719  14.576  0.00  0.00    +0.000 C 
BRANCH  13  15
ATOM     14  C   UNL     1       6.562   3.715  12.290  0.00  0.00    +0.000 C 
ATOM     15  C   UNL     1       6.000   3.797  13.712  0.00  0.00    +0.000 C 
ENDBRANCH  13  15
ENDBRANCH  12  13
BRANCH  12  16
ATOM     16  C   UNL     1       6.138   6.207  16.398  0.00  0.00    +0.000 C 
BRANCH  16  17
ATOM     17  C   UNL     1       7.003   6.797  17.537  0.00  0.00    +0.000 C 
ATOM     18  C   UNL     1       7.599   5.720  18.442  0.00  0.00    +0.000 C 
ENDBRANCH  16  17
ENDBRANCH  12  16
ENDBRANCH  11  12
ENDBRANCH   1  11
TORSDOF 8
ENDMDL
MODEL 8
REMARK VINA RESULT:      -6.0      1.721      3.124
REMARK  Name = 
REMARK  10 active torsions:
REMARK  status: ('A' for Active; 'I' for Inactive)
REMARK    1  A    between atoms: C_1  and  C_2
REMARK    2  A    between atoms: C_2  and  C_3
REMARK    3  A    between atoms: C_3  and  N_4
REMARK    4  A    between atoms: N_4  and  C_5
REMARK    5  A    between atoms: N_4  and  C_8
REMARK    6  A    between atoms: C_5  and  C_6
REMARK    7  A    between atoms: C_6  and  C_7
REMARK    8  A    between atoms: C_8  and  C_9
REMARK    9  A    between atoms: C_9  and  C_10
REMARK   10  A    between atoms: C_15  and  O_16
REMARK                            x       y       z     vdW  Elec       q    Type
REMARK                         _______ _______ _______ _____ _____    ______ ____
ROOT
ATOM      1  C   UNL     1       5.295   3.970  16.540  0.00  0.00    +0.000 C 
ENDROOT
BRANCH   1   2
ATOM      2  C   UNL     1       4.323   3.643  17.646  0.00  0.00    +0.000 A 
ATOM      3  C   UNL     1       4.750   3.631  18.983  0.00  0.00    +0.000 A 
ATOM      4  C   UNL     1       3.852   3.342  20.009  0.00  0.00    +0.000 A 
ATOM      5  C   UNL     1       2.514   3.060  19.722  0.00  0.00    +0.000 A 
ATOM      6 CL   UNL     1       1.424   2.707  21.055  0.00  0.00    +0.000 Cl
ATOM      7  C   UNL     1       2.071   3.070  18.384  0.00  0.00    +0.000 A 
ATOM      8  C   UNL     1       2.977   3.362  17.355  0.00  0.00    +0.000 A 
BRANCH   7   9
ATOM      9  O   UNL     1       0.785   2.810  18.059  0.00  0.00    +0.000 OA
ATOM     10  H   UNL     1       0.279   2.082  18.446  0.00  0.00    +0.000 HD
ENDBRANCH   7   9
ENDBRANCH   1   2
BRANCH   1  11
ATOM     11  C   UNL     1       4.990   5.331  15.878  0.00  0.00    +0.000 C 
BRANCH  11  12
ATOM     12  N   UNL     1       5.821   6.459  16.390  0.00  0.00    +0.000 NA
BRANCH  12  13
ATOM     13  C   UNL     1       5.071   7.151  17.479  0.00  0.00    +0.000 C 
BRANCH  13  15
ATOM     14  C   UNL     1       2.823   6.891  18.581  0.00  0.00    +0.000 C 
ATOM     15  C   UNL     1       3.549   7.234  17.277  0.00  0.00    +0.000 C 
ENDBRANCH  13  15
ENDBRANCH  12  13
BRANCH  12  16
ATOM     16  C   UNL     1       7.138   5.951  16.875  0.00  0.00    +0.000 C 
BRANCH  16  17
ATOM     17  C   UNL     1       7.676   6.657  18.143  0.00  0.00    +0.000 C 
ATOM     18  C   UNL     1       7.839   5.701  19.324  0.00  0.00    +0.000 C 
ENDBRANCH  16  17
ENDBRANCH  12  16
ENDBRANCH  11  12
ENDBRANCH   1  11
TORSDOF 8
ENDMDL
MODEL 9
REMARK VINA RESULT:      -6.0      1.187      1.654
REMARK  Name = 
REMARK  10 active torsions:
REMARK  status: ('A' for Active; 'I' for Inactive)
REMARK    1  A    between atoms: C_1  and  C_2
REMARK    2  A    between atoms: C_2  and  C_3
REMARK    3  A    between atoms: C_3  and  N_4
REMARK    4  A    between atoms: N_4  and  C_5
REMARK    5  A    between atoms: N_4  and  C_8
REMARK    6  A    between atoms: C_5  and  C_6
REMARK    7  A    between atoms: C_6  and  C_7
REMARK    8  A    between atoms: C_8  and  C_9
REMARK    9  A    between atoms: C_9  and  C_10
REMARK   10  A    between atoms: C_15  and  O_16
REMARK                            x       y       z     vdW  Elec       q    Type
REMARK                         _______ _______ _______ _____ _____    ______ ____
ROOT
ATOM      1  C   UNL     1       3.994   4.680  16.701  0.00  0.00    +0.000 C 
ENDROOT
BRANCH   1   2
ATOM      2  C   UNL     1       3.342   4.155  17.956  0.00  0.00    +0.000 A 
ATOM      3  C   UNL     1       2.906   2.822  18.022  0.00  0.00    +0.000 A 
ATOM      4  C   UNL     1       2.314   2.329  19.183  0.00  0.00    +0.000 A 
ATOM      5  C   UNL     1       2.146   3.154  20.298  0.00  0.00    +0.000 A 
ATOM      6 CL   UNL     1       1.398   2.478  21.739  0.00  0.00    +0.000 Cl
ATOM      7  C   UNL     1       2.581   4.493  20.247  0.00  0.00    +0.000 A 
ATOM      8  C   UNL     1       3.177   4.986  19.077  0.00  0.00    +0.000 A 
BRANCH   7   9
ATOM      9  O   UNL     1       2.447   5.326  21.303  0.00  0.00    +0.000 OA
ATOM     10  H   UNL     1       2.107   5.040  22.162  0.00  0.00    +0.000 HD
ENDBRANCH   7   9
ENDBRANCH   1   2
BRANCH   1  11
ATOM     11  C   UNL     1       5.314   3.946  16.379  0.00  0.00    +0.000 C 
BRANCH  11  12
ATOM     12  N   UNL     1       6.463   4.853  16.094  0.00  0.00    +0.000 NA
BRANCH  12  13
ATOM     13  C   UNL     1       7.510   4.642  17.137  0.00  0.00    +0.000 C 
BRANCH  13  15
ATOM     14  C   UNL     1       7.876   6.791  18.394  0.00  0.00    +0.000 C 
ATOM     15  C   UNL     1       7.274   5.385  18.462  0.00  0.00    +0.000 C 
ENDBRANCH  13  15
ENDBRANCH  12  13
BRANCH  12  16
ATOM     16  C   UNL     1       7.000   4.591  14.725  0.00  0.00    +0.000 C 
BRANCH  16  17
ATOM     17  C   UNL     1       6.032   3.833  13.785  0.00  0.00    +0.000 C 
ATOM     18  C   UNL     1       6.572   3.708  12.362  0.00  0.00    +0.000 C 
ENDBRANCH  16  17
ENDBRANCH  12  16
ENDBRANCH  11  12
ENDBRANCH   1  11
TORSDOF 8
ENDMDL
