MODEL 1
REMARK VINA RESULT:      -7.2      0.000      0.000
REMARK  Name = 
REMARK  5 active torsions:
REMARK  status: ('A' for Active; 'I' for Inactive)
REMARK    1  A    between atoms: C_1  and  N_2
REMARK    2  A    between atoms: C_3  and  C_5
REMARK    3  A    between atoms: C_10  and  C_12
REMARK    4  A    between atoms: C_12  and  N_13
REMARK    5  A    between atoms: C_12  and  C_14
REMARK                            x       y       z     vdW  Elec       q    Type
REMARK                         _______ _______ _______ _____ _____    ______ ____
ROOT
ATOM      1  C   UNL     1       6.876   5.015  16.816  0.00  0.00    +0.000 C 
ATOM      2  C   UNL     1       7.067   5.544  15.374  0.00  0.00    +0.000 C 
ATOM      3  C   UNL     1       6.636   4.384  14.508  0.00  0.00    +0.000 C 
ATOM      4  C   UNL     1       5.530   3.732  15.321  0.00  0.00    +0.000 C 
ATOM      5  N   UNL     1       5.563   4.333  16.665  0.00  0.00    +0.000 N 
ATOM      6  C   UNL     1       4.802   3.609  17.587  0.00  0.00    +0.000 C 
ATOM      7  O   UNL     1       4.125   2.646  17.194  0.00  0.00    +0.000 OA
ENDROOT
BRANCH   1  10
ATOM      8  C   UNL     1       7.997   8.557  17.787  0.00  0.00    +0.000 C 
ATOM      9  N   UNL     1       7.328   7.447  17.141  0.00  0.00    +0.000 N 
ATOM     10  C   UNL     1       7.290   6.203  17.715  0.00  0.00    +0.000 C 
ATOM     11  O   UNL     1       7.784   5.986  18.825  0.00  0.00    +0.000 OA
ATOM     12  H   UNL     1       7.008   7.556  16.181  0.00  0.00    +0.000 HD
ENDBRANCH   1  10
BRANCH   6  13
ATOM     13  C   UNL     1       4.732   3.989  19.088  0.00  0.00    +0.000 C 
BRANCH  13  14
ATOM     14  C   UNL     1       3.265   4.359  19.541  0.00  0.00    +0.000 C 
ATOM     15  C   UNL     1       2.232   4.856  18.484  0.00  0.00    +0.000 C 
ATOM     16  C   UNL     1       1.074   3.940  18.062  0.00  0.00    +0.000 C 
ATOM     17  C   UNL     1       0.565   3.013  19.152  0.00  0.00    +0.000 C 
ATOM     18  C   UNL     1       1.724   2.293  19.802  0.00  0.00    +0.000 C 
ATOM     19  C   UNL     1       2.659   3.292  20.478  0.00  0.00    +0.000 C 
ENDBRANCH  13  14
BRANCH  13  20
ATOM     20  N   UNL     1       5.321   2.873  19.858  0.00  0.00    +0.000 NA
ATOM     21  H   UNL     1       6.179   2.583  19.387  0.00  0.00    +0.000 HD
ATOM     22  H   UNL     1       4.698   2.073  19.850  0.00  0.00    +0.000 HD
ENDBRANCH  13  20
ENDBRANCH   6  13
TORSDOF 4
ENDMDL
MODEL 2
REMARK VINA RESULT:      -7.1      2.295      5.631
REMARK  Name = 
REMARK  5 active torsions:
REMARK  status: ('A' for Active; 'I' for Inactive)
REMARK    1  A    between atoms: C_1  and  N_2
REMARK    2  A    between atoms: C_3  and  C_5
REMARK    3  A    between atoms: C_10  and  C_12
REMARK    4  A    between atoms: C_12  and  N_13
REMARK    5  A    between atoms: C_12  and  C_14
REMARK                            x       y       z     vdW  Elec       q    Type
REMARK                         _______ _______ _______ _____ _____    ______ ____
ROOT
ATOM      1  C   UNL     1       1.950   4.718  19.207  0.00  0.00    +0.000 C 
ATOM      2  C   UNL     1       1.295   4.386  20.570  0.00  0.00    +0.000 C 
ATOM      3  C   UNL     1       1.164   2.881  20.547  0.00  0.00    +0.000 C 
ATOM      4  C   UNL     1       2.383   2.436  19.756  0.00  0.00    +0.000 C 
ATOM      5  N   UNL     1       2.974   3.641  19.149  0.00  0.00    +0.000 N 
ATOM      6  C   UNL     1       3.911   3.329  18.159  0.00  0.00    +0.000 C 
ATOM      7  O   UNL     1       4.220   2.142  17.967  0.00  0.00    +0.000 OA
ENDROOT
BRANCH   1  10
ATOM      8  C   UNL     1       1.758   8.328  20.503  0.00  0.00    +0.000 C 
ATOM      9  N   UNL     1       1.943   6.894  20.429  0.00  0.00    +0.000 N 
ATOM     10  C   UNL     1       2.114   6.255  19.227  0.00  0.00    +0.000 C 
ATOM     11  O   UNL     1       2.161   6.879  18.164  0.00  0.00    +0.000 OA
ATOM     12  H   UNL     1       1.799   6.334  21.267  0.00  0.00    +0.000 HD
ENDBRANCH   1  10
BRANCH   6  13
ATOM     13  C   UNL     1       4.622   4.417  17.316  0.00  0.00    +0.000 C 
BRANCH  13  14
ATOM     14  C   UNL     1       5.214   5.575  18.212  0.00  0.00    +0.000 C 
ATOM     15  C   UNL     1       6.265   5.237  19.314  0.00  0.00    +0.000 C 
ATOM     16  C   UNL     1       7.732   5.649  19.118  0.00  0.00    +0.000 C 
ATOM     17  C   UNL     1       7.934   6.931  18.331  0.00  0.00    +0.000 C 
ATOM     18  C   UNL     1       7.123   6.890  17.056  0.00  0.00    +0.000 C 
ATOM     19  C   UNL     1       5.633   6.802  17.376  0.00  0.00    +0.000 C 
ENDBRANCH  13  14
BRANCH  13  20
ATOM     20  N   UNL     1       5.640   3.740  16.484  0.00  0.00    +0.000 NA
ATOM     21  H   UNL     1       6.394   4.404  16.304  0.00  0.00    +0.000 HD
ATOM     22  H   UNL     1       5.248   3.490  15.583  0.00  0.00    +0.000 HD
ENDBRANCH  13  20
ENDBRANCH   6  13
TORSDOF 4
ENDMDL
MODEL 3
REMARK VINA RESULT:      -7.1      2.163      3.426
REMARK  Name = 
REMARK  5 active torsions:
REMARK  status: ('A' for Active; 'I' for Inactive)
REMARK    1  A    between atoms: C_1  and  N_2
REMARK    2  A    between atoms: C_3  and  C_5
REMARK    3  A    between atoms: C_10  and  C_12
REMARK    4  A    between atoms: C_12  and  N_13
REMARK    5  A    between atoms: C_12  and  C_14
REMARK                            x       y       z     vdW  Elec       q    Type
REMARK                         _______ _______ _______ _____ _____    ______ ____
ROOT
ATOM      1  C   UNL     1       6.144   5.643  17.018  0.00  0.00    +0.000 C 
ATOM      2  C   UNL     1       7.519   4.970  17.248  0.00  0.00    +0.000 C 
ATOM      3  C   UNL     1       7.823   5.264  18.698  0.00  0.00    +0.000 C 
ATOM      4  C   UNL     1       6.451   5.252  19.352  0.00  0.00    +0.000 C 
ATOM      5  N   UNL     1       5.452   5.238  18.270  0.00  0.00    +0.000 N 
ATOM      6  C   UNL     1       4.166   5.532  18.734  0.00  0.00    +0.000 C 
ATOM      7  O   UNL     1       3.975   5.664  19.954  0.00  0.00    +0.000 OA
ENDROOT
BRANCH   1  10
ATOM      8  C   UNL     1       6.253   3.863  13.617  0.00  0.00    +0.000 C 
ATOM      9  N   UNL     1       6.229   4.122  15.041  0.00  0.00    +0.000 N 
ATOM     10  C   UNL     1       5.809   5.328  15.542  0.00  0.00    +0.000 C 
ATOM     11  O   UNL     1       5.392   6.226  14.804  0.00  0.00    +0.000 OA
ATOM     12  H   UNL     1       6.666   3.454  15.672  0.00  0.00    +0.000 HD
ENDBRANCH   1  10
BRANCH   6  13
ATOM     13  C   UNL     1       2.947   5.653  17.785  0.00  0.00    +0.000 C 
BRANCH  13  14
ATOM     14  C   UNL     1       2.176   4.284  17.625  0.00  0.00    +0.000 C 
ATOM     15  C   UNL     1       2.977   2.975  17.348  0.00  0.00    +0.000 C 
ATOM     16  C   UNL     1       3.111   1.917  18.453  0.00  0.00    +0.000 C 
ATOM     17  C   UNL     1       1.921   1.821  19.391  0.00  0.00    +0.000 C 
ATOM     18  C   UNL     1       1.542   3.197  19.889  0.00  0.00    +0.000 C 
ATOM     19  C   UNL     1       1.111   4.084  18.723  0.00  0.00    +0.000 C 
ENDBRANCH  13  14
BRANCH  13  20
ATOM     20  N   UNL     1       2.096   6.750  18.292  0.00  0.00    +0.000 NA
ATOM     21  H   UNL     1       1.156   6.379  18.438  0.00  0.00    +0.000 HD
ATOM     22  H   UNL     1       2.017   7.485  17.598  0.00  0.00    +0.000 HD
ENDBRANCH  13  20
ENDBRANCH   6  13
TORSDOF 4
ENDMDL
MODEL 4
REMARK VINA RESULT:      -7.0      1.933      3.494
REMARK  Name = 
REMARK  5 active torsions:
REMARK  status: ('A' for Active; 'I' for Inactive)
REMARK    1  A    between atoms: C_1  and  N_2
REMARK    2  A    between atoms: C_3  and  C_5
REMARK    3  A    between atoms: C_10  and  C_12
REMARK    4  A    between atoms: C_12  and  N_13
REMARK    5  A    between atoms: C_12  and  C_14
REMARK                            x       y       z     vdW  Elec       q    Type
REMARK                         _______ _______ _______ _____ _____    ______ ____
ROOT
ATOM      1  C   UNL     1       6.271   4.930  17.102  0.00  0.00    +0.000 C 
ATOM      2  C   UNL     1       7.747   4.704  17.509  0.00  0.00    +0.000 C 
ATOM      3  C   UNL     1       7.926   5.596  18.715  0.00  0.00    +0.000 C 
ATOM      4  C   UNL     1       6.564   5.553  19.387  0.00  0.00    +0.000 C 
ATOM      5  N   UNL     1       5.632   4.910  18.445  0.00  0.00    +0.000 N 
ATOM      6  C   UNL     1       4.297   5.085  18.819  0.00  0.00    +0.000 C 
ATOM      7  O   UNL     1       4.036   5.639  19.899  0.00  0.00    +0.000 OA
ENDROOT
BRANCH   1  10
ATOM      8  C   UNL     1       6.206   3.788  13.436  0.00  0.00    +0.000 C 
ATOM      9  N   UNL     1       6.602   4.404  14.685  0.00  0.00    +0.000 N 
ATOM     10  C   UNL     1       6.066   4.002  15.882  0.00  0.00    +0.000 C 
ATOM     11  O   UNL     1       5.259   3.071  15.950  0.00  0.00    +0.000 OA
ATOM     12  H   UNL     1       7.177   5.243  14.661  0.00  0.00    +0.000 HD
ENDBRANCH   1  10
BRANCH   6  13
ATOM     13  C   UNL     1       3.117   4.569  17.957  0.00  0.00    +0.000 C 
BRANCH  13  14
ATOM     14  C   UNL     1       2.414   3.310  18.600  0.00  0.00    +0.000 C 
ATOM     15  C   UNL     1       3.221   2.381  19.558  0.00  0.00    +0.000 C 
ATOM     16  C   UNL     1       2.915   2.391  21.063  0.00  0.00    +0.000 C 
ATOM     17  C   UNL     1       1.464   2.668  21.417  0.00  0.00    +0.000 C 
ATOM     18  C   UNL     1       0.973   3.889  20.673  0.00  0.00    +0.000 C 
ATOM     19  C   UNL     1       1.019   3.648  19.166  0.00  0.00    +0.000 C 
ENDBRANCH  13  14
BRANCH  13  20
ATOM     20  N   UNL     1       2.197   5.706  17.736  0.00  0.00    +0.000 NA
ATOM     21  H   UNL     1       2.421   6.122  16.831  0.00  0.00    +0.000 HD
ATOM     22  H   UNL     1       2.352   6.424  18.435  0.00  0.00    +0.000 HD
ENDBRANCH  13  20
ENDBRANCH   6  13
TORSDOF 4
ENDMDL
MODEL 5
REMARK VINA RESULT:      -6.9      1.404      1.738
REMARK  Name = 
REMARK  5 active torsions:
REMARK  status: ('A' for Active; 'I' for Inactive)
REMARK    1  A    between atoms: C_1  and  N_2
REMARK    2  A    between atoms: C_3  and  C_5
REMARK    3  A    between atoms: C_10  and  C_12
REMARK    4  A    between atoms: C_12  and  N_13
REMARK    5  A    between atoms: C_12  and  C_14
REMARK                            x       y       z     vdW  Elec       q    Type
REMARK                         _______ _______ _______ _____ _____    ______ ____
ROOT
ATOM      1  C   UNL     1       6.680   4.485  16.309  0.00  0.00    +0.000 C 
ATOM      2  C   UNL     1       7.160   4.983  14.925  0.00  0.00    +0.000 C 
ATOM      3  C   UNL     1       6.394   4.120  13.949  0.00  0.00    +0.000 C 
ATOM      4  C   UNL     1       5.068   3.888  14.654  0.00  0.00    +0.000 C 
ATOM      5  N   UNL     1       5.222   4.357  16.041  0.00  0.00    +0.000 N 
ATOM      6  C   UNL     1       4.181   3.921  16.866  0.00  0.00    +0.000 C 
ATOM      7  O   UNL     1       3.225   3.307  16.365  0.00  0.00    +0.000 OA
ENDROOT
BRANCH   1  10
ATOM      8  C   UNL     1       8.012   5.753  19.680  0.00  0.00    +0.000 C 
ATOM      9  N   UNL     1       7.611   4.890  18.588  0.00  0.00    +0.000 N 
ATOM     10  C   UNL     1       7.437   5.379  17.319  0.00  0.00    +0.000 C 
ATOM     11  O   UNL     1       7.657   6.561  17.044  0.00  0.00    +0.000 OA
ATOM     12  H   UNL     1       7.314   3.939  18.794  0.00  0.00    +0.000 HD
ENDBRANCH   1  10
BRANCH   6  13
ATOM     13  C   UNL     1       4.146   4.216  18.387  0.00  0.00    +0.000 C 
BRANCH  13  14
ATOM     14  C   UNL     1       2.671   4.312  18.942  0.00  0.00    +0.000 C 
ATOM     15  C   UNL     1       1.718   3.083  18.819  0.00  0.00    +0.000 C 
ATOM     16  C   UNL     1       1.346   2.281  20.075  0.00  0.00    +0.000 C 
ATOM     17  C   UNL     1       1.271   3.097  21.354  0.00  0.00    +0.000 C 
ATOM     18  C   UNL     1       2.514   3.944  21.501  0.00  0.00    +0.000 C 
ATOM     19  C   UNL     1       2.618   4.941  20.350  0.00  0.00    +0.000 C 
ENDBRANCH  13  14
BRANCH  13  20
ATOM     20  N   UNL     1       4.960   3.181  19.059  0.00  0.00    +0.000 NA
ATOM     21  H   UNL     1       5.855   3.119  18.573  0.00  0.00    +0.000 HD
ATOM     22  H   UNL     1       4.516   2.274  18.973  0.00  0.00    +0.000 HD
ENDBRANCH  13  20
ENDBRANCH   6  13
TORSDOF 4
ENDMDL
MODEL 6
REMARK VINA RESULT:      -6.8      0.989      1.583
REMARK  Name = 
REMARK  5 active torsions:
REMARK  status: ('A' for Active; 'I' for Inactive)
REMARK    1  A    between atoms: C_1  and  N_2
REMARK    2  A    between atoms: C_3  and  C_5
REMARK    3  A    between atoms: C_10  and  C_12
REMARK    4  A    between atoms: C_12  and  N_13
REMARK    5  A    between atoms: C_12  and  C_14
REMARK                            x       y       z     vdW  Elec       q    Type
REMARK                         _______ _______ _______ _____ _____    ______ ____
ROOT
ATOM      1  C   UNL     1       6.899   5.135  16.529  0.00  0.00    +0.000 C 
ATOM      2  C   UNL     1       7.328   5.717  15.160  0.00  0.00    +0.000 C 
ATOM      3  C   UNL     1       6.936   4.640  14.175  0.00  0.00    +0.000 C 
ATOM      4  C   UNL     1       5.681   4.043  14.791  0.00  0.00    +0.000 C 
ATOM      5  N   UNL     1       5.572   4.573  16.161  0.00  0.00    +0.000 N 
ATOM      6  C   UNL     1       4.638   3.869  16.927  0.00  0.00    +0.000 C 
ATOM      7  O   UNL     1       3.951   2.986  16.389  0.00  0.00    +0.000 OA
ENDROOT
BRANCH   1  10
ATOM      8  C   UNL     1       8.044   8.553  17.852  0.00  0.00    +0.000 C 
ATOM      9  N   UNL     1       7.399   7.519  17.071  0.00  0.00    +0.000 N 
ATOM     10  C   UNL     1       7.272   6.239  17.545  0.00  0.00    +0.000 C 
ATOM     11  O   UNL     1       7.661   5.925  18.673  0.00  0.00    +0.000 OA
ATOM     12  H   UNL     1       7.165   7.708  16.098  0.00  0.00    +0.000 HD
ENDBRANCH   1  10
BRANCH   6  13
ATOM     13  C   UNL     1       4.388   4.179  18.425  0.00  0.00    +0.000 C 
BRANCH  13  14
ATOM     14  C   UNL     1       2.979   3.663  18.914  0.00  0.00    +0.000 C 
ATOM     15  C   UNL     1       2.887   2.360  19.766  0.00  0.00    +0.000 C 
ATOM     16  C   UNL     1       2.543   2.451  21.260  0.00  0.00    +0.000 C 
ATOM     17  C   UNL     1       1.616   3.595  21.633  0.00  0.00    +0.000 C 
ATOM     18  C   UNL     1       2.118   4.886  21.029  0.00  0.00    +0.000 C 
ATOM     19  C   UNL     1       2.116   4.798  19.505  0.00  0.00    +0.000 C 
ENDBRANCH  13  14
BRANCH  13  20
ATOM     20  N   UNL     1       5.519   3.613  19.191  0.00  0.00    +0.000 NA
ATOM     21  H   UNL     1       5.692   2.668  18.845  0.00  0.00    +0.000 HD
ATOM     22  H   UNL     1       5.273   3.527  20.170  0.00  0.00    +0.000 HD
ENDBRANCH  13  20
ENDBRANCH   6  13
TORSDOF 4
ENDMDL
MODEL 7
REMARK VINA RESULT:      -6.6      2.312      5.393
REMARK  Name = 
REMARK  5 active torsions:
REMARK  status: ('A' for Active; 'I' for Inactive)
REMARK    1  A    between atoms: C_1  and  N_2
REMARK    2  A    between atoms: C_3  and  C_5
REMARK    3  A    between atoms: C_10  and  C_12
REMARK    4  A    between atoms: C_12  and  N_13
REMARK    5  A    between atoms: C_12  and  C_14
REMARK                            x       y       z     vdW  Elec       q    Type
REMARK                         _______ _______ _______ _____ _____    ______ ____
ROOT
ATOM      1  C   UNL     1       2.263   4.627  19.537  0.00  0.00    +0.000 C 
ATOM      2  C   UNL     1       1.193   4.435  20.639  0.00  0.00    +0.000 C 
ATOM      3  C   UNL     1       1.200   2.945  20.887  0.00  0.00    +0.000 C 
ATOM      4  C   UNL     1       2.652   2.559  20.661  0.00  0.00    +0.000 C 
ATOM      5  N   UNL     1       3.323   3.719  20.050  0.00  0.00    +0.000 N 
ATOM      6  C   UNL     1       4.573   3.389  19.520  0.00  0.00    +0.000 C 
ATOM      7  O   UNL     1       5.024   2.245  19.694  0.00  0.00    +0.000 OA
ENDROOT
BRANCH   1  10
ATOM      8  C   UNL     1       1.764   8.376  20.206  0.00  0.00    +0.000 C 
ATOM      9  N   UNL     1       2.078   6.972  20.371  0.00  0.00    +0.000 N 
ATOM     10  C   UNL     1       2.286   6.154  19.290  0.00  0.00    +0.000 C 
ATOM     11  O   UNL     1       2.257   6.587  18.135  0.00  0.00    +0.000 OA
ATOM     12  H   UNL     1       2.001   6.554  21.296  0.00  0.00    +0.000 HD
ENDBRANCH   1  10
BRANCH   6  13
ATOM     13  C   UNL     1       5.450   4.414  18.757  0.00  0.00    +0.000 C 
BRANCH  13  14
ATOM     14  C   UNL     1       4.827   4.809  17.361  0.00  0.00    +0.000 C 
ATOM     15  C   UNL     1       5.313   6.102  16.637  0.00  0.00    +0.000 C 
ATOM     16  C   UNL     1       6.184   5.987  15.377  0.00  0.00    +0.000 C 
ATOM     17  C   UNL     1       5.900   4.769  14.515  0.00  0.00    +0.000 C 
ATOM     18  C   UNL     1       5.874   3.523  15.371  0.00  0.00    +0.000 C 
ATOM     19  C   UNL     1       4.747   3.606  16.397  0.00  0.00    +0.000 C 
ENDBRANCH  13  14
BRANCH  13  20
ATOM     20  N   UNL     1       5.664   5.570  19.653  0.00  0.00    +0.000 NA
ATOM     21  H   UNL     1       5.897   5.212  20.580  0.00  0.00    +0.000 HD
ATOM     22  H   UNL     1       4.806   6.102  19.752  0.00  0.00    +0.000 HD
ENDBRANCH  13  20
ENDBRANCH   6  13
TORSDOF 4
ENDMDL
MODEL 8
REMARK VINA RESULT:      -6.6      1.696      1.795
REMARK  Name = 
REMARK  5 active torsions:
REMARK  status: ('A' for Active; 'I' for Inactive)
REMARK    1  A    between atoms: C_1  and  N_2
REMARK    2  A    between atoms: C_3  and  C_5
REMARK    3  A    between atoms: C_10  and  C_12
REMARK    4  A    between atoms: C_12  and  N_13
REMARK    5  A    between atoms: C_12  and  C_14
REMARK                            x       y       z     vdW  Elec       q    Type
REMARK                         _______ _______ _______ _____ _____    ______ ____
ROOT
ATOM      1  C   UNL     1       6.462   4.258  16.833  0.00  0.00    +0.000 C 
ATOM      2  C   UNL     1       6.685   5.491  15.924  0.00  0.00    +0.000 C 
ATOM      3  C   UNL     1       5.656   5.320  14.831  0.00  0.00    +0.000 C 
ATOM      4  C   UNL     1       4.491   4.657  15.548  0.00  0.00    +0.000 C 
ATOM      5  N   UNL     1       4.976   4.239  16.875  0.00  0.00    +0.000 N 
ATOM      6  C   UNL     1       4.095   3.355  17.505  0.00  0.00    +0.000 C 
ATOM      7  O   UNL     1       3.003   3.101  16.972  0.00  0.00    +0.000 OA
ENDROOT
BRANCH   1  10
ATOM      8  C   UNL     1       8.125   5.719  19.971  0.00  0.00    +0.000 C 
ATOM      9  N   UNL     1       7.140   5.235  19.027  0.00  0.00    +0.000 N 
ATOM     10  C   UNL     1       7.494   4.434  17.972  0.00  0.00    +0.000 C 
ATOM     11  O   UNL     1       8.657   4.055  17.807  0.00  0.00    +0.000 OA
ATOM     12  H   UNL     1       6.195   5.613  19.063  0.00  0.00    +0.000 HD
ENDBRANCH   1  10
BRANCH   6  13
ATOM     13  C   UNL     1       4.407   2.709  18.879  0.00  0.00    +0.000 C 
BRANCH  13  14
ATOM     14  C   UNL     1       3.675   3.449  20.066  0.00  0.00    +0.000 C 
ATOM     15  C   UNL     1       3.383   4.977  19.960  0.00  0.00    +0.000 C 
ATOM     16  C   UNL     1       1.940   5.463  19.753  0.00  0.00    +0.000 C 
ATOM     17  C   UNL     1       0.876   4.592  20.397  0.00  0.00    +0.000 C 
ATOM     18  C   UNL     1       1.103   3.142  20.034  0.00  0.00    +0.000 C 
ATOM     19  C   UNL     1       2.448   2.663  20.574  0.00  0.00    +0.000 C 
ENDBRANCH  13  14
BRANCH  13  20
ATOM     20  N   UNL     1       4.065   1.273  18.782  0.00  0.00    +0.000 NA
ATOM     21  H   UNL     1       4.303   0.955  17.842  0.00  0.00    +0.000 HD
ATOM     22  H   UNL     1       3.066   1.141  18.893  0.00  0.00    +0.000 HD
ENDBRANCH  13  20
ENDBRANCH   6  13
TORSDOF 4
ENDMDL
MODEL 9
REMARK VINA RESULT:      -6.6      1.540      2.191
REMARK  Name = 
REMARK  5 active torsions:
REMARK  status: ('A' for Active; 'I' for Inactive)
REMARK    1  A    between atoms: C_1  and  N_2
REMARK    2  A    between atoms: C_3  and  C_5
REMARK    3  A    between atoms: C_10  and  C_12
REMARK    4  A    between atoms: C_12  and  N_13
REMARK    5  A    between atoms: C_12  and  C_14
REMARK                            x       y       z     vdW  Elec       q    Type
REMARK                         _______ _______ _______ _____ _____    ______ ____
ROOT
ATOM      1  C   UNL     1       6.745   4.449  16.077  0.00  0.00    +0.000 C 
ATOM      2  C   UNL     1       7.189   4.960  14.686  0.00  0.00    +0.000 C 
ATOM      3  C   UNL     1       6.455   4.057  13.722  0.00  0.00    +0.000 C 
ATOM      4  C   UNL     1       5.147   3.769  14.441  0.00  0.00    +0.000 C 
ATOM      5  N   UNL     1       5.292   4.253  15.824  0.00  0.00    +0.000 N 
ATOM      6  C   UNL     1       4.279   3.775  16.661  0.00  0.00    +0.000 C 
ATOM      7  O   UNL     1       3.348   3.115  16.172  0.00  0.00    +0.000 OA
ENDROOT
BRANCH   1  10
ATOM      8  C   UNL     1       8.020   5.814  19.432  0.00  0.00    +0.000 C 
ATOM      9  N   UNL     1       7.651   4.922  18.354  0.00  0.00    +0.000 N 
ATOM     10  C   UNL     1       7.470   5.382  17.075  0.00  0.00    +0.000 C 
ATOM     11  O   UNL     1       7.656   6.566  16.780  0.00  0.00    +0.000 OA
ATOM     12  H   UNL     1       7.381   3.966  18.575  0.00  0.00    +0.000 HD
ENDBRANCH   1  10
BRANCH   6  13
ATOM     13  C   UNL     1       4.245   4.077  18.180  0.00  0.00    +0.000 C 
BRANCH  13  14
ATOM     14  C   UNL     1       2.770   4.231  18.725  0.00  0.00    +0.000 C 
ATOM     15  C   UNL     1       2.404   3.665  20.131  0.00  0.00    +0.000 C 
ATOM     16  C   UNL     1       2.141   4.632  21.295  0.00  0.00    +0.000 C 
ATOM     17  C   UNL     1       1.521   5.959  20.894  0.00  0.00    +0.000 C 
ATOM     18  C   UNL     1       2.293   6.564  19.743  0.00  0.00    +0.000 C 
ATOM     19  C   UNL     1       2.219   5.657  18.518  0.00  0.00    +0.000 C 
ENDBRANCH  13  14
BRANCH  13  20
ATOM     20  N   UNL     1       5.015   3.015  18.862  0.00  0.00    +0.000 NA
ATOM     21  H   UNL     1       4.476   2.150  18.807  0.00  0.00    +0.000 HD
ATOM     22  H   UNL     1       5.120   3.233  19.847  0.00  0.00    +0.000 HD
ENDBRANCH  13  20
ENDBRANCH   6  13
TORSDOF 4
ENDMDL
