MODEL 1
REMARK VINA RESULT:      -7.2      0.000      0.000
REMARK  Name = 
REMARK  5 active torsions:
REMARK  status: ('A' for Active; 'I' for Inactive)
REMARK    1  A    between atoms: C_1  and  C_2
REMARK    2  A    between atoms: C_2  and  C_3
REMARK    3  A    between atoms: C_3  and  N_4
REMARK    4  A    between atoms: N_8  and  C_9
REMARK    5  A    between atoms: C_9  and  C_10
REMARK                            x       y       z     vdW  Elec       q    Type
REMARK                         _______ _______ _______ _____ _____    ______ ____
ROOT
ATOM      1  N   UNL     1       5.093   6.462  16.702  0.00  0.00    +0.000 N 
ATOM      2  C   UNL     1       3.893   6.986  17.185  0.00  0.00    +0.000 C 
ATOM      3  O   UNL     1       3.275   7.884  16.619  0.00  0.00    +0.000 OA
ATOM      4  C   UNL     1       3.464   6.429  18.542  0.00  0.00    +0.000 C 
ATOM      5  N   UNL     1       3.747   4.994  18.569  0.00  0.00    +0.000 N 
ATOM      6  C   UNL     1       5.046   4.539  18.865  0.00  0.00    +0.000 C 
ATOM      7  O   UNL     1       5.310   3.401  19.223  0.00  0.00    +0.000 OA
ATOM      8  C   UNL     1       6.163   5.521  18.700  0.00  0.00    +0.000 A 
ATOM      9  C   UNL     1       7.236   5.498  19.599  0.00  0.00    +0.000 A 
ATOM     10  C   UNL     1       8.289   6.411  19.453  0.00  0.00    +0.000 A 
ATOM     11  C   UNL     1       8.292   7.321  18.399  0.00  0.00    +0.000 A 
ATOM     12  C   UNL     1       7.247   7.311  17.471  0.00  0.00    +0.000 A 
ATOM     13  C   UNL     1       6.181   6.412  17.619  0.00  0.00    +0.000 A 
ENDROOT
BRANCH   1  14
ATOM     14  C   UNL     1       5.350   6.485  15.265  0.00  0.00    +0.000 C 
BRANCH  14  16
ATOM     15  C   UNL     1       6.991   4.795  14.312  0.00  0.00    +0.000 C 
ATOM     16  C   UNL     1       5.549   5.073  14.695  0.00  0.00    +0.000 C 
ENDBRANCH  14  16
ENDBRANCH   1  14
BRANCH   5  17
ATOM     17  C   UNL     1       2.641   4.029  18.513  0.00  0.00    +0.000 C 
BRANCH  17  18
ATOM     18  C   UNL     1       1.404   4.360  19.395  0.00  0.00    +0.000 C 
ATOM     19  C   UNL     1       0.444   3.183  19.632  0.00  0.00    +0.000 C 
ATOM     20  C   UNL     1       1.027   2.076  20.504  0.00  0.00    +0.000 C 
ATOM     21  C   UNL     1       1.658   2.576  21.802  0.00  0.00    +0.000 C 
ATOM     22  C   UNL     1       2.499   3.841  21.650  0.00  0.00    +0.000 C 
ATOM     23  C   UNL     1       1.837   4.901  20.772  0.00  0.00    +0.000 C 
ENDBRANCH  17  18
ENDBRANCH   5  17
TORSDOF 4
ENDMDL
MODEL 2
REMARK VINA RESULT:      -6.9      1.660      3.626
REMARK  Name = 
REMARK  5 active torsions:
REMARK  status: ('A' for Active; 'I' for Inactive)
REMARK    1  A    between atoms: C_1  and  C_2
REMARK    2  A    between atoms: C_2  and  C_3
REMARK    3  A    between atoms: C_3  and  N_4
REMARK    4  A    between atoms: N_8  and  C_9
REMARK    5  A    between atoms: C_9  and  C_10
REMARK                            x       y       z     vdW  Elec       q    Type
REMARK                         _______ _______ _______ _____ _____    ______ ____
ROOT
ATOM      1  N   UNL     1       6.473   6.320  17.553  0.00  0.00    +0.000 N 
ATOM      2  C   UNL     1       6.793   5.613  18.714  0.00  0.00    +0.000 C 
ATOM      3  O   UNL     1       7.723   5.923  19.454  0.00  0.00    +0.000 OA
ATOM      4  C   UNL     1       5.960   4.351  18.932  0.00  0.00    +0.000 C 
ATOM      5  N   UNL     1       4.574   4.634  18.556  0.00  0.00    +0.000 N 
ATOM      6  C   UNL     1       4.187   4.579  17.205  0.00  0.00    +0.000 C 
ATOM      7  O   UNL     1       3.030   4.478  16.826  0.00  0.00    +0.000 OA
ATOM      8  C   UNL     1       5.276   4.673  16.182  0.00  0.00    +0.000 A 
ATOM      9  C   UNL     1       5.180   3.921  15.005  0.00  0.00    +0.000 A 
ATOM     10  C   UNL     1       6.193   4.004  14.039  0.00  0.00    +0.000 A 
ATOM     11  C   UNL     1       7.279   4.856  14.227  0.00  0.00    +0.000 A 
ATOM     12  C   UNL     1       7.349   5.646  15.379  0.00  0.00    +0.000 A 
ATOM     13  C   UNL     1       6.349   5.556  16.358  0.00  0.00    +0.000 A 
ENDROOT
BRANCH   1  14
ATOM     14  C   UNL     1       6.782   7.744  17.481  0.00  0.00    +0.000 C 
BRANCH  14  16
ATOM     15  C   UNL     1       8.456   9.534  18.152  0.00  0.00    +0.000 C 
ATOM     16  C   UNL     1       8.205   8.048  17.971  0.00  0.00    +0.000 C 
ENDBRANCH  14  16
ENDBRANCH   1  14
BRANCH   5  17
ATOM     17  C   UNL     1       3.544   4.752  19.597  0.00  0.00    +0.000 C 
BRANCH  17  18
ATOM     18  C   UNL     1       3.284   3.475  20.445  0.00  0.00    +0.000 C 
ATOM     19  C   UNL     1       2.001   3.510  21.291  0.00  0.00    +0.000 C 
ATOM     20  C   UNL     1       0.717   3.476  20.468  0.00  0.00    +0.000 C 
ATOM     21  C   UNL     1       0.684   2.369  19.416  0.00  0.00    +0.000 C 
ATOM     22  C   UNL     1       1.992   2.185  18.651  0.00  0.00    +0.000 C 
ATOM     23  C   UNL     1       3.226   2.221  19.551  0.00  0.00    +0.000 C 
ENDBRANCH  17  18
ENDBRANCH   5  17
TORSDOF 4
ENDMDL
MODEL 3
REMARK VINA RESULT:      -6.8      1.795      5.841
REMARK  Name = 
REMARK  5 active torsions:
REMARK  status: ('A' for Active; 'I' for Inactive)
REMARK    1  A    between atoms: C_1  and  C_2
REMARK    2  A    between atoms: C_2  and  C_3
REMARK    3  A    between atoms: C_3  and  N_4
REMARK    4  A    between atoms: N_8  and  C_9
REMARK    5  A    between atoms: C_9  and  C_10
REMARK                            x       y       z     vdW  Elec       q    Type
REMARK                         _______ _______ _______ _____ _____    ______ ____
ROOT
ATOM      1  N   UNL     1       1.957   4.823  18.676  0.00  0.00    +0.000 N 
ATOM      2  C   UNL     1       1.708   4.190  17.457  0.00  0.00    +0.000 C 
ATOM      3  O   UNL     1       0.762   4.480  16.729  0.00  0.00    +0.000 OA
ATOM      4  C   UNL     1       2.649   3.024  17.150  0.00  0.00    +0.000 C 
ATOM      5  N   UNL     1       4.001   3.391  17.570  0.00  0.00    +0.000 N 
ATOM      6  C   UNL     1       4.380   3.258  18.918  0.00  0.00    +0.000 C 
ATOM      7  O   UNL     1       5.538   3.225  19.306  0.00  0.00    +0.000 OA
ATOM      8  C   UNL     1       3.278   3.176  19.928  0.00  0.00    +0.000 A 
ATOM      9  C   UNL     1       3.427   2.341  21.041  0.00  0.00    +0.000 A 
ATOM     10  C   UNL     1       2.403   2.259  21.994  0.00  0.00    +0.000 A 
ATOM     11  C   UNL     1       1.250   3.028  21.859  0.00  0.00    +0.000 A 
ATOM     12  C   UNL     1       1.122   3.901  20.774  0.00  0.00    +0.000 A 
ATOM     13  C   UNL     1       2.135   3.977  19.807  0.00  0.00    +0.000 A 
ENDROOT
BRANCH   1  14
ATOM     14  C   UNL     1       1.526   6.205  18.858  0.00  0.00    +0.000 C 
BRANCH  14  16
ATOM     15  C   UNL     1       1.620   7.832  20.808  0.00  0.00    +0.000 C 
ATOM     16  C   UNL     1       2.417   6.958  19.857  0.00  0.00    +0.000 C 
ENDBRANCH  14  16
ENDBRANCH   1  14
BRANCH   5  17
ATOM     17  C   UNL     1       5.027   3.681  16.558  0.00  0.00    +0.000 C 
BRANCH  17  18
ATOM     18  C   UNL     1       4.953   5.087  15.898  0.00  0.00    +0.000 C 
ATOM     19  C   UNL     1       4.720   6.250  16.876  0.00  0.00    +0.000 C 
ATOM     20  C   UNL     1       5.898   6.521  17.806  0.00  0.00    +0.000 C 
ATOM     21  C   UNL     1       7.242   6.631  17.089  0.00  0.00    +0.000 C 
ATOM     22  C   UNL     1       7.461   5.591  15.993  0.00  0.00    +0.000 C 
ATOM     23  C   UNL     1       6.237   5.390  15.101  0.00  0.00    +0.000 C 
ENDBRANCH  17  18
ENDBRANCH   5  17
TORSDOF 4
ENDMDL
MODEL 4
REMARK VINA RESULT:      -6.6      7.358      8.882
REMARK  Name = 
REMARK  5 active torsions:
REMARK  status: ('A' for Active; 'I' for Inactive)
REMARK    1  A    between atoms: C_1  and  C_2
REMARK    2  A    between atoms: C_2  and  C_3
REMARK    3  A    between atoms: C_3  and  N_4
REMARK    4  A    between atoms: N_8  and  C_9
REMARK    5  A    between atoms: C_9  and  C_10
REMARK                            x       y       z     vdW  Elec       q    Type
REMARK                         _______ _______ _______ _____ _____    ______ ____
ROOT
ATOM      1  N   UNL     1      -0.256  11.137  19.027  0.00  0.00    +0.000 N 
ATOM      2  C   UNL     1       0.250  12.305  19.599  0.00  0.00    +0.000 C 
ATOM      3  O   UNL     1       0.379  13.357  18.977  0.00  0.00    +0.000 OA
ATOM      4  C   UNL     1       0.737  12.141  21.038  0.00  0.00    +0.000 C 
ATOM      5  N   UNL     1      -0.198  11.272  21.753  0.00  0.00    +0.000 N 
ATOM      6  C   UNL     1      -0.095   9.875  21.626  0.00  0.00    +0.000 C 
ATOM      7  O   UNL     1      -0.595   9.077  22.405  0.00  0.00    +0.000 OA
ATOM      8  C   UNL     1       0.659   9.353  20.443  0.00  0.00    +0.000 A 
ATOM      9  C   UNL     1       1.446   8.204  20.582  0.00  0.00    +0.000 A 
ATOM     10  C   UNL     1       2.154   7.705  19.480  0.00  0.00    +0.000 A 
ATOM     11  C   UNL     1       2.054   8.327  18.238  0.00  0.00    +0.000 A 
ATOM     12  C   UNL     1       1.228   9.444  18.086  0.00  0.00    +0.000 A 
ATOM     13  C   UNL     1       0.529   9.960  19.187  0.00  0.00    +0.000 A 
ENDROOT
BRANCH   1  14
ATOM     14  C   UNL     1      -1.199  11.240  17.918  0.00  0.00    +0.000 C 
BRANCH  14  16
ATOM     15  C   UNL     1      -2.809   9.761  16.624  0.00  0.00    +0.000 C 
ATOM     16  C   UNL     1      -2.293  10.165  17.992  0.00  0.00    +0.000 C 
ENDBRANCH  14  16
ENDBRANCH   1  14
BRANCH   5  17
ATOM     17  C   UNL     1      -1.091  11.841  22.771  0.00  0.00    +0.000 C 
BRANCH  17  18
ATOM     18  C   UNL     1      -2.173  12.829  22.251  0.00  0.00    +0.000 C 
ATOM     19  C   UNL     1      -3.604  12.531  22.729  0.00  0.00    +0.000 C 
ATOM     20  C   UNL     1      -3.818  12.760  24.222  0.00  0.00    +0.000 C 
ATOM     21  C   UNL     1      -3.312  14.112  24.721  0.00  0.00    +0.000 C 
ATOM     22  C   UNL     1      -1.959  14.530  24.151  0.00  0.00    +0.000 C 
ATOM     23  C   UNL     1      -1.834  14.278  22.650  0.00  0.00    +0.000 C 
ENDBRANCH  17  18
ENDBRANCH   5  17
TORSDOF 4
ENDMDL
MODEL 5
REMARK VINA RESULT:      -6.5      7.218      8.793
REMARK  Name = 
REMARK  5 active torsions:
REMARK  status: ('A' for Active; 'I' for Inactive)
REMARK    1  A    between atoms: C_1  and  C_2
REMARK    2  A    between atoms: C_2  and  C_3
REMARK    3  A    between atoms: C_3  and  N_4
REMARK    4  A    between atoms: N_8  and  C_9
REMARK    5  A    between atoms: C_9  and  C_10
REMARK                            x       y       z     vdW  Elec       q    Type
REMARK                         _______ _______ _______ _____ _____    ______ ____
ROOT
ATOM      1  N   UNL     1      -0.210  11.042  18.957  0.00  0.00    +0.000 N 
ATOM      2  C   UNL     1       0.278  12.208  19.550  0.00  0.00    +0.000 C 
ATOM      3  O   UNL     1       0.410  13.267  18.941  0.00  0.00    +0.000 OA
ATOM      4  C   UNL     1       0.740  12.033  20.996  0.00  0.00    +0.000 C 
ATOM      5  N   UNL     1      -0.202  11.150  21.685  0.00  0.00    +0.000 N 
ATOM      6  C   UNL     1      -0.088   9.755  21.546  0.00  0.00    +0.000 C 
ATOM      7  O   UNL     1      -0.596   8.945  22.307  0.00  0.00    +0.000 OA
ATOM      8  C   UNL     1       0.691   9.250  20.372  0.00  0.00    +0.000 A 
ATOM      9  C   UNL     1       1.484   8.105  20.514  0.00  0.00    +0.000 A 
ATOM     10  C   UNL     1       2.215   7.622  19.420  0.00  0.00    +0.000 A 
ATOM     11  C   UNL     1       2.133   8.256  18.182  0.00  0.00    +0.000 A 
ATOM     12  C   UNL     1       1.302   9.369  18.026  0.00  0.00    +0.000 A 
ATOM     13  C   UNL     1       0.580   9.868  19.120  0.00  0.00    +0.000 A 
ENDROOT
BRANCH   1  14
ATOM     14  C   UNL     1      -1.134  11.150  17.832  0.00  0.00    +0.000 C 
BRANCH  14  16
ATOM     15  C   UNL     1      -3.211   9.701  17.625  0.00  0.00    +0.000 C 
ATOM     16  C   UNL     1      -2.591  10.931  18.264  0.00  0.00    +0.000 C 
ENDBRANCH  14  16
ENDBRANCH   1  14
BRANCH   5  17
ATOM     17  C   UNL     1      -1.118  11.702  22.692  0.00  0.00    +0.000 C 
BRANCH  17  18
ATOM     18  C   UNL     1      -1.644  13.139  22.419  0.00  0.00    +0.000 C 
ATOM     19  C   UNL     1      -2.694  13.243  21.300  0.00  0.00    +0.000 C 
ATOM     20  C   UNL     1      -4.032  12.597  21.648  0.00  0.00    +0.000 C 
ATOM     21  C   UNL     1      -4.591  13.020  23.005  0.00  0.00    +0.000 C 
ATOM     22  C   UNL     1      -3.553  13.087  24.122  0.00  0.00    +0.000 C 
ATOM     23  C   UNL     1      -2.249  13.757  23.694  0.00  0.00    +0.000 C 
ENDBRANCH  17  18
ENDBRANCH   5  17
TORSDOF 4
ENDMDL
MODEL 6
REMARK VINA RESULT:      -6.5      1.598      6.107
REMARK  Name = 
REMARK  5 active torsions:
REMARK  status: ('A' for Active; 'I' for Inactive)
REMARK    1  A    between atoms: C_1  and  C_2
REMARK    2  A    between atoms: C_2  and  C_3
REMARK    3  A    between atoms: C_3  and  N_4
REMARK    4  A    between atoms: N_8  and  C_9
REMARK    5  A    between atoms: C_9  and  C_10
REMARK                            x       y       z     vdW  Elec       q    Type
REMARK                         _______ _______ _______ _____ _____    ______ ____
ROOT
ATOM      1  N   UNL     1       3.533   4.433  18.936  0.00  0.00    +0.000 N 
ATOM      2  C   UNL     1       4.913   4.428  19.145  0.00  0.00    +0.000 C 
ATOM      3  O   UNL     1       5.506   3.507  19.701  0.00  0.00    +0.000 OA
ATOM      4  C   UNL     1       5.618   5.716  18.722  0.00  0.00    +0.000 C 
ATOM      5  N   UNL     1       5.027   6.184  17.468  0.00  0.00    +0.000 N 
ATOM      6  C   UNL     1       3.829   6.922  17.488  0.00  0.00    +0.000 C 
ATOM      7  O   UNL     1       3.435   7.616  16.564  0.00  0.00    +0.000 OA
ATOM      8  C   UNL     1       2.987   6.816  18.721  0.00  0.00    +0.000 A 
ATOM      9  C   UNL     1       2.296   7.944  19.180  0.00  0.00    +0.000 A 
ATOM     10  C   UNL     1       1.502   7.856  20.332  0.00  0.00    +0.000 A 
ATOM     11  C   UNL     1       1.370   6.645  21.006  0.00  0.00    +0.000 A 
ATOM     12  C   UNL     1       2.019   5.506  20.520  0.00  0.00    +0.000 A 
ATOM     13  C   UNL     1       2.828   5.589  19.378  0.00  0.00    +0.000 A 
ENDROOT
BRANCH   1  14
ATOM     14  C   UNL     1       2.832   3.161  18.792  0.00  0.00    +0.000 C 
BRANCH  14  16
ATOM     15  C   UNL     1       0.363   2.562  18.819  0.00  0.00    +0.000 C 
ATOM     16  C   UNL     1       1.464   3.333  18.115  0.00  0.00    +0.000 C 
ENDBRANCH  14  16
ENDBRANCH   1  14
BRANCH   5  17
ATOM     17  C   UNL     1       5.791   6.083  16.218  0.00  0.00    +0.000 C 
BRANCH  17  18
ATOM     18  C   UNL     1       6.621   4.782  16.031  0.00  0.00    +0.000 C 
ATOM     19  C   UNL     1       5.814   3.561  15.562  0.00  0.00    +0.000 C 
ATOM     20  C   UNL     1       5.290   3.677  14.133  0.00  0.00    +0.000 C 
ATOM     21  C   UNL     1       6.351   4.093  13.116  0.00  0.00    +0.000 C 
ATOM     22  C   UNL     1       7.286   5.201  13.595  0.00  0.00    +0.000 C 
ATOM     23  C   UNL     1       7.771   5.001  15.029  0.00  0.00    +0.000 C 
ENDBRANCH  17  18
ENDBRANCH   5  17
TORSDOF 4
ENDMDL
MODEL 7
REMARK VINA RESULT:      -6.4      2.197      5.996
REMARK  Name = 
REMARK  5 active torsions:
REMARK  status: ('A' for Active; 'I' for Inactive)
REMARK    1  A    between atoms: C_1  and  C_2
REMARK    2  A    between atoms: C_2  and  C_3
REMARK    3  A    between atoms: C_3  and  N_4
REMARK    4  A    between atoms: N_8  and  C_9
REMARK    5  A    between atoms: C_9  and  C_10
REMARK                            x       y       z     vdW  Elec       q    Type
REMARK                         _______ _______ _______ _____ _____    ______ ____
ROOT
ATOM      1  N   UNL     1       2.070   4.851  18.742  0.00  0.00    +0.000 N 
ATOM      2  C   UNL     1       1.802   4.244  17.514  0.00  0.00    +0.000 C 
ATOM      3  O   UNL     1       0.886   4.596  16.776  0.00  0.00    +0.000 OA
ATOM      4  C   UNL     1       2.675   3.027  17.210  0.00  0.00    +0.000 C 
ATOM      5  N   UNL     1       4.041   3.308  17.652  0.00  0.00    +0.000 N 
ATOM      6  C   UNL     1       4.391   3.141  19.004  0.00  0.00    +0.000 C 
ATOM      7  O   UNL     1       5.539   3.036  19.409  0.00  0.00    +0.000 OA
ATOM      8  C   UNL     1       3.271   3.117  19.997  0.00  0.00    +0.000 A 
ATOM      9  C   UNL     1       3.353   2.265  21.105  0.00  0.00    +0.000 A 
ATOM     10  C   UNL     1       2.312   2.237  22.043  0.00  0.00    +0.000 A 
ATOM     11  C   UNL     1       1.209   3.076  21.898  0.00  0.00    +0.000 A 
ATOM     12  C   UNL     1       1.151   3.963  20.820  0.00  0.00    +0.000 A 
ATOM     13  C   UNL     1       2.180   3.986  19.868  0.00  0.00    +0.000 A 
ENDROOT
BRANCH   1  14
ATOM     14  C   UNL     1       1.720   6.255  18.931  0.00  0.00    +0.000 C 
BRANCH  14  16
ATOM     15  C   UNL     1       2.119   8.524  17.858  0.00  0.00    +0.000 C 
ATOM     16  C   UNL     1       2.732   7.195  18.259  0.00  0.00    +0.000 C 
ENDBRANCH  14  16
ENDBRANCH   1  14
BRANCH   5  17
ATOM     17  C   UNL     1       5.097   3.544  16.658  0.00  0.00    +0.000 C 
BRANCH  17  18
ATOM     18  C   UNL     1       4.927   4.810  15.772  0.00  0.00    +0.000 C 
ATOM     19  C   UNL     1       5.966   5.916  16.019  0.00  0.00    +0.000 C 
ATOM     20  C   UNL     1       7.380   5.546  15.578  0.00  0.00    +0.000 C 
ATOM     21  C   UNL     1       7.460   4.984  14.160  0.00  0.00    +0.000 C 
ATOM     22  C   UNL     1       6.352   3.994  13.809  0.00  0.00    +0.000 C 
ATOM     23  C   UNL     1       4.970   4.447  14.276  0.00  0.00    +0.000 C 
ENDBRANCH  17  18
ENDBRANCH   5  17
TORSDOF 4
ENDMDL
MODEL 8
REMARK VINA RESULT:      -6.4      1.070      1.788
REMARK  Name = 
REMARK  5 active torsions:
REMARK  status: ('A' for Active; 'I' for Inactive)
REMARK    1  A    between atoms: C_1  and  C_2
REMARK    2  A    between atoms: C_2  and  C_3
REMARK    3  A    between atoms: C_3  and  N_4
REMARK    4  A    between atoms: N_8  and  C_9
REMARK    5  A    between atoms: C_9  and  C_10
REMARK                            x       y       z     vdW  Elec       q    Type
REMARK                         _______ _______ _______ _____ _____    ______ ____
ROOT
ATOM      1  N   UNL     1       4.741   6.455  16.974  0.00  0.00    +0.000 N 
ATOM      2  C   UNL     1       3.693   7.215  17.496  0.00  0.00    +0.000 C 
ATOM      3  O   UNL     1       3.112   8.087  16.856  0.00  0.00    +0.000 OA
ATOM      4  C   UNL     1       3.398   6.949  18.972  0.00  0.00    +0.000 C 
ATOM      5  N   UNL     1       3.510   5.512  19.221  0.00  0.00    +0.000 N 
ATOM      6  C   UNL     1       4.774   4.932  19.435  0.00  0.00    +0.000 C 
ATOM      7  O   UNL     1       4.949   3.841  19.957  0.00  0.00    +0.000 OA
ATOM      8  C   UNL     1       5.965   5.707  18.965  0.00  0.00    +0.000 A 
ATOM      9  C   UNL     1       7.145   5.677  19.719  0.00  0.00    +0.000 A 
ATOM     10  C   UNL     1       8.267   6.397  19.287  0.00  0.00    +0.000 A 
ATOM     11  C   UNL     1       8.228   7.116  18.095  0.00  0.00    +0.000 A 
ATOM     12  C   UNL     1       7.068   7.104  17.316  0.00  0.00    +0.000 A 
ATOM     13  C   UNL     1       5.934   6.400  17.749  0.00  0.00    +0.000 A 
ENDROOT
BRANCH   1  14
ATOM     14  C   UNL     1       4.792   6.210  15.536  0.00  0.00    +0.000 C 
BRANCH  14  16
ATOM     15  C   UNL     1       6.603   4.882  14.346  0.00  0.00    +0.000 C 
ATOM     16  C   UNL     1       5.357   4.819  15.210  0.00  0.00    +0.000 C 
ENDBRANCH  14  16
ENDBRANCH   1  14
BRANCH   5  17
ATOM     17  C   UNL     1       2.300   4.717  19.470  0.00  0.00    +0.000 C 
BRANCH  17  18
ATOM     18  C   UNL     1       1.689   4.000  18.233  0.00  0.00    +0.000 C 
ATOM     19  C   UNL     1       2.701   3.623  17.139  0.00  0.00    +0.000 C 
ATOM     20  C   UNL     1       3.677   2.525  17.551  0.00  0.00    +0.000 C 
ATOM     21  C   UNL     1       3.006   1.297  18.165  0.00  0.00    +0.000 C 
ATOM     22  C   UNL     1       1.881   1.617  19.146  0.00  0.00    +0.000 C 
ATOM     23  C   UNL     1       0.945   2.717  18.651  0.00  0.00    +0.000 C 
ENDBRANCH  17  18
ENDBRANCH   5  17
TORSDOF 4
ENDMDL
MODEL 9
REMARK VINA RESULT:      -6.2      4.805      6.647
REMARK  Name = 
REMARK  5 active torsions:
REMARK  status: ('A' for Active; 'I' for Inactive)
REMARK    1  A    between atoms: C_1  and  C_2
REMARK    2  A    between atoms: C_2  and  C_3
REMARK    3  A    between atoms: C_3  and  N_4
REMARK    4  A    between atoms: N_8  and  C_9
REMARK    5  A    between atoms: C_9  and  C_10
REMARK                            x       y       z     vdW  Elec       q    Type
REMARK                         _______ _______ _______ _____ _____    ______ ____
ROOT
ATOM      1  N   UNL     1      -0.398  10.211  19.331  0.00  0.00    +0.000 N 
ATOM      2  C   UNL     1      -0.024   9.484  20.463  0.00  0.00    +0.000 C 
ATOM      3  O   UNL     1      -0.753   9.339  21.441  0.00  0.00    +0.000 OA
ATOM      4  C   UNL     1       1.417   8.973  20.434  0.00  0.00    +0.000 C 
ATOM      5  N   UNL     1       1.721   8.509  19.080  0.00  0.00    +0.000 N 
ATOM      6  C   UNL     1       2.097   9.434  18.088  0.00  0.00    +0.000 C 
ATOM      7  O   UNL     1       2.670   9.133  17.052  0.00  0.00    +0.000 OA
ATOM      8  C   UNL     1       1.743  10.868  18.328  0.00  0.00    +0.000 A 
ATOM      9  C   UNL     1       2.627  11.872  17.915  0.00  0.00    +0.000 A 
ATOM     10  C   UNL     1       2.304  13.219  18.132  0.00  0.00    +0.000 A 
ATOM     11  C   UNL     1       1.093  13.567  18.725  0.00  0.00    +0.000 A 
ATOM     12  C   UNL     1       0.187  12.567  19.091  0.00  0.00    +0.000 A 
ATOM     13  C   UNL     1       0.509  11.216  18.893  0.00  0.00    +0.000 A 
ENDROOT
BRANCH   1  14
ATOM     14  C   UNL     1      -1.812  10.301  18.982  0.00  0.00    +0.000 C 
BRANCH  14  16
ATOM     15  C   UNL     1      -2.528  11.047  16.661  0.00  0.00    +0.000 C 
ATOM     16  C   UNL     1      -2.071   9.887  17.526  0.00  0.00    +0.000 C 
ENDBRANCH  14  16
ENDBRANCH   1  14
BRANCH   5  17
ATOM     17  C   UNL     1       1.856   7.071  18.814  0.00  0.00    +0.000 C 
BRANCH  17  18
ATOM     18  C   UNL     1       2.626   6.249  19.886  0.00  0.00    +0.000 C 
ATOM     19  C   UNL     1       1.757   5.284  20.708  0.00  0.00    +0.000 C 
ATOM     20  C   UNL     1       1.208   4.109  19.904  0.00  0.00    +0.000 C 
ATOM     21  C   UNL     1       2.264   3.375  19.079  0.00  0.00    +0.000 C 
ATOM     22  C   UNL     1       3.255   4.290  18.364  0.00  0.00    +0.000 C 
ATOM     23  C   UNL     1       3.762   5.431  19.243  0.00  0.00    +0.000 C 
ENDBRANCH  17  18
ENDBRANCH   5  17
TORSDOF 4
ENDMDL
