MODEL 1
REMARK VINA RESULT:      -8.1      0.000      0.000
REMARK  Name = 
REMARK  7 active torsions:
REMARK  status: ('A' for Active; 'I' for Inactive)
REMARK    1  A    between atoms: C_1  and  N_2
REMARK    2  A    between atoms: N_2  and  C_3
REMARK    3  A    between atoms: N_2  and  C_4
REMARK    4  A    between atoms: C_4  and  C_5
REMARK    5  A    between atoms: N_7  and  C_8
REMARK    6  A    between atoms: C_11  and  C_12
REMARK    7  A    between atoms: C_18  and  C_19
REMARK                            x       y       z     vdW  Elec       q    Type
REMARK                         _______ _______ _______ _____ _____    ______ ____
ROOT
ATOM      1  C   UNL     1       2.510   6.612  19.526  0.00  0.00    +0.000 A 
ATOM      2  N   UNL     1       2.048   5.756  20.467  0.00  0.00    +0.000 NA
ATOM      3  N   UNL     1       2.655   4.607  20.253  0.00  0.00    +0.000 N 
ATOM      4  C   UNL     1       3.541   4.612  19.229  0.00  0.00    +0.000 A 
ATOM      5  C   UNL     1       4.287   3.535  18.751  0.00  0.00    +0.000 A 
ATOM      6  C   UNL     1       5.139   3.768  17.688  0.00  0.00    +0.000 A 
ATOM      7  C   UNL     1       5.267   5.039  17.116  0.00  0.00    +0.000 A 
ATOM      8  C   UNL     1       4.502   6.138  17.651  0.00  0.00    +0.000 A 
ATOM      9  C   UNL     1       3.563   5.924  18.729  0.00  0.00    +0.000 A 
ATOM     10  H   UNL     1       2.412   3.823  20.846  0.00  0.00    +0.000 HD
ENDROOT
BRANCH   1  14
ATOM     11  C   UNL     1       0.704  10.597  20.099  0.00  0.00    +0.000 A 
ATOM     12  C   UNL     1       1.210  10.210  18.844  0.00  0.00    +0.000 A 
ATOM     13  C   UNL     1       1.757   8.910  18.584  0.00  0.00    +0.000 A 
ATOM     14  C   UNL     1       1.808   7.946  19.585  0.00  0.00    +0.000 A 
ATOM     15  C   UNL     1       1.245   8.344  20.835  0.00  0.00    +0.000 A 
ATOM     16  C   UNL     1       0.724   9.631  21.098  0.00  0.00    +0.000 A 
BRANCH  11  19
ATOM     17  C   UNL     1       0.946  12.953  20.956  0.00  0.00    +0.000 C 
ATOM     18  O   UNL     1       2.164  12.934  21.114  0.00  0.00    +0.000 OA
ATOM     19  N   UNL     1       0.214  11.900  20.430  0.00  0.00    +0.000 N 
ATOM     20  H   UNL     1      -0.768  12.095  20.265  0.00  0.00    +0.000 HD
BRANCH  17  21
ATOM     21  C   UNL     1       0.184  14.260  21.284  0.00  0.00    +0.000 C 
BRANCH  21  23
ATOM     22  C   UNL     1      -0.357  15.972  22.928  0.00  0.00    +0.000 C 
ATOM     23  N   UNL     1       0.005  14.561  22.729  0.00  0.00    +0.000 NA
ATOM     24  C   UNL     1      -1.115  13.741  23.244  0.00  0.00    +0.000 C 
ENDBRANCH  21  23
ENDBRANCH  17  21
ENDBRANCH  11  19
ENDBRANCH   1  14
BRANCH   7  25
ATOM     25  C   UNL     1       6.151   5.095  15.934  0.00  0.00    +0.000 A 
ATOM     26  N   UNL     1       5.882   4.290  14.824  0.00  0.00    +0.000 NA
ATOM     27  C   UNL     1       6.826   4.582  13.966  0.00  0.00    +0.000 A 
ATOM     28  N   UNL     1       7.653   5.497  14.527  0.00  0.00    +0.000 N 
ATOM     29  N   UNL     1       7.253   5.843  15.772  0.00  0.00    +0.000 NA
ATOM     30  H   UNL     1       8.481   5.925  14.126  0.00  0.00    +0.000 HD
ENDBRANCH   7  25
TORSDOF 5
ENDMDL
MODEL 2
REMARK VINA RESULT:      -8.1      1.058      1.620
REMARK  Name = 
REMARK  7 active torsions:
REMARK  status: ('A' for Active; 'I' for Inactive)
REMARK    1  A    between atoms: C_1  and  N_2
REMARK    2  A    between atoms: N_2  and  C_3
REMARK    3  A    between atoms: N_2  and  C_4
REMARK    4  A    between atoms: C_4  and  C_5
REMARK    5  A    between atoms: N_7  and  C_8
REMARK    6  A    between atoms: C_11  and  C_12
REMARK    7  A    between atoms: C_18  and  C_19
REMARK                            x       y       z     vdW  Elec       q    Type
REMARK                         _______ _______ _______ _____ _____    ______ ____
ROOT
ATOM      1  C   UNL     1       2.527   6.216  19.229  0.00  0.00    +0.000 A 
ATOM      2  N   UNL     1       1.880   5.264  19.941  0.00  0.00    +0.000 NA
ATOM      3  N   UNL     1       2.319   4.105  19.496  0.00  0.00    +0.000 N 
ATOM      4  C   UNL     1       3.263   4.187  18.528  0.00  0.00    +0.000 A 
ATOM      5  C   UNL     1       3.869   3.132  17.847  0.00  0.00    +0.000 A 
ATOM      6  C   UNL     1       4.815   3.446  16.890  0.00  0.00    +0.000 A 
ATOM      7  C   UNL     1       5.171   4.773  16.620  0.00  0.00    +0.000 A 
ATOM      8  C   UNL     1       4.546   5.840  17.361  0.00  0.00    +0.000 A 
ATOM      9  C   UNL     1       3.516   5.554  18.334  0.00  0.00    +0.000 A 
ATOM     10  H   UNL     1       1.923   3.262  19.892  0.00  0.00    +0.000 HD
ENDROOT
BRANCH   1  14
ATOM     11  C   UNL     1       0.804  10.236  19.807  0.00  0.00    +0.000 A 
ATOM     12  C   UNL     1       0.882   9.327  20.878  0.00  0.00    +0.000 A 
ATOM     13  C   UNL     1       1.481   8.028  20.764  0.00  0.00    +0.000 A 
ATOM     14  C   UNL     1       2.031   7.602  19.561  0.00  0.00    +0.000 A 
ATOM     15  C   UNL     1       1.984   8.559  18.503  0.00  0.00    +0.000 A 
ATOM     16  C   UNL     1       1.376   9.831  18.608  0.00  0.00    +0.000 A 
BRANCH  11  19
ATOM     17  C   UNL     1       0.565  12.629  20.559  0.00  0.00    +0.000 C 
ATOM     18  O   UNL     1       1.622  12.699  21.182  0.00  0.00    +0.000 OA
ATOM     19  N   UNL     1       0.156  11.512  19.848  0.00  0.00    +0.000 N 
ATOM     20  H   UNL     1      -0.690  11.633  19.301  0.00  0.00    +0.000 HD
BRANCH  17  21
ATOM     21  C   UNL     1      -0.331  13.888  20.491  0.00  0.00    +0.000 C 
BRANCH  21  23
ATOM     22  C   UNL     1       0.875  15.298  18.915  0.00  0.00    +0.000 C 
ATOM     23  N   UNL     1       0.377  15.180  20.293  0.00  0.00    +0.000 NA
ATOM     24  C   UNL     1      -0.587  16.282  20.510  0.00  0.00    +0.000 C 
ENDBRANCH  21  23
ENDBRANCH  17  21
ENDBRANCH  11  19
ENDBRANCH   1  14
BRANCH   7  25
ATOM     25  C   UNL     1       6.130   4.938  15.508  0.00  0.00    +0.000 A 
ATOM     26  N   UNL     1       5.920   4.269  14.300  0.00  0.00    +0.000 NA
ATOM     27  C   UNL     1       6.921   4.630  13.541  0.00  0.00    +0.000 A 
ATOM     28  N   UNL     1       7.727   5.457  14.252  0.00  0.00    +0.000 N 
ATOM     29  N   UNL     1       7.254   5.672  15.501  0.00  0.00    +0.000 NA
ATOM     30  H   UNL     1       8.586   5.906  13.954  0.00  0.00    +0.000 HD
ENDBRANCH   7  25
TORSDOF 5
ENDMDL
MODEL 3
REMARK VINA RESULT:      -8.1      0.861      1.343
REMARK  Name = 
REMARK  7 active torsions:
REMARK  status: ('A' for Active; 'I' for Inactive)
REMARK    1  A    between atoms: C_1  and  N_2
REMARK    2  A    between atoms: N_2  and  C_3
REMARK    3  A    between atoms: N_2  and  C_4
REMARK    4  A    between atoms: C_4  and  C_5
REMARK    5  A    between atoms: N_7  and  C_8
REMARK    6  A    between atoms: C_11  and  C_12
REMARK    7  A    between atoms: C_18  and  C_19
REMARK                            x       y       z     vdW  Elec       q    Type
REMARK                         _______ _______ _______ _____ _____    ______ ____
ROOT
ATOM      1  C   UNL     1       2.485   6.096  19.347  0.00  0.00    +0.000 A 
ATOM      2  N   UNL     1       1.810   5.126  20.007  0.00  0.00    +0.000 NA
ATOM      3  N   UNL     1       2.235   3.979  19.518  0.00  0.00    +0.000 N 
ATOM      4  C   UNL     1       3.195   4.086  18.568  0.00  0.00    +0.000 A 
ATOM      5  C   UNL     1       3.792   3.051  17.850  0.00  0.00    +0.000 A 
ATOM      6  C   UNL     1       4.759   3.389  16.922  0.00  0.00    +0.000 A 
ATOM      7  C   UNL     1       5.143   4.719  16.716  0.00  0.00    +0.000 A 
ATOM      8  C   UNL     1       4.526   5.764  17.495  0.00  0.00    +0.000 A 
ATOM      9  C   UNL     1       3.476   5.455  18.438  0.00  0.00    +0.000 A 
ATOM     10  H   UNL     1       1.817   3.128  19.870  0.00  0.00    +0.000 HD
ENDROOT
BRANCH   1  14
ATOM     11  C   UNL     1       0.808  10.108  20.092  0.00  0.00    +0.000 A 
ATOM     12  C   UNL     1       0.920   9.171  21.135  0.00  0.00    +0.000 A 
ATOM     13  C   UNL     1       1.507   7.873  20.966  0.00  0.00    +0.000 A 
ATOM     14  C   UNL     1       2.010   7.475  19.732  0.00  0.00    +0.000 A 
ATOM     15  C   UNL     1       1.929   8.459  18.702  0.00  0.00    +0.000 A 
ATOM     16  C   UNL     1       1.333   9.731  18.862  0.00  0.00    +0.000 A 
BRANCH  11  19
ATOM     17  C   UNL     1       0.695  12.535  20.756  0.00  0.00    +0.000 C 
ATOM     18  O   UNL     1       1.849  12.635  21.167  0.00  0.00    +0.000 OA
ATOM     19  N   UNL     1       0.169  11.385  20.189  0.00  0.00    +0.000 N 
ATOM     20  H   UNL     1      -0.765  11.480  19.804  0.00  0.00    +0.000 HD
BRANCH  17  21
ATOM     21  C   UNL     1      -0.209  13.791  20.794  0.00  0.00    +0.000 C 
BRANCH  21  23
ATOM     22  C   UNL     1      -1.167  13.570  23.021  0.00  0.00    +0.000 C 
ATOM     23  N   UNL     1      -1.462  13.666  21.584  0.00  0.00    +0.000 NA
ATOM     24  C   UNL     1      -2.269  14.889  21.379  0.00  0.00    +0.000 C 
ENDBRANCH  21  23
ENDBRANCH  17  21
ENDBRANCH  11  19
ENDBRANCH   1  14
BRANCH   7  25
ATOM     25  C   UNL     1       6.122   4.914  15.627  0.00  0.00    +0.000 A 
ATOM     26  N   UNL     1       5.978   4.217  14.426  0.00  0.00    +0.000 NA
ATOM     27  C   UNL     1       6.980   4.616  13.686  0.00  0.00    +0.000 A 
ATOM     28  N   UNL     1       7.724   5.492  14.405  0.00  0.00    +0.000 N 
ATOM     29  N   UNL     1       7.208   5.703  15.637  0.00  0.00    +0.000 NA
ATOM     30  H   UNL     1       8.569   5.979  14.121  0.00  0.00    +0.000 HD
ENDBRANCH   7  25
TORSDOF 5
ENDMDL
MODEL 4
REMARK VINA RESULT:      -8.0      1.496      1.920
REMARK  Name = 
REMARK  7 active torsions:
REMARK  status: ('A' for Active; 'I' for Inactive)
REMARK    1  A    between atoms: C_1  and  N_2
REMARK    2  A    between atoms: N_2  and  C_3
REMARK    3  A    between atoms: N_2  and  C_4
REMARK    4  A    between atoms: C_4  and  C_5
REMARK    5  A    between atoms: N_7  and  C_8
REMARK    6  A    between atoms: C_11  and  C_12
REMARK    7  A    between atoms: C_18  and  C_19
REMARK                            x       y       z     vdW  Elec       q    Type
REMARK                         _______ _______ _______ _____ _____    ______ ____
ROOT
ATOM      1  C   UNL     1       2.522   6.229  19.132  0.00  0.00    +0.000 A 
ATOM      2  N   UNL     1       1.848   5.282  19.824  0.00  0.00    +0.000 NA
ATOM      3  N   UNL     1       2.268   4.120  19.368  0.00  0.00    +0.000 N 
ATOM      4  C   UNL     1       3.223   4.195  18.411  0.00  0.00    +0.000 A 
ATOM      5  C   UNL     1       3.813   3.136  17.721  0.00  0.00    +0.000 A 
ATOM      6  C   UNL     1       4.775   3.443  16.778  0.00  0.00    +0.000 A 
ATOM      7  C   UNL     1       5.162   4.765  16.529  0.00  0.00    +0.000 A 
ATOM      8  C   UNL     1       4.552   5.836  17.278  0.00  0.00    +0.000 A 
ATOM      9  C   UNL     1       3.506   5.559  18.237  0.00  0.00    +0.000 A 
ATOM     10  H   UNL     1       1.850   3.280  19.749  0.00  0.00    +0.000 HD
ENDROOT
BRANCH   1  14
ATOM     11  C   UNL     1       0.876  10.276  19.749  0.00  0.00    +0.000 A 
ATOM     12  C   UNL     1       0.935   9.354  20.810  0.00  0.00    +0.000 A 
ATOM     13  C   UNL     1       1.509   8.046  20.684  0.00  0.00    +0.000 A 
ATOM     14  C   UNL     1       2.053   7.621  19.477  0.00  0.00    +0.000 A 
ATOM     15  C   UNL     1       2.025   8.590  18.428  0.00  0.00    +0.000 A 
ATOM     16  C   UNL     1       1.441   9.872  18.546  0.00  0.00    +0.000 A 
BRANCH  11  19
ATOM     17  C   UNL     1      -1.034  11.879  19.393  0.00  0.00    +0.000 C 
ATOM     18  O   UNL     1      -1.861  11.052  19.017  0.00  0.00    +0.000 OA
ATOM     19  N   UNL     1       0.252  11.563  19.802  0.00  0.00    +0.000 N 
ATOM     20  H   UNL     1       0.788  12.336  20.180  0.00  0.00    +0.000 HD
BRANCH  17  21
ATOM     21  C   UNL     1      -1.474  13.359  19.499  0.00  0.00    +0.000 C 
BRANCH  21  23
ATOM     22  C   UNL     1      -0.286  15.427  19.007  0.00  0.00    +0.000 C 
ATOM     23  N   UNL     1      -0.432  14.315  19.958  0.00  0.00    +0.000 NA
ATOM     24  C   UNL     1      -0.863  14.894  21.250  0.00  0.00    +0.000 C 
ENDBRANCH  21  23
ENDBRANCH  17  21
ENDBRANCH  11  19
ENDBRANCH   1  14
BRANCH   7  25
ATOM     25  C   UNL     1       6.136   4.924  15.429  0.00  0.00    +0.000 A 
ATOM     26  N   UNL     1       5.962   4.217  14.237  0.00  0.00    +0.000 NA
ATOM     27  C   UNL     1       6.968   4.584  13.484  0.00  0.00    +0.000 A 
ATOM     28  N   UNL     1       7.740   5.449  14.186  0.00  0.00    +0.000 N 
ATOM     29  N   UNL     1       7.241   5.686  15.420  0.00  0.00    +0.000 NA
ATOM     30  H   UNL     1       8.593   5.912  13.889  0.00  0.00    +0.000 HD
ENDBRANCH   7  25
TORSDOF 5
ENDMDL
MODEL 5
REMARK VINA RESULT:      -8.0      1.686      2.009
REMARK  Name = 
REMARK  7 active torsions:
REMARK  status: ('A' for Active; 'I' for Inactive)
REMARK    1  A    between atoms: C_1  and  N_2
REMARK    2  A    between atoms: N_2  and  C_3
REMARK    3  A    between atoms: N_2  and  C_4
REMARK    4  A    between atoms: C_4  and  C_5
REMARK    5  A    between atoms: N_7  and  C_8
REMARK    6  A    between atoms: C_11  and  C_12
REMARK    7  A    between atoms: C_18  and  C_19
REMARK                            x       y       z     vdW  Elec       q    Type
REMARK                         _______ _______ _______ _____ _____    ______ ____
ROOT
ATOM      1  C   UNL     1       2.523   6.096  19.220  0.00  0.00    +0.000 A 
ATOM      2  N   UNL     1       1.860   5.122  19.886  0.00  0.00    +0.000 NA
ATOM      3  N   UNL     1       2.291   3.978  19.396  0.00  0.00    +0.000 N 
ATOM      4  C   UNL     1       3.242   4.090  18.439  0.00  0.00    +0.000 A 
ATOM      5  C   UNL     1       3.841   3.058  17.717  0.00  0.00    +0.000 A 
ATOM      6  C   UNL     1       4.798   3.402  16.781  0.00  0.00    +0.000 A 
ATOM      7  C   UNL     1       5.170   4.735  16.570  0.00  0.00    +0.000 A 
ATOM      8  C   UNL     1       4.552   5.777  17.351  0.00  0.00    +0.000 A 
ATOM      9  C   UNL     1       3.511   5.461  18.304  0.00  0.00    +0.000 A 
ATOM     10  H   UNL     1       1.882   3.124  19.753  0.00  0.00    +0.000 HD
ENDROOT
BRANCH   1  14
ATOM     11  C   UNL     1       0.829  10.102  19.963  0.00  0.00    +0.000 A 
ATOM     12  C   UNL     1       0.928   9.158  21.003  0.00  0.00    +0.000 A 
ATOM     13  C   UNL     1       1.519   7.862  20.834  0.00  0.00    +0.000 A 
ATOM     14  C   UNL     1       2.040   7.472  19.606  0.00  0.00    +0.000 A 
ATOM     15  C   UNL     1       1.973   8.463  18.580  0.00  0.00    +0.000 A 
ATOM     16  C   UNL     1       1.373   9.732  18.739  0.00  0.00    +0.000 A 
BRANCH  11  19
ATOM     17  C   UNL     1      -1.058  11.720  19.555  0.00  0.00    +0.000 C 
ATOM     18  O   UNL     1      -1.834  10.922  19.034  0.00  0.00    +0.000 OA
ATOM     19  N   UNL     1       0.187  11.377  20.059  0.00  0.00    +0.000 N 
ATOM     20  H   UNL     1       0.675  12.119  20.549  0.00  0.00    +0.000 HD
BRANCH  17  21
ATOM     21  C   UNL     1      -1.524  13.184  19.736  0.00  0.00    +0.000 C 
BRANCH  21  23
ATOM     22  C   UNL     1      -2.416  12.758  21.960  0.00  0.00    +0.000 C 
ATOM     23  N   UNL     1      -2.671  13.391  20.659  0.00  0.00    +0.000 NA
ATOM     24  C   UNL     1      -2.825  14.843  20.897  0.00  0.00    +0.000 C 
ENDBRANCH  21  23
ENDBRANCH  17  21
ENDBRANCH  11  19
ENDBRANCH   1  14
BRANCH   7  25
ATOM     25  C   UNL     1       6.140   4.936  15.473  0.00  0.00    +0.000 A 
ATOM     26  N   UNL     1       5.957   4.281  14.253  0.00  0.00    +0.000 NA
ATOM     27  C   UNL     1       6.960   4.674  13.511  0.00  0.00    +0.000 A 
ATOM     28  N   UNL     1       7.740   5.505  14.245  0.00  0.00    +0.000 N 
ATOM     29  N   UNL     1       7.248   5.692  15.490  0.00  0.00    +0.000 NA
ATOM     30  H   UNL     1       8.595   5.975  13.964  0.00  0.00    +0.000 HD
ENDBRANCH   7  25
TORSDOF 5
ENDMDL
MODEL 6
REMARK VINA RESULT:      -8.0      0.959      1.271
REMARK  Name = 
REMARK  7 active torsions:
REMARK  status: ('A' for Active; 'I' for Inactive)
REMARK    1  A    between atoms: C_1  and  N_2
REMARK    2  A    between atoms: N_2  and  C_3
REMARK    3  A    between atoms: N_2  and  C_4
REMARK    4  A    between atoms: C_4  and  C_5
REMARK    5  A    between atoms: N_7  and  C_8
REMARK    6  A    between atoms: C_11  and  C_12
REMARK    7  A    between atoms: C_18  and  C_19
REMARK                            x       y       z     vdW  Elec       q    Type
REMARK                         _______ _______ _______ _____ _____    ______ ____
ROOT
ATOM      1  C   UNL     1       2.460   6.771  19.445  0.00  0.00    +0.000 A 
ATOM      2  N   UNL     1       1.987   5.961  20.420  0.00  0.00    +0.000 NA
ATOM      3  N   UNL     1       2.581   4.796  20.255  0.00  0.00    +0.000 N 
ATOM      4  C   UNL     1       3.468   4.749  19.233  0.00  0.00    +0.000 A 
ATOM      5  C   UNL     1       4.202   3.645  18.801  0.00  0.00    +0.000 A 
ATOM      6  C   UNL     1       5.058   3.823  17.731  0.00  0.00    +0.000 A 
ATOM      7  C   UNL     1       5.202   5.069  17.107  0.00  0.00    +0.000 A 
ATOM      8  C   UNL     1       4.448   6.197  17.595  0.00  0.00    +0.000 A 
ATOM      9  C   UNL     1       3.506   6.039  18.679  0.00  0.00    +0.000 A 
ATOM     10  H   UNL     1       2.328   4.041  20.879  0.00  0.00    +0.000 HD
ENDROOT
BRANCH   1  14
ATOM     11  C   UNL     1       0.697  10.796  19.851  0.00  0.00    +0.000 A 
ATOM     12  C   UNL     1       1.206  10.355  18.615  0.00  0.00    +0.000 A 
ATOM     13  C   UNL     1       1.740   9.039  18.409  0.00  0.00    +0.000 A 
ATOM     14  C   UNL     1       1.773   8.115  19.447  0.00  0.00    +0.000 A 
ATOM     15  C   UNL     1       1.207   8.568  20.677  0.00  0.00    +0.000 A 
ATOM     16  C   UNL     1       0.699   9.870  20.886  0.00  0.00    +0.000 A 
BRANCH  11  19
ATOM     17  C   UNL     1       0.906  13.126  20.785  0.00  0.00    +0.000 C 
ATOM     18  O   UNL     1       2.081  13.046  21.135  0.00  0.00    +0.000 OA
ATOM     19  N   UNL     1       0.220  12.117  20.127  0.00  0.00    +0.000 N 
ATOM     20  H   UNL     1      -0.713  12.361  19.812  0.00  0.00    +0.000 HD
BRANCH  17  21
ATOM     21  C   UNL     1       0.161  14.463  21.016  0.00  0.00    +0.000 C 
BRANCH  21  23
ATOM     22  C   UNL     1      -1.224  16.277  20.168  0.00  0.00    +0.000 C 
ATOM     23  N   UNL     1      -0.425  15.097  19.806  0.00  0.00    +0.000 NA
ATOM     24  C   UNL     1       0.680  15.562  18.938  0.00  0.00    +0.000 C 
ENDBRANCH  21  23
ENDBRANCH  17  21
ENDBRANCH  11  19
ENDBRANCH   1  14
BRANCH   7  25
ATOM     25  C   UNL     1       6.087   5.065  15.924  0.00  0.00    +0.000 A 
ATOM     26  N   UNL     1       5.762   4.286  14.812  0.00  0.00    +0.000 NA
ATOM     27  C   UNL     1       6.724   4.512  13.954  0.00  0.00    +0.000 A 
ATOM     28  N   UNL     1       7.615   5.363  14.520  0.00  0.00    +0.000 N 
ATOM     29  N   UNL     1       7.241   5.732  15.766  0.00  0.00    +0.000 NA
ATOM     30  H   UNL     1       8.472   5.732  14.120  0.00  0.00    +0.000 HD
ENDBRANCH   7  25
TORSDOF 5
ENDMDL
MODEL 7
REMARK VINA RESULT:      -7.9      1.561      1.728
REMARK  Name = 
REMARK  7 active torsions:
REMARK  status: ('A' for Active; 'I' for Inactive)
REMARK    1  A    between atoms: C_1  and  N_2
REMARK    2  A    between atoms: N_2  and  C_3
REMARK    3  A    between atoms: N_2  and  C_4
REMARK    4  A    between atoms: C_4  and  C_5
REMARK    5  A    between atoms: N_7  and  C_8
REMARK    6  A    between atoms: C_11  and  C_12
REMARK    7  A    between atoms: C_18  and  C_19
REMARK                            x       y       z     vdW  Elec       q    Type
REMARK                         _______ _______ _______ _____ _____    ______ ____
ROOT
ATOM      1  C   UNL     1       2.564   6.863  19.049  0.00  0.00    +0.000 A 
ATOM      2  N   UNL     1       2.067   6.075  20.030  0.00  0.00    +0.000 NA
ATOM      3  N   UNL     1       2.617   4.889  19.867  0.00  0.00    +0.000 N 
ATOM      4  C   UNL     1       3.497   4.805  18.841  0.00  0.00    +0.000 A 
ATOM      5  C   UNL     1       4.187   3.673  18.410  0.00  0.00    +0.000 A 
ATOM      6  C   UNL     1       5.043   3.815  17.335  0.00  0.00    +0.000 A 
ATOM      7  C   UNL     1       5.228   5.051  16.704  0.00  0.00    +0.000 A 
ATOM      8  C   UNL     1       4.520   6.209  17.190  0.00  0.00    +0.000 A 
ATOM      9  C   UNL     1       3.579   6.090  18.281  0.00  0.00    +0.000 A 
ATOM     10  H   UNL     1       2.341   4.146  20.497  0.00  0.00    +0.000 HD
ENDROOT
BRANCH   1  14
ATOM     11  C   UNL     1       0.910  10.932  19.471  0.00  0.00    +0.000 A 
ATOM     12  C   UNL     1       1.519  10.525  18.270  0.00  0.00    +0.000 A 
ATOM     13  C   UNL     1       2.024   9.199  18.055  0.00  0.00    +0.000 A 
ATOM     14  C   UNL     1       1.927   8.231  19.048  0.00  0.00    +0.000 A 
ATOM     15  C   UNL     1       1.262   8.653  20.239  0.00  0.00    +0.000 A 
ATOM     16  C   UNL     1       0.782   9.964  20.460  0.00  0.00    +0.000 A 
BRANCH  11  19
ATOM     17  C   UNL     1      -0.690  12.868  19.274  0.00  0.00    +0.000 C 
ATOM     18  O   UNL     1      -1.537  12.297  18.590  0.00  0.00    +0.000 OA
ATOM     19  N   UNL     1       0.455  12.258  19.762  0.00  0.00    +0.000 N 
ATOM     20  H   UNL     1       1.011  12.823  20.395  0.00  0.00    +0.000 HD
BRANCH  17  21
ATOM     21  C   UNL     1      -0.950  14.336  19.689  0.00  0.00    +0.000 C 
BRANCH  21  23
ATOM     22  C   UNL     1      -0.304  16.408  18.586  0.00  0.00    +0.000 C 
ATOM     23  N   UNL     1       0.158  15.292  19.424  0.00  0.00    +0.000 NA
ATOM     24  C   UNL     1       0.603  15.863  20.714  0.00  0.00    +0.000 C 
ENDBRANCH  21  23
ENDBRANCH  17  21
ENDBRANCH  11  19
ENDBRANCH   1  14
BRANCH   7  25
ATOM     25  C   UNL     1       6.107   5.009  15.517  0.00  0.00    +0.000 A 
ATOM     26  N   UNL     1       5.808   4.148  14.458  0.00  0.00    +0.000 NA
ATOM     27  C   UNL     1       6.755   4.360  13.580  0.00  0.00    +0.000 A 
ATOM     28  N   UNL     1       7.612   5.282  14.083  0.00  0.00    +0.000 N 
ATOM     29  N   UNL     1       7.230   5.713  15.307  0.00  0.00    +0.000 NA
ATOM     30  H   UNL     1       8.451   5.660  13.654  0.00  0.00    +0.000 HD
ENDBRANCH   7  25
TORSDOF 5
ENDMDL
MODEL 8
REMARK VINA RESULT:      -7.8      1.197      1.197
REMARK  Name = 
REMARK  7 active torsions:
REMARK  status: ('A' for Active; 'I' for Inactive)
REMARK    1  A    between atoms: C_1  and  N_2
REMARK    2  A    between atoms: N_2  and  C_3
REMARK    3  A    between atoms: N_2  and  C_4
REMARK    4  A    between atoms: C_4  and  C_5
REMARK    5  A    between atoms: N_7  and  C_8
REMARK    6  A    between atoms: C_11  and  C_12
REMARK    7  A    between atoms: C_18  and  C_19
REMARK                            x       y       z     vdW  Elec       q    Type
REMARK                         _______ _______ _______ _____ _____    ______ ____
ROOT
ATOM      1  C   UNL     1       2.444   6.771  19.472  0.00  0.00    +0.000 A 
ATOM      2  N   UNL     1       1.974   5.957  20.446  0.00  0.00    +0.000 NA
ATOM      3  N   UNL     1       2.571   4.795  20.280  0.00  0.00    +0.000 N 
ATOM      4  C   UNL     1       3.460   4.752  19.259  0.00  0.00    +0.000 A 
ATOM      5  C   UNL     1       4.198   3.651  18.826  0.00  0.00    +0.000 A 
ATOM      6  C   UNL     1       5.054   3.833  17.757  0.00  0.00    +0.000 A 
ATOM      7  C   UNL     1       5.194   5.080  17.135  0.00  0.00    +0.000 A 
ATOM      8  C   UNL     1       4.437   6.205  17.623  0.00  0.00    +0.000 A 
ATOM      9  C   UNL     1       3.494   6.042  18.707  0.00  0.00    +0.000 A 
ATOM     10  H   UNL     1       2.321   4.038  20.903  0.00  0.00    +0.000 HD
ENDROOT
BRANCH   1  14
ATOM     11  C   UNL     1       0.685  10.797  19.869  0.00  0.00    +0.000 A 
ATOM     12  C   UNL     1       1.144  10.333  18.622  0.00  0.00    +0.000 A 
ATOM     13  C   UNL     1       1.674   9.015  18.421  0.00  0.00    +0.000 A 
ATOM     14  C   UNL     1       1.753   8.112  19.475  0.00  0.00    +0.000 A 
ATOM     15  C   UNL     1       1.237   8.588  20.718  0.00  0.00    +0.000 A 
ATOM     16  C   UNL     1       0.734   9.893  20.922  0.00  0.00    +0.000 A 
BRANCH  11  19
ATOM     17  C   UNL     1      -1.047  12.627  19.864  0.00  0.00    +0.000 C 
ATOM     18  O   UNL     1      -1.981  11.953  19.437  0.00  0.00    +0.000 OA
ATOM     19  N   UNL     1       0.215  12.122  20.138  0.00  0.00    +0.000 N 
ATOM     20  H   UNL     1       0.855  12.773  20.580  0.00  0.00    +0.000 HD
BRANCH  17  21
ATOM     21  C   UNL     1      -1.309  14.115  20.198  0.00  0.00    +0.000 C 
BRANCH  21  23
ATOM     22  C   UNL     1      -0.484  15.756  21.796  0.00  0.00    +0.000 C 
ATOM     23  N   UNL     1      -1.206  14.486  21.635  0.00  0.00    +0.000 NA
ATOM     24  C   UNL     1      -2.572  14.684  22.167  0.00  0.00    +0.000 C 
ENDBRANCH  21  23
ENDBRANCH  17  21
ENDBRANCH  11  19
ENDBRANCH   1  14
BRANCH   7  25
ATOM     25  C   UNL     1       6.081   5.081  15.953  0.00  0.00    +0.000 A 
ATOM     26  N   UNL     1       5.753   4.311  14.835  0.00  0.00    +0.000 NA
ATOM     27  C   UNL     1       6.717   4.539  13.980  0.00  0.00    +0.000 A 
ATOM     28  N   UNL     1       7.611   5.382  14.552  0.00  0.00    +0.000 N 
ATOM     29  N   UNL     1       7.237   5.744  15.800  0.00  0.00    +0.000 NA
ATOM     30  H   UNL     1       8.469   5.750  14.155  0.00  0.00    +0.000 HD
ENDBRANCH   7  25
TORSDOF 5
ENDMDL
MODEL 9
REMARK VINA RESULT:      -7.7      3.118      9.912
REMARK  Name = 
REMARK  7 active torsions:
REMARK  status: ('A' for Active; 'I' for Inactive)
REMARK    1  A    between atoms: C_1  and  N_2
REMARK    2  A    between atoms: N_2  and  C_3
REMARK    3  A    between atoms: N_2  and  C_4
REMARK    4  A    between atoms: C_4  and  C_5
REMARK    5  A    between atoms: N_7  and  C_8
REMARK    6  A    between atoms: C_11  and  C_12
REMARK    7  A    between atoms: C_18  and  C_19
REMARK                            x       y       z     vdW  Elec       q    Type
REMARK                         _______ _______ _______ _____ _____    ______ ____
ROOT
ATOM      1  C   UNL     1       2.891   6.616  18.859  0.00  0.00    +0.000 A 
ATOM      2  N   UNL     1       2.891   5.820  19.953  0.00  0.00    +0.000 NA
ATOM      3  N   UNL     1       2.196   6.454  20.874  0.00  0.00    +0.000 N 
ATOM      4  C   UNL     1       1.681   7.643  20.481  0.00  0.00    +0.000 A 
ATOM      5  C   UNL     1       0.948   8.544  21.253  0.00  0.00    +0.000 A 
ATOM      6  C   UNL     1       0.515   9.706  20.644  0.00  0.00    +0.000 A 
ATOM      7  C   UNL     1       0.784   9.970  19.295  0.00  0.00    +0.000 A 
ATOM      8  C   UNL     1       1.520   9.006  18.517  0.00  0.00    +0.000 A 
ATOM      9  C   UNL     1       2.033   7.803  19.131  0.00  0.00    +0.000 A 
ATOM     10  H   UNL     1       2.110   6.023  21.786  0.00  0.00    +0.000 HD
ENDROOT
BRANCH   1  14
ATOM     11  C   UNL     1       5.022   4.764  15.468  0.00  0.00    +0.000 A 
ATOM     12  C   UNL     1       5.187   6.130  15.761  0.00  0.00    +0.000 A 
ATOM     13  C   UNL     1       4.564   6.774  16.882  0.00  0.00    +0.000 A 
ATOM     14  C   UNL     1       3.754   6.058  17.755  0.00  0.00    +0.000 A 
ATOM     15  C   UNL     1       3.641   4.664  17.466  0.00  0.00    +0.000 A 
ATOM     16  C   UNL     1       4.237   4.032  16.351  0.00  0.00    +0.000 A 
BRANCH  11  19
ATOM     17  C   UNL     1       6.664   4.473  13.580  0.00  0.00    +0.000 C 
ATOM     18  O   UNL     1       7.401   5.412  13.873  0.00  0.00    +0.000 OA
ATOM     19  N   UNL     1       5.561   4.090  14.326  0.00  0.00    +0.000 N 
ATOM     20  H   UNL     1       5.105   3.237  14.019  0.00  0.00    +0.000 HD
BRANCH  17  21
ATOM     21  C   UNL     1       7.029   3.610  12.349  0.00  0.00    +0.000 C 
BRANCH  21  23
ATOM     22  C   UNL     1       4.868   3.008  11.403  0.00  0.00    +0.000 C 
ATOM     23  N   UNL     1       6.093   2.498  12.034  0.00  0.00    +0.000 NA
ATOM     24  C   UNL     1       6.748   1.595  11.061  0.00  0.00    +0.000 C 
ENDBRANCH  21  23
ENDBRANCH  17  21
ENDBRANCH  11  19
ENDBRANCH   1  14
BRANCH   7  25
ATOM     25  C   UNL     1       0.328  11.295  18.826  0.00  0.00    +0.000 A 
ATOM     26  N   UNL     1       1.146  12.414  18.996  0.00  0.00    +0.000 NA
ATOM     27  C   UNL     1       0.468  13.404  18.474  0.00  0.00    +0.000 A 
ATOM     28  N   UNL     1      -0.721  12.927  18.032  0.00  0.00    +0.000 N 
ATOM     29  N   UNL     1      -0.841  11.596  18.240  0.00  0.00    +0.000 NA
ATOM     30  H   UNL     1      -1.475  13.437  17.582  0.00  0.00    +0.000 HD
ENDBRANCH   7  25
TORSDOF 5
ENDMDL
