MODEL 1
REMARK VINA RESULT:      -7.6      0.000      0.000
REMARK  Name = 
REMARK  5 active torsions:
REMARK  status: ('A' for Active; 'I' for Inactive)
REMARK    1  A    between atoms: C_1  and  O_2
REMARK    2  A    between atoms: O_2  and  C_3
REMARK    3  A    between atoms: C_6  and  C_7
REMARK    4  A    between atoms: C_11  and  C_12
REMARK    5  A    between atoms: C_14  and  C_15
REMARK                            x       y       z     vdW  Elec       q    Type
REMARK                         _______ _______ _______ _____ _____    ______ ____
ROOT
ATOM      1  C   UNL     1       2.032   7.248  20.033  0.00  0.00    +0.000 A 
ATOM      2  N   UNL     1       2.644   7.227  18.901  0.00  0.00    +0.000 NA
ATOM      3  C   UNL     1       3.294   6.043  18.519  0.00  0.00    +0.000 A 
ATOM      4  N   UNL     1       3.971   6.143  17.351  0.00  0.00    +0.000 NA
ATOM      5  C   UNL     1       4.633   5.048  16.910  0.00  0.00    +0.000 A 
ATOM      6  C   UNL     1       5.400   5.161  15.625  0.00  0.00    +0.000 C 
ATOM      7  C   UNL     1       4.625   3.840  17.599  0.00  0.00    +0.000 A 
ATOM      8  C   UNL     1       3.924   3.734  18.805  0.00  0.00    +0.000 A 
ATOM      9  C   UNL     1       3.920   2.423  19.534  0.00  0.00    +0.000 C 
ATOM     10  C   UNL     1       3.254   4.875  19.273  0.00  0.00    +0.000 A 
ATOM     11  C   UNL     1       2.500   4.932  20.539  0.00  0.00    +0.000 A 
ATOM     12  O   UNL     1       2.342   3.974  21.277  0.00  0.00    +0.000 OA
ATOM     13  N   UNL     1       1.961   6.153  20.858  0.00  0.00    +0.000 N 
ATOM     14  H   UNL     1       1.423   6.171  21.710  0.00  0.00    +0.000 HD
ENDROOT
BRANCH   1  18
ATOM     15  C   UNL     1      -0.012  10.723  21.468  0.00  0.00    +0.000 A 
ATOM     16  C   UNL     1       0.399   9.725  22.355  0.00  0.00    +0.000 A 
ATOM     17  C   UNL     1       1.086   8.602  21.891  0.00  0.00    +0.000 A 
ATOM     18  C   UNL     1       1.356   8.472  20.526  0.00  0.00    +0.000 A 
ATOM     19  C   UNL     1       0.954   9.473  19.636  0.00  0.00    +0.000 A 
ATOM     20  C   UNL     1       0.265  10.592  20.106  0.00  0.00    +0.000 A 
BRANCH  15  22
ATOM     21  C   UNL     1      -1.606  11.437  23.053  0.00  0.00    +0.000 C 
ATOM     22  O   UNL     1      -0.675  11.778  22.031  0.00  0.00    +0.000 OA
ENDBRANCH  15  22
ENDBRANCH   1  18
TORSDOF 2
ENDMDL
MODEL 2
REMARK VINA RESULT:      -7.5      0.206      1.075
REMARK  Name = 
REMARK  5 active torsions:
REMARK  status: ('A' for Active; 'I' for Inactive)
REMARK    1  A    between atoms: C_1  and  O_2
REMARK    2  A    between atoms: O_2  and  C_3
REMARK    3  A    between atoms: C_6  and  C_7
REMARK    4  A    between atoms: C_11  and  C_12
REMARK    5  A    between atoms: C_14  and  C_15
REMARK                            x       y       z     vdW  Elec       q    Type
REMARK                         _______ _______ _______ _____ _____    ______ ____
ROOT
ATOM      1  C   UNL     1       2.053   7.263  19.954  0.00  0.00    +0.000 A 
ATOM      2  N   UNL     1       2.681   7.298  18.831  0.00  0.00    +0.000 NA
ATOM      3  C   UNL     1       3.362   6.142  18.415  0.00  0.00    +0.000 A 
ATOM      4  N   UNL     1       4.053   6.301  17.261  0.00  0.00    +0.000 NA
ATOM      5  C   UNL     1       4.745   5.238  16.791  0.00  0.00    +0.000 A 
ATOM      6  C   UNL     1       5.527   5.415  15.522  0.00  0.00    +0.000 C 
ATOM      7  C   UNL     1       4.754   4.005  17.434  0.00  0.00    +0.000 A 
ATOM      8  C   UNL     1       4.039   3.838  18.625  0.00  0.00    +0.000 A 
ATOM      9  C   UNL     1       4.053   2.502  19.305  0.00  0.00    +0.000 C 
ATOM     10  C   UNL     1       3.337   4.947  19.124  0.00  0.00    +0.000 A 
ATOM     11  C   UNL     1       2.564   4.941  20.380  0.00  0.00    +0.000 A 
ATOM     12  O   UNL     1       2.417   3.952  21.081  0.00  0.00    +0.000 OA
ATOM     13  N   UNL     1       1.994   6.137  20.736  0.00  0.00    +0.000 N 
ATOM     14  H   UNL     1       1.444   6.112  21.581  0.00  0.00    +0.000 HD
ENDROOT
BRANCH   1  18
ATOM     15  C   UNL     1       0.097  10.756  21.465  0.00  0.00    +0.000 A 
ATOM     16  C   UNL     1       0.363  10.627  20.100  0.00  0.00    +0.000 A 
ATOM     17  C   UNL     1       0.980   9.478  19.603  0.00  0.00    +0.000 A 
ATOM     18  C   UNL     1       1.343   8.453  20.481  0.00  0.00    +0.000 A 
ATOM     19  C   UNL     1       1.070   8.575  21.848  0.00  0.00    +0.000 A 
ATOM     20  C   UNL     1       0.455   9.728  22.339  0.00  0.00    +0.000 A 
BRANCH  15  22
ATOM     21  C   UNL     1      -1.378  11.821  22.967  0.00  0.00    +0.000 C 
ATOM     22  O   UNL     1      -0.511  11.922  21.842  0.00  0.00    +0.000 OA
ENDBRANCH  15  22
ENDBRANCH   1  18
TORSDOF 2
ENDMDL
MODEL 3
REMARK VINA RESULT:      -7.2      1.900      3.183
REMARK  Name = 
REMARK  5 active torsions:
REMARK  status: ('A' for Active; 'I' for Inactive)
REMARK    1  A    between atoms: C_1  and  O_2
REMARK    2  A    between atoms: O_2  and  C_3
REMARK    3  A    between atoms: C_6  and  C_7
REMARK    4  A    between atoms: C_11  and  C_12
REMARK    5  A    between atoms: C_14  and  C_15
REMARK                            x       y       z     vdW  Elec       q    Type
REMARK                         _______ _______ _______ _____ _____    ______ ____
ROOT
ATOM      1  C   UNL     1       1.128   8.295  20.551  0.00  0.00    +0.000 A 
ATOM      2  N   UNL     1       1.277   7.140  21.099  0.00  0.00    +0.000 NA
ATOM      3  C   UNL     1       2.004   6.163  20.401  0.00  0.00    +0.000 A 
ATOM      4  N   UNL     1       2.042   4.961  21.023  0.00  0.00    +0.000 NA
ATOM      5  C   UNL     1       2.717   3.958  20.416  0.00  0.00    +0.000 A 
ATOM      6  C   UNL     1       2.746   2.619  21.094  0.00  0.00    +0.000 C 
ATOM      7  C   UNL     1       3.375   4.125  19.202  0.00  0.00    +0.000 A 
ATOM      8  C   UNL     1       3.339   5.367  18.559  0.00  0.00    +0.000 A 
ATOM      9  C   UNL     1       4.059   5.534  17.253  0.00  0.00    +0.000 C 
ATOM     10  C   UNL     1       2.622   6.402  19.179  0.00  0.00    +0.000 A 
ATOM     11  C   UNL     1       2.465   7.754  18.613  0.00  0.00    +0.000 A 
ATOM     12  O   UNL     1       2.988   8.120  17.573  0.00  0.00    +0.000 OA
ATOM     13  N   UNL     1       1.678   8.616  19.335  0.00  0.00    +0.000 N 
ATOM     14  H   UNL     1       1.603   9.546  18.954  0.00  0.00    +0.000 HD
ENDROOT
BRANCH   1  18
ATOM     15  C   UNL     1      -1.053  11.450  22.450  0.00  0.00    +0.000 A 
ATOM     16  C   UNL     1      -0.662  11.563  21.113  0.00  0.00    +0.000 A 
ATOM     17  C   UNL     1       0.030  10.524  20.487  0.00  0.00    +0.000 A 
ATOM     18  C   UNL     1       0.341   9.367  21.206  0.00  0.00    +0.000 A 
ATOM     19  C   UNL     1      -0.057   9.247  22.542  0.00  0.00    +0.000 A 
ATOM     20  C   UNL     1      -0.746  10.290  23.164  0.00  0.00    +0.000 A 
BRANCH  15  22
ATOM     21  C   UNL     1      -3.026  12.246  23.469  0.00  0.00    +0.000 C 
ATOM     22  O   UNL     1      -1.724  12.525  22.962  0.00  0.00    +0.000 OA
ENDBRANCH  15  22
ENDBRANCH   1  18
TORSDOF 2
ENDMDL
MODEL 4
REMARK VINA RESULT:      -7.2      1.849      2.787
REMARK  Name = 
REMARK  5 active torsions:
REMARK  status: ('A' for Active; 'I' for Inactive)
REMARK    1  A    between atoms: C_1  and  O_2
REMARK    2  A    between atoms: O_2  and  C_3
REMARK    3  A    between atoms: C_6  and  C_7
REMARK    4  A    between atoms: C_11  and  C_12
REMARK    5  A    between atoms: C_14  and  C_15
REMARK                            x       y       z     vdW  Elec       q    Type
REMARK                         _______ _______ _______ _____ _____    ______ ____
ROOT
ATOM      1  C   UNL     1       2.488   7.239  18.884  0.00  0.00    +0.000 A 
ATOM      2  N   UNL     1       2.445   5.996  19.217  0.00  0.00    +0.000 NA
ATOM      3  C   UNL     1       3.177   5.077  18.448  0.00  0.00    +0.000 A 
ATOM      4  N   UNL     1       3.008   3.788  18.829  0.00  0.00    +0.000 NA
ATOM      5  C   UNL     1       3.673   2.835  18.138  0.00  0.00    +0.000 A 
ATOM      6  C   UNL     1       3.474   1.404  18.546  0.00  0.00    +0.000 C 
ATOM      7  C   UNL     1       4.523   3.132  17.078  0.00  0.00    +0.000 A 
ATOM      8  C   UNL     1       4.701   4.464  16.685  0.00  0.00    +0.000 A 
ATOM      9  C   UNL     1       5.625   4.770  15.544  0.00  0.00    +0.000 C 
ATOM     10  C   UNL     1       3.995   5.451  17.389  0.00  0.00    +0.000 A 
ATOM     11  C   UNL     1       4.051   6.891  17.076  0.00  0.00    +0.000 A 
ATOM     12  O   UNL     1       4.761   7.368  16.204  0.00  0.00    +0.000 OA
ATOM     13  N   UNL     1       3.246   7.700  17.837  0.00  0.00    +0.000 N 
ATOM     14  H   UNL     1       3.316   8.685  17.633  0.00  0.00    +0.000 HD
ENDROOT
BRANCH   1  18
ATOM     15  C   UNL     1       0.157  10.137  21.001  0.00  0.00    +0.000 A 
ATOM     16  C   UNL     1       0.582   8.967  21.636  0.00  0.00    +0.000 A 
ATOM     17  C   UNL     1       1.361   8.032  20.953  0.00  0.00    +0.000 A 
ATOM     18  C   UNL     1       1.711   8.265  19.620  0.00  0.00    +0.000 A 
ATOM     19  C   UNL     1       1.295   9.439  18.984  0.00  0.00    +0.000 A 
ATOM     20  C   UNL     1       0.514  10.369  19.671  0.00  0.00    +0.000 A 
BRANCH  15  22
ATOM     21  C   UNL     1      -0.913  10.510  23.070  0.00  0.00    +0.000 C 
ATOM     22  O   UNL     1      -0.600  10.982  21.763  0.00  0.00    +0.000 OA
ENDBRANCH  15  22
ENDBRANCH   1  18
TORSDOF 2
ENDMDL
MODEL 5
REMARK VINA RESULT:      -7.2      1.845      3.000
REMARK  Name = 
REMARK  5 active torsions:
REMARK  status: ('A' for Active; 'I' for Inactive)
REMARK    1  A    between atoms: C_1  and  O_2
REMARK    2  A    between atoms: O_2  and  C_3
REMARK    3  A    between atoms: C_6  and  C_7
REMARK    4  A    between atoms: C_11  and  C_12
REMARK    5  A    between atoms: C_14  and  C_15
REMARK                            x       y       z     vdW  Elec       q    Type
REMARK                         _______ _______ _______ _____ _____    ______ ____
ROOT
ATOM      1  C   UNL     1       1.231   8.261  20.507  0.00  0.00    +0.000 A 
ATOM      2  N   UNL     1       1.262   7.119  21.100  0.00  0.00    +0.000 NA
ATOM      3  C   UNL     1       1.911   6.054  20.456  0.00  0.00    +0.000 A 
ATOM      4  N   UNL     1       1.825   4.878  21.123  0.00  0.00    +0.000 NA
ATOM      5  C   UNL     1       2.418   3.796  20.569  0.00  0.00    +0.000 A 
ATOM      6  C   UNL     1       2.310   2.487  21.296  0.00  0.00    +0.000 C 
ATOM      7  C   UNL     1       3.115   3.855  19.367  0.00  0.00    +0.000 A 
ATOM      8  C   UNL     1       3.207   5.069  18.678  0.00  0.00    +0.000 A 
ATOM      9  C   UNL     1       3.967   5.120  17.386  0.00  0.00    +0.000 C 
ATOM     10  C   UNL     1       2.575   6.188  19.242  0.00  0.00    +0.000 A 
ATOM     11  C   UNL     1       2.554   7.527  18.624  0.00  0.00    +0.000 A 
ATOM     12  O   UNL     1       3.132   7.803  17.585  0.00  0.00    +0.000 OA
ATOM     13  N   UNL     1       1.835   8.484  19.295  0.00  0.00    +0.000 N 
ATOM     14  H   UNL     1       1.854   9.401  18.878  0.00  0.00    +0.000 HD
ENDROOT
BRANCH   1  18
ATOM     15  C   UNL     1      -0.884  11.568  22.210  0.00  0.00    +0.000 A 
ATOM     16  C   UNL     1      -0.723  10.383  22.931  0.00  0.00    +0.000 A 
ATOM     17  C   UNL     1      -0.013   9.311  22.385  0.00  0.00    +0.000 A 
ATOM     18  C   UNL     1       0.532   9.424  21.103  0.00  0.00    +0.000 A 
ATOM     19  C   UNL     1       0.380  10.613  20.382  0.00  0.00    +0.000 A 
ATOM     20  C   UNL     1      -0.333  11.680  20.932  0.00  0.00    +0.000 A 
BRANCH  15  22
ATOM     21  C   UNL     1      -2.808  12.129  23.454  0.00  0.00    +0.000 C 
ATOM     22  O   UNL     1      -1.595  12.552  22.840  0.00  0.00    +0.000 OA
ENDBRANCH  15  22
ENDBRANCH   1  18
TORSDOF 2
ENDMDL
MODEL 6
REMARK VINA RESULT:      -7.2      1.973      7.496
REMARK  Name = 
REMARK  5 active torsions:
REMARK  status: ('A' for Active; 'I' for Inactive)
REMARK    1  A    between atoms: C_1  and  O_2
REMARK    2  A    between atoms: O_2  and  C_3
REMARK    3  A    between atoms: C_6  and  C_7
REMARK    4  A    between atoms: C_11  and  C_12
REMARK    5  A    between atoms: C_14  and  C_15
REMARK                            x       y       z     vdW  Elec       q    Type
REMARK                         _______ _______ _______ _____ _____    ______ ____
ROOT
ATOM      1  C   UNL     1       1.918   7.294  19.885  0.00  0.00    +0.000 A 
ATOM      2  N   UNL     1       1.181   7.715  20.853  0.00  0.00    +0.000 NA
ATOM      3  C   UNL     1       0.700   9.033  20.796  0.00  0.00    +0.000 A 
ATOM      4  N   UNL     1      -0.000   9.407  21.893  0.00  0.00    +0.000 NA
ATOM      5  C   UNL     1      -0.497  10.665  21.925  0.00  0.00    +0.000 A 
ATOM      6  C   UNL     1      -1.258  11.089  23.147  0.00  0.00    +0.000 C 
ATOM      7  C   UNL     1      -0.328  11.565  20.878  0.00  0.00    +0.000 A 
ATOM      8  C   UNL     1       0.393  11.179  19.742  0.00  0.00    +0.000 A 
ATOM      9  C   UNL     1       0.562  12.157  18.618  0.00  0.00    +0.000 C 
ATOM     10  C   UNL     1       0.925   9.881  19.717  0.00  0.00    +0.000 A 
ATOM     11  C   UNL     1       1.733   9.338  18.610  0.00  0.00    +0.000 A 
ATOM     12  O   UNL     1       1.973   9.950  17.582  0.00  0.00    +0.000 OA
ATOM     13  N   UNL     1       2.217   8.066  18.790  0.00  0.00    +0.000 N 
ATOM     14  H   UNL     1       2.742   7.696  18.014  0.00  0.00    +0.000 HD
ENDROOT
BRANCH   1  18
ATOM     15  C   UNL     1       3.537   3.334  19.806  0.00  0.00    +0.000 A 
ATOM     16  C   UNL     1       4.034   4.320  18.951  0.00  0.00    +0.000 A 
ATOM     17  C   UNL     1       3.522   5.619  18.992  0.00  0.00    +0.000 A 
ATOM     18  C   UNL     1       2.497   5.930  19.890  0.00  0.00    +0.000 A 
ATOM     19  C   UNL     1       2.003   4.947  20.754  0.00  0.00    +0.000 A 
ATOM     20  C   UNL     1       2.518   3.650  20.706  0.00  0.00    +0.000 A 
BRANCH  15  22
ATOM     21  C   UNL     1       3.709   1.353  18.537  0.00  0.00    +0.000 C 
ATOM     22  O   UNL     1       4.111   2.099  19.682  0.00  0.00    +0.000 OA
ENDBRANCH  15  22
ENDBRANCH   1  18
TORSDOF 2
ENDMDL
MODEL 7
REMARK VINA RESULT:      -7.1      3.212      7.698
REMARK  Name = 
REMARK  5 active torsions:
REMARK  status: ('A' for Active; 'I' for Inactive)
REMARK    1  A    between atoms: C_1  and  O_2
REMARK    2  A    between atoms: O_2  and  C_3
REMARK    3  A    between atoms: C_6  and  C_7
REMARK    4  A    between atoms: C_11  and  C_12
REMARK    5  A    between atoms: C_14  and  C_15
REMARK                            x       y       z     vdW  Elec       q    Type
REMARK                         _______ _______ _______ _____ _____    ______ ____
ROOT
ATOM      1  C   UNL     1       4.513   4.314  17.057  0.00  0.00    +0.000 A 
ATOM      2  N   UNL     1       4.085   5.379  17.641  0.00  0.00    +0.000 NA
ATOM      3  C   UNL     1       3.240   5.232  18.753  0.00  0.00    +0.000 A 
ATOM      4  N   UNL     1       2.783   6.405  19.250  0.00  0.00    +0.000 NA
ATOM      5  C   UNL     1       1.957   6.356  20.320  0.00  0.00    +0.000 A 
ATOM      6  C   UNL     1       1.433   7.654  20.863  0.00  0.00    +0.000 C 
ATOM      7  C   UNL     1       1.583   5.161  20.925  0.00  0.00    +0.000 A 
ATOM      8  C   UNL     1       2.057   3.947  20.414  0.00  0.00    +0.000 A 
ATOM      9  C   UNL     1       1.650   2.666  21.080  0.00  0.00    +0.000 C 
ATOM     10  C   UNL     1       2.898   3.997  19.292  0.00  0.00    +0.000 A 
ATOM     11  C   UNL     1       3.452   2.807  18.619  0.00  0.00    +0.000 A 
ATOM     12  O   UNL     1       3.273   1.664  19.007  0.00  0.00    +0.000 OA
ATOM     13  N   UNL     1       4.207   3.051  17.500  0.00  0.00    +0.000 N 
ATOM     14  H   UNL     1       4.605   2.232  17.067  0.00  0.00    +0.000 HD
ENDROOT
BRANCH   1  18
ATOM     15  C   UNL     1       6.973   4.623  13.569  0.00  0.00    +0.000 A 
ATOM     16  C   UNL     1       7.377   5.200  14.775  0.00  0.00    +0.000 A 
ATOM     17  C   UNL     1       6.586   5.080  15.920  0.00  0.00    +0.000 A 
ATOM     18  C   UNL     1       5.375   4.385  15.854  0.00  0.00    +0.000 A 
ATOM     19  C   UNL     1       4.971   3.798  14.649  0.00  0.00    +0.000 A 
ATOM     20  C   UNL     1       5.765   3.924  13.508  0.00  0.00    +0.000 A 
BRANCH  15  22
ATOM     21  C   UNL     1       8.605   5.992  12.555  0.00  0.00    +0.000 C 
ATOM     22  O   UNL     1       7.823   4.802  12.513  0.00  0.00    +0.000 OA
ENDBRANCH  15  22
ENDBRANCH   1  18
TORSDOF 2
ENDMDL
MODEL 8
REMARK VINA RESULT:      -7.1      2.246      7.283
REMARK  Name = 
REMARK  5 active torsions:
REMARK  status: ('A' for Active; 'I' for Inactive)
REMARK    1  A    between atoms: C_1  and  O_2
REMARK    2  A    between atoms: O_2  and  C_3
REMARK    3  A    between atoms: C_6  and  C_7
REMARK    4  A    between atoms: C_11  and  C_12
REMARK    5  A    between atoms: C_14  and  C_15
REMARK                            x       y       z     vdW  Elec       q    Type
REMARK                         _______ _______ _______ _____ _____    ______ ____
ROOT
ATOM      1  C   UNL     1       2.205   7.734  18.873  0.00  0.00    +0.000 A 
ATOM      2  N   UNL     1       1.644   8.702  18.234  0.00  0.00    +0.000 NA
ATOM      3  C   UNL     1       0.841   9.597  18.958  0.00  0.00    +0.000 A 
ATOM      4  N   UNL     1       0.235  10.532  18.189  0.00  0.00    +0.000 NA
ATOM      5  C   UNL     1      -0.564  11.433  18.805  0.00  0.00    +0.000 A 
ATOM      6  C   UNL     1      -1.252  12.461  17.954  0.00  0.00    +0.000 C 
ATOM      7  C   UNL     1      -0.767  11.438  20.181  0.00  0.00    +0.000 A 
ATOM      8  C   UNL     1      -0.140  10.474  20.978  0.00  0.00    +0.000 A 
ATOM      9  C   UNL     1      -0.363  10.495  22.461  0.00  0.00    +0.000 C 
ATOM     10  C   UNL     1       0.674   9.527  20.337  0.00  0.00    +0.000 A 
ATOM     11  C   UNL     1       1.375   8.431  21.031  0.00  0.00    +0.000 A 
ATOM     12  O   UNL     1       1.356   8.274  22.242  0.00  0.00    +0.000 OA
ATOM     13  N   UNL     1       2.077   7.568  20.229  0.00  0.00    +0.000 N 
ATOM     14  H   UNL     1       2.576   6.841  20.718  0.00  0.00    +0.000 HD
ENDROOT
BRANCH   1  18
ATOM     15  C   UNL     1       4.560   4.853  16.760  0.00  0.00    +0.000 A 
ATOM     16  C   UNL     1       4.902   6.207  16.730  0.00  0.00    +0.000 A 
ATOM     17  C   UNL     1       4.147   7.145  17.438  0.00  0.00    +0.000 A 
ATOM     18  C   UNL     1       3.036   6.725  18.174  0.00  0.00    +0.000 A 
ATOM     19  C   UNL     1       2.696   5.368  18.213  0.00  0.00    +0.000 A 
ATOM     20  C   UNL     1       3.453   4.436  17.502  0.00  0.00    +0.000 A 
BRANCH  15  22
ATOM     21  C   UNL     1       6.697   4.490  15.830  0.00  0.00    +0.000 C 
ATOM     22  O   UNL     1       5.367   4.023  16.033  0.00  0.00    +0.000 OA
ENDBRANCH  15  22
ENDBRANCH   1  18
TORSDOF 2
ENDMDL
MODEL 9
REMARK VINA RESULT:      -7.1      3.092      7.740
REMARK  Name = 
REMARK  5 active torsions:
REMARK  status: ('A' for Active; 'I' for Inactive)
REMARK    1  A    between atoms: C_1  and  O_2
REMARK    2  A    between atoms: O_2  and  C_3
REMARK    3  A    between atoms: C_6  and  C_7
REMARK    4  A    between atoms: C_11  and  C_12
REMARK    5  A    between atoms: C_14  and  C_15
REMARK                            x       y       z     vdW  Elec       q    Type
REMARK                         _______ _______ _______ _____ _____    ______ ____
ROOT
ATOM      1  C   UNL     1       4.641   4.564  17.258  0.00  0.00    +0.000 A 
ATOM      2  N   UNL     1       4.090   5.612  17.763  0.00  0.00    +0.000 NA
ATOM      3  C   UNL     1       3.309   5.458  18.920  0.00  0.00    +0.000 A 
ATOM      4  N   UNL     1       2.710   6.601  19.331  0.00  0.00    +0.000 NA
ATOM      5  C   UNL     1       1.934   6.543  20.436  0.00  0.00    +0.000 A 
ATOM      6  C   UNL     1       1.254   7.804  20.885  0.00  0.00    +0.000 C 
ATOM      7  C   UNL     1       1.747   5.370  21.161  0.00  0.00    +0.000 A 
ATOM      8  C   UNL     1       2.367   4.188  20.739  0.00  0.00    +0.000 A 
ATOM      9  C   UNL     1       2.161   2.933  21.533  0.00  0.00    +0.000 C 
ATOM     10  C   UNL     1       3.157   4.244  19.580  0.00  0.00    +0.000 A 
ATOM     11  C   UNL     1       3.848   3.082  18.992  0.00  0.00    +0.000 A 
ATOM     12  O   UNL     1       3.841   1.967  19.488  0.00  0.00    +0.000 OA
ATOM     13  N   UNL     1       4.526   3.319  17.823  0.00  0.00    +0.000 N 
ATOM     14  H   UNL     1       5.019   2.524  17.448  0.00  0.00    +0.000 HD
ENDROOT
BRANCH   1  18
ATOM     15  C   UNL     1       6.994   4.667  13.684  0.00  0.00    +0.000 A 
ATOM     16  C   UNL     1       5.738   4.055  13.689  0.00  0.00    +0.000 A 
ATOM     17  C   UNL     1       4.961   4.041  14.849  0.00  0.00    +0.000 A 
ATOM     18  C   UNL     1       5.447   4.637  16.015  0.00  0.00    +0.000 A 
ATOM     19  C   UNL     1       6.701   5.258  16.012  0.00  0.00    +0.000 A 
ATOM     20  C   UNL     1       7.475   5.266  14.850  0.00  0.00    +0.000 A 
BRANCH  15  22
ATOM     21  C   UNL     1       7.138   3.725  11.527  0.00  0.00    +0.000 C 
ATOM     22  O   UNL     1       7.669   4.623  12.496  0.00  0.00    +0.000 OA
ENDBRANCH  15  22
ENDBRANCH   1  18
TORSDOF 2
ENDMDL
