MODEL 1
REMARK VINA RESULT:      -7.3      0.000      0.000
REMARK  Name = 
REMARK  7 active torsions:
REMARK  status: ('A' for Active; 'I' for Inactive)
REMARK    1  A    between atoms: C_1  and  C_2
REMARK    2  A    between atoms: C_2  and  C_3
REMARK    3  A    between atoms: C_7  and  C_8
REMARK    4  A    between atoms: C_11  and  N_12
REMARK    5  A    between atoms: C_13  and  N_14
REMARK    6  A    between atoms: C_17  and  C_18
REMARK    7  A    between atoms: C_18  and  O_20
REMARK                            x       y       z     vdW  Elec       q    Type
REMARK                         _______ _______ _______ _____ _____    ______ ____
ROOT
ATOM      1  C   UNL     1       1.943   7.274  20.142  0.00  0.00    +0.000 A 
ATOM      2  C   UNL     1       1.314   6.248  20.834  0.00  0.00    +0.000 A 
ATOM      3  N   UNL     1       1.743   4.967  20.815  0.00  0.00    +0.000 NA
ATOM      4  C   UNL     1       2.828   4.725  20.048  0.00  0.00    +0.000 A 
ATOM      5  C   UNL     1       3.505   5.751  19.323  0.00  0.00    +0.000 A 
ATOM      6  N   UNL     1       3.066   7.032  19.419  0.00  0.00    +0.000 NA
ENDROOT
BRANCH   5   7
ATOM      7  N   UNL     1       4.582   5.523  18.480  0.00  0.00    +0.000 N 
ATOM      8  C   UNL     1       5.888   5.229  19.049  0.00  0.00    +0.000 C 
ATOM      9  C   UNL     1       6.941   6.161  18.450  0.00  0.00    +0.000 C 
ATOM     10  C   UNL     1       6.922   6.142  16.919  0.00  0.00    +0.000 C 
ATOM     11  C   UNL     1       5.507   6.421  16.401  0.00  0.00    +0.000 C 
ATOM     12  C   UNL     1       4.448   5.511  17.029  0.00  0.00    +0.000 C 
BRANCH  10  13
ATOM     13  C   UNL     1       7.472   4.842  16.362  0.00  0.00    +0.000 C 
ATOM     14  O   UNL     1       7.386   4.481  15.197  0.00  0.00    +0.000 OA
BRANCH  13  15
ATOM     15  O   UNL     1       8.115   4.093  17.289  0.00  0.00    +0.000 OA
ATOM     16  H   UNL     1       7.920   3.138  17.241  0.00  0.00    +0.000 HD
ENDBRANCH  13  15
ENDBRANCH  10  13
ENDBRANCH   5   7
BRANCH   1  21
ATOM     17  C   UNL     1       0.848   9.477  20.995  0.00  0.00    +0.000 A 
ATOM     18  C   UNL     1       0.525  10.771  20.460  0.00  0.00    +0.000 A 
ATOM     19  C   UNL     1       0.764  10.869  19.113  0.00  0.00    +0.000 A 
ATOM     20  S   UNL     1       1.349   9.407  18.470  0.00  0.00    +0.000 S 
ATOM     21  C   UNL     1       1.378   8.634  20.014  0.00  0.00    +0.000 A 
BRANCH  17  23
ATOM     22  C   UNL     1      -0.474   9.952  23.075  0.00  0.00    +0.000 C 
ATOM     23  C   UNL     1       0.658   9.146  22.452  0.00  0.00    +0.000 C 
ENDBRANCH  17  23
ENDBRANCH   1  21
BRANCH   4  24
ATOM     24  N   UNL     1       3.211   3.381  20.030  0.00  0.00    +0.000 N 
ATOM     25  H   UNL     1       3.606   3.199  19.112  0.00  0.00    +0.000 HD
ATOM     26  H   UNL     1       2.417   2.788  20.246  0.00  0.00    +0.000 HD
ENDBRANCH   4  24
TORSDOF 6
ENDMDL
MODEL 2
REMARK VINA RESULT:      -7.1      0.899      1.370
REMARK  Name = 
REMARK  7 active torsions:
REMARK  status: ('A' for Active; 'I' for Inactive)
REMARK    1  A    between atoms: C_1  and  C_2
REMARK    2  A    between atoms: C_2  and  C_3
REMARK    3  A    between atoms: C_7  and  C_8
REMARK    4  A    between atoms: C_11  and  N_12
REMARK    5  A    between atoms: C_13  and  N_14
REMARK    6  A    between atoms: C_17  and  C_18
REMARK    7  A    between atoms: C_18  and  O_20
REMARK                            x       y       z     vdW  Elec       q    Type
REMARK                         _______ _______ _______ _____ _____    ______ ____
ROOT
ATOM      1  C   UNL     1       2.104   7.217  19.957  0.00  0.00    +0.000 A 
ATOM      2  C   UNL     1       1.624   6.211  20.787  0.00  0.00    +0.000 A 
ATOM      3  N   UNL     1       2.105   4.949  20.778  0.00  0.00    +0.000 NA
ATOM      4  C   UNL     1       3.084   4.701  19.882  0.00  0.00    +0.000 A 
ATOM      5  C   UNL     1       3.607   5.706  19.014  0.00  0.00    +0.000 A 
ATOM      6  N   UNL     1       3.127   6.974  19.099  0.00  0.00    +0.000 NA
ENDROOT
BRANCH   5   7
ATOM      7  N   UNL     1       4.567   5.468  18.042  0.00  0.00    +0.000 N 
ATOM      8  C   UNL     1       5.220   6.591  17.388  0.00  0.00    +0.000 C 
ATOM      9  C   UNL     1       5.131   6.437  15.870  0.00  0.00    +0.000 C 
ATOM     10  C   UNL     1       5.644   5.073  15.400  0.00  0.00    +0.000 C 
ATOM     11  C   UNL     1       4.938   3.947  16.162  0.00  0.00    +0.000 C 
ATOM     12  C   UNL     1       4.996   4.122  17.682  0.00  0.00    +0.000 C 
BRANCH  10  13
ATOM     13  C   UNL     1       7.154   4.964  15.520  0.00  0.00    +0.000 C 
ATOM     14  O   UNL     1       7.751   4.429  16.443  0.00  0.00    +0.000 OA
BRANCH  13  15
ATOM     15  O   UNL     1       7.813   5.504  14.468  0.00  0.00    +0.000 OA
ATOM     16  H   UNL     1       7.371   5.376  13.607  0.00  0.00    +0.000 HD
ENDBRANCH  13  15
ENDBRANCH  10  13
ENDBRANCH   5   7
BRANCH   1  21
ATOM     17  C   UNL     1       0.949   9.381  20.827  0.00  0.00    +0.000 A 
ATOM     18  C   UNL     1       0.532  10.646  20.287  0.00  0.00    +0.000 A 
ATOM     19  C   UNL     1       0.693  10.726  18.927  0.00  0.00    +0.000 A 
ATOM     20  S   UNL     1       1.314   9.280  18.280  0.00  0.00    +0.000 S 
ATOM     21  C   UNL     1       1.466   8.544  19.835  0.00  0.00    +0.000 A 
BRANCH  17  23
ATOM     22  C   UNL     1      -0.331   9.770  22.951  0.00  0.00    +0.000 C 
ATOM     23  C   UNL     1       0.854   9.073  22.298  0.00  0.00    +0.000 C 
ENDBRANCH  17  23
ENDBRANCH   1  21
BRANCH   4  24
ATOM     24  N   UNL     1       3.522   3.374  19.885  0.00  0.00    +0.000 N 
ATOM     25  H   UNL     1       4.503   3.389  20.145  0.00  0.00    +0.000 HD
ATOM     26  H   UNL     1       3.358   2.950  18.978  0.00  0.00    +0.000 HD
ENDBRANCH   4  24
TORSDOF 6
ENDMDL
MODEL 3
REMARK VINA RESULT:      -7.1      1.041      1.642
REMARK  Name = 
REMARK  7 active torsions:
REMARK  status: ('A' for Active; 'I' for Inactive)
REMARK    1  A    between atoms: C_1  and  C_2
REMARK    2  A    between atoms: C_2  and  C_3
REMARK    3  A    between atoms: C_7  and  C_8
REMARK    4  A    between atoms: C_11  and  N_12
REMARK    5  A    between atoms: C_13  and  N_14
REMARK    6  A    between atoms: C_17  and  C_18
REMARK    7  A    between atoms: C_18  and  O_20
REMARK                            x       y       z     vdW  Elec       q    Type
REMARK                         _______ _______ _______ _____ _____    ______ ____
ROOT
ATOM      1  C   UNL     1       2.284   7.115  19.751  0.00  0.00    +0.000 A 
ATOM      2  C   UNL     1       1.882   6.114  20.627  0.00  0.00    +0.000 A 
ATOM      3  N   UNL     1       2.409   4.870  20.624  0.00  0.00    +0.000 NA
ATOM      4  C   UNL     1       3.353   4.636  19.687  0.00  0.00    +0.000 A 
ATOM      5  C   UNL     1       3.796   5.637  18.771  0.00  0.00    +0.000 A 
ATOM      6  N   UNL     1       3.273   6.888  18.850  0.00  0.00    +0.000 NA
ENDROOT
BRANCH   5   7
ATOM      7  N   UNL     1       4.717   5.410  17.759  0.00  0.00    +0.000 N 
ATOM      8  C   UNL     1       4.301   4.701  16.559  0.00  0.00    +0.000 C 
ATOM      9  C   UNL     1       5.257   3.541  16.279  0.00  0.00    +0.000 C 
ATOM     10  C   UNL     1       6.719   3.995  16.248  0.00  0.00    +0.000 C 
ATOM     11  C   UNL     1       7.065   4.765  17.527  0.00  0.00    +0.000 C 
ATOM     12  C   UNL     1       6.086   5.903  17.825  0.00  0.00    +0.000 C 
BRANCH  10  13
ATOM     13  C   UNL     1       7.033   4.810  15.006  0.00  0.00    +0.000 C 
ATOM     14  O   UNL     1       7.794   5.766  14.963  0.00  0.00    +0.000 OA
BRANCH  13  15
ATOM     15  O   UNL     1       6.397   4.361  13.898  0.00  0.00    +0.000 OA
ATOM     16  H   UNL     1       5.441   4.556  13.876  0.00  0.00    +0.000 HD
ENDBRANCH  13  15
ENDBRANCH  10  13
ENDBRANCH   5   7
BRANCH   1  21
ATOM     17  C   UNL     1       1.013   9.215  20.619  0.00  0.00    +0.000 A 
ATOM     18  C   UNL     1       0.554  10.468  20.084  0.00  0.00    +0.000 A 
ATOM     19  C   UNL     1       0.745  10.573  18.729  0.00  0.00    +0.000 A 
ATOM     20  S   UNL     1       1.446   9.165  18.081  0.00  0.00    +0.000 S 
ATOM     21  C   UNL     1       1.591   8.415  19.630  0.00  0.00    +0.000 A 
BRANCH  17  23
ATOM     22  C   UNL     1      -0.288   9.586  22.733  0.00  0.00    +0.000 C 
ATOM     23  C   UNL     1       0.896   8.883  22.083  0.00  0.00    +0.000 C 
ENDBRANCH  17  23
ENDBRANCH   1  21
BRANCH   4  24
ATOM     24  N   UNL     1       3.841   3.326  19.699  0.00  0.00    +0.000 N 
ATOM     25  H   UNL     1       4.073   3.090  18.740  0.00  0.00    +0.000 HD
ATOM     26  H   UNL     1       3.153   2.702  20.107  0.00  0.00    +0.000 HD
ENDBRANCH   4  24
TORSDOF 6
ENDMDL
MODEL 4
REMARK VINA RESULT:      -7.0      1.151      1.920
REMARK  Name = 
REMARK  7 active torsions:
REMARK  status: ('A' for Active; 'I' for Inactive)
REMARK    1  A    between atoms: C_1  and  C_2
REMARK    2  A    between atoms: C_2  and  C_3
REMARK    3  A    between atoms: C_7  and  C_8
REMARK    4  A    between atoms: C_11  and  N_12
REMARK    5  A    between atoms: C_13  and  N_14
REMARK    6  A    between atoms: C_17  and  C_18
REMARK    7  A    between atoms: C_18  and  O_20
REMARK                            x       y       z     vdW  Elec       q    Type
REMARK                         _______ _______ _______ _____ _____    ______ ____
ROOT
ATOM      1  C   UNL     1       1.856   6.869  20.380  0.00  0.00    +0.000 A 
ATOM      2  C   UNL     1       1.102   5.773  20.780  0.00  0.00    +0.000 A 
ATOM      3  N   UNL     1       1.433   4.496  20.485  0.00  0.00    +0.000 NA
ATOM      4  C   UNL     1       2.549   4.338  19.741  0.00  0.00    +0.000 A 
ATOM      5  C   UNL     1       3.353   5.437  19.313  0.00  0.00    +0.000 A 
ATOM      6  N   UNL     1       3.007   6.697  19.681  0.00  0.00    +0.000 NA
ENDROOT
BRANCH   5   7
ATOM      7  N   UNL     1       4.468   5.310  18.498  0.00  0.00    +0.000 N 
ATOM      8  C   UNL     1       5.735   4.892  19.077  0.00  0.00    +0.000 C 
ATOM      9  C   UNL     1       6.839   5.874  18.684  0.00  0.00    +0.000 C 
ATOM     10  C   UNL     1       6.901   6.093  17.170  0.00  0.00    +0.000 C 
ATOM     11  C   UNL     1       5.522   6.491  16.633  0.00  0.00    +0.000 C 
ATOM     12  C   UNL     1       4.411   5.528  17.058  0.00  0.00    +0.000 C 
BRANCH  10  13
ATOM     13  C   UNL     1       7.451   4.879  16.444  0.00  0.00    +0.000 C 
ATOM     14  O   UNL     1       7.292   4.636  15.256  0.00  0.00    +0.000 OA
BRANCH  13  15
ATOM     15  O   UNL     1       8.183   4.066  17.241  0.00  0.00    +0.000 OA
ATOM     16  H   UNL     1       8.097   3.116  17.034  0.00  0.00    +0.000 HD
ENDBRANCH  13  15
ENDBRANCH  10  13
ENDBRANCH   5   7
BRANCH   1  21
ATOM     17  C   UNL     1       1.054   9.211  19.576  0.00  0.00    +0.000 A 
ATOM     18  C   UNL     1       0.551  10.418  20.173  0.00  0.00    +0.000 A 
ATOM     19  C   UNL     1       0.574  10.386  21.544  0.00  0.00    +0.000 A 
ATOM     20  S   UNL     1       1.226   8.927  22.129  0.00  0.00    +0.000 S 
ATOM     21  C   UNL     1       1.407   8.267  20.543  0.00  0.00    +0.000 A 
BRANCH  17  23
ATOM     22  C   UNL     1       2.548   9.173  17.559  0.00  0.00    +0.000 C 
ATOM     23  C   UNL     1       1.125   9.031  18.082  0.00  0.00    +0.000 C 
ENDBRANCH  17  23
ENDBRANCH   1  21
BRANCH   4  24
ATOM     24  N   UNL     1       2.830   3.004  19.431  0.00  0.00    +0.000 N 
ATOM     25  H   UNL     1       3.839   2.924  19.362  0.00  0.00    +0.000 HD
ATOM     26  H   UNL     1       2.351   2.736  18.578  0.00  0.00    +0.000 HD
ENDBRANCH   4  24
TORSDOF 6
ENDMDL
MODEL 5
REMARK VINA RESULT:      -6.6      2.584      3.867
REMARK  Name = 
REMARK  7 active torsions:
REMARK  status: ('A' for Active; 'I' for Inactive)
REMARK    1  A    between atoms: C_1  and  C_2
REMARK    2  A    between atoms: C_2  and  C_3
REMARK    3  A    between atoms: C_7  and  C_8
REMARK    4  A    between atoms: C_11  and  N_12
REMARK    5  A    between atoms: C_13  and  N_14
REMARK    6  A    between atoms: C_17  and  C_18
REMARK    7  A    between atoms: C_18  and  O_20
REMARK                            x       y       z     vdW  Elec       q    Type
REMARK                         _______ _______ _______ _____ _____    ______ ____
ROOT
ATOM      1  C   UNL     1       1.538   8.836  19.388  0.00  0.00    +0.000 A 
ATOM      2  C   UNL     1       2.034   9.476  18.259  0.00  0.00    +0.000 A 
ATOM      3  N   UNL     1       2.856   8.879  17.368  0.00  0.00    +0.000 NA
ATOM      4  C   UNL     1       3.198   7.603  17.651  0.00  0.00    +0.000 A 
ATOM      5  C   UNL     1       2.709   6.909  18.798  0.00  0.00    +0.000 A 
ATOM      6  N   UNL     1       1.842   7.536  19.635  0.00  0.00    +0.000 NA
ENDROOT
BRANCH   5   7
ATOM      7  N   UNL     1       3.091   5.623  19.147  0.00  0.00    +0.000 N 
ATOM      8  C   UNL     1       4.470   5.364  19.531  0.00  0.00    +0.000 C 
ATOM      9  C   UNL     1       5.031   4.201  18.715  0.00  0.00    +0.000 C 
ATOM     10  C   UNL     1       4.133   2.962  18.786  0.00  0.00    +0.000 C 
ATOM     11  C   UNL     1       2.694   3.326  18.405  0.00  0.00    +0.000 C 
ATOM     12  C   UNL     1       2.145   4.515  19.198  0.00  0.00    +0.000 C 
BRANCH  10  13
ATOM     13  C   UNL     1       4.197   2.294  20.147  0.00  0.00    +0.000 C 
ATOM     14  O   UNL     1       3.342   2.384  21.017  0.00  0.00    +0.000 OA
BRANCH  13  15
ATOM     15  O   UNL     1       5.307   1.539  20.320  0.00  0.00    +0.000 OA
ATOM     16  H   UNL     1       5.759   1.678  21.175  0.00  0.00    +0.000 HD
ENDBRANCH  13  15
ENDBRANCH  10  13
ENDBRANCH   5   7
BRANCH   1  21
ATOM     17  C   UNL     1      -0.211  10.503  20.356  0.00  0.00    +0.000 A 
ATOM     18  C   UNL     1      -0.764  10.825  21.643  0.00  0.00    +0.000 A 
ATOM     19  C   UNL     1      -0.159  10.147  22.670  0.00  0.00    +0.000 A 
ATOM     20  S   UNL     1       1.096   9.144  22.109  0.00  0.00    +0.000 S 
ATOM     21  C   UNL     1       0.789   9.534  20.455  0.00  0.00    +0.000 A 
BRANCH  17  23
ATOM     22  C   UNL     1      -1.766  10.269  18.399  0.00  0.00    +0.000 C 
ATOM     23  C   UNL     1      -0.722  11.137  19.088  0.00  0.00    +0.000 C 
ENDBRANCH  17  23
ENDBRANCH   1  21
BRANCH   4  24
ATOM     24  N   UNL     1       4.078   7.042  16.721  0.00  0.00    +0.000 N 
ATOM     25  H   UNL     1       4.104   6.044  16.907  0.00  0.00    +0.000 HD
ATOM     26  H   UNL     1       4.988   7.483  16.791  0.00  0.00    +0.000 HD
ENDBRANCH   4  24
TORSDOF 6
ENDMDL
MODEL 6
REMARK VINA RESULT:      -6.6      1.313      2.388
REMARK  Name = 
REMARK  7 active torsions:
REMARK  status: ('A' for Active; 'I' for Inactive)
REMARK    1  A    between atoms: C_1  and  C_2
REMARK    2  A    between atoms: C_2  and  C_3
REMARK    3  A    between atoms: C_7  and  C_8
REMARK    4  A    between atoms: C_11  and  N_12
REMARK    5  A    between atoms: C_13  and  N_14
REMARK    6  A    between atoms: C_17  and  C_18
REMARK    7  A    between atoms: C_18  and  O_20
REMARK                            x       y       z     vdW  Elec       q    Type
REMARK                         _______ _______ _______ _____ _____    ______ ____
ROOT
ATOM      1  C   UNL     1       1.941   6.976  20.434  0.00  0.00    +0.000 A 
ATOM      2  C   UNL     1       1.330   5.827  20.918  0.00  0.00    +0.000 A 
ATOM      3  N   UNL     1       1.759   4.579  20.626  0.00  0.00    +0.000 NA
ATOM      4  C   UNL     1       2.824   4.504  19.799  0.00  0.00    +0.000 A 
ATOM      5  C   UNL     1       3.482   5.661  19.283  0.00  0.00    +0.000 A 
ATOM      6  N   UNL     1       3.045   6.893  19.649  0.00  0.00    +0.000 NA
ENDROOT
BRANCH   5   7
ATOM      7  N   UNL     1       4.537   5.615  18.384  0.00  0.00    +0.000 N 
ATOM      8  C   UNL     1       4.261   5.595  16.956  0.00  0.00    +0.000 C 
ATOM      9  C   UNL     1       5.002   4.432  16.296  0.00  0.00    +0.000 C 
ATOM     10  C   UNL     1       6.497   4.438  16.632  0.00  0.00    +0.000 C 
ATOM     11  C   UNL     1       6.701   4.499  18.150  0.00  0.00    +0.000 C 
ATOM     12  C   UNL     1       5.930   5.642  18.813  0.00  0.00    +0.000 C 
BRANCH  10  13
ATOM     13  C   UNL     1       7.231   5.562  15.926  0.00  0.00    +0.000 C 
ATOM     14  O   UNL     1       7.579   6.613  16.445  0.00  0.00    +0.000 OA
BRANCH  13  15
ATOM     15  O   UNL     1       7.505   5.290  14.629  0.00  0.00    +0.000 OA
ATOM     16  H   UNL     1       8.404   4.942  14.471  0.00  0.00    +0.000 HD
ENDBRANCH  13  15
ENDBRANCH  10  13
ENDBRANCH   5   7
BRANCH   1  21
ATOM     17  C   UNL     1       1.070   9.297  19.640  0.00  0.00    +0.000 A 
ATOM     18  C   UNL     1       0.411  10.434  20.222  0.00  0.00    +0.000 A 
ATOM     19  C   UNL     1       0.271  10.332  21.583  0.00  0.00    +0.000 A 
ATOM     20  S   UNL     1       0.955   8.893  22.180  0.00  0.00    +0.000 S 
ATOM     21  C   UNL     1       1.373   8.331  20.602  0.00  0.00    +0.000 A 
BRANCH  17  23
ATOM     22  C   UNL     1       2.233  10.327  17.668  0.00  0.00    +0.000 C 
ATOM     23  C   UNL     1       1.334   9.201  18.160  0.00  0.00    +0.000 C 
ENDBRANCH  17  23
ENDBRANCH   1  21
BRANCH   4  24
ATOM     24  N   UNL     1       3.207   3.195  19.498  0.00  0.00    +0.000 N 
ATOM     25  H   UNL     1       3.815   2.885  20.249  0.00  0.00    +0.000 HD
ATOM     26  H   UNL     1       3.652   3.162  18.587  0.00  0.00    +0.000 HD
ENDBRANCH   4  24
TORSDOF 6
ENDMDL
MODEL 7
REMARK VINA RESULT:      -6.5      4.782      8.073
REMARK  Name = 
REMARK  7 active torsions:
REMARK  status: ('A' for Active; 'I' for Inactive)
REMARK    1  A    between atoms: C_1  and  C_2
REMARK    2  A    between atoms: C_2  and  C_3
REMARK    3  A    between atoms: C_7  and  C_8
REMARK    4  A    between atoms: C_11  and  N_12
REMARK    5  A    between atoms: C_13  and  N_14
REMARK    6  A    between atoms: C_17  and  C_18
REMARK    7  A    between atoms: C_18  and  O_20
REMARK                            x       y       z     vdW  Elec       q    Type
REMARK                         _______ _______ _______ _____ _____    ______ ____
ROOT
ATOM      1  C   UNL     1       6.395   4.259  15.474  0.00  0.00    +0.000 A 
ATOM      2  C   UNL     1       7.469   4.909  16.069  0.00  0.00    +0.000 A 
ATOM      3  N   UNL     1       7.510   5.224  17.382  0.00  0.00    +0.000 NA
ATOM      4  C   UNL     1       6.416   4.890  18.099  0.00  0.00    +0.000 A 
ATOM      5  C   UNL     1       5.293   4.219  17.527  0.00  0.00    +0.000 A 
ATOM      6  N   UNL     1       5.323   3.876  16.213  0.00  0.00    +0.000 NA
ENDROOT
BRANCH   5   7
ATOM      7  N   UNL     1       4.132   3.919  18.223  0.00  0.00    +0.000 N 
ATOM      8  C   UNL     1       4.023   2.647  18.919  0.00  0.00    +0.000 C 
ATOM      9  C   UNL     1       2.734   1.935  18.511  0.00  0.00    +0.000 C 
ATOM     10  C   UNL     1       1.504   2.832  18.678  0.00  0.00    +0.000 C 
ATOM     11  C   UNL     1       1.714   4.164  17.949  0.00  0.00    +0.000 C 
ATOM     12  C   UNL     1       3.023   4.858  18.332  0.00  0.00    +0.000 C 
BRANCH  10  13
ATOM     13  C   UNL     1       1.154   3.046  20.139  0.00  0.00    +0.000 C 
ATOM     14  O   UNL     1       1.524   2.337  21.064  0.00  0.00    +0.000 OA
BRANCH  13  15
ATOM     15  O   UNL     1       0.390   4.143  20.350  0.00  0.00    +0.000 OA
ATOM     16  H   UNL     1       0.327   4.744  19.583  0.00  0.00    +0.000 HD
ENDBRANCH  13  15
ENDBRANCH  10  13
ENDBRANCH   5   7
BRANCH   1  21
ATOM     17  C   UNL     1       7.100   4.507  12.980  0.00  0.00    +0.000 A 
ATOM     18  C   UNL     1       6.673   3.999  11.706  0.00  0.00    +0.000 A 
ATOM     19  C   UNL     1       5.528   3.247  11.786  0.00  0.00    +0.000 A 
ATOM     20  S   UNL     1       4.938   3.168  13.380  0.00  0.00    +0.000 S 
ATOM     21  C   UNL     1       6.266   4.073  14.013  0.00  0.00    +0.000 A 
BRANCH  17  23
ATOM     22  C   UNL     1       8.473   6.354  11.976  0.00  0.00    +0.000 C 
ATOM     23  C   UNL     1       8.331   5.364  13.124  0.00  0.00    +0.000 C 
ENDBRANCH  17  23
ENDBRANCH   1  21
BRANCH   4  24
ATOM     24  N   UNL     1       6.490   5.269  19.442  0.00  0.00    +0.000 N 
ATOM     25  H   UNL     1       7.313   4.818  19.830  0.00  0.00    +0.000 HD
ATOM     26  H   UNL     1       5.634   5.017  19.924  0.00  0.00    +0.000 HD
ENDBRANCH   4  24
TORSDOF 6
ENDMDL
MODEL 8
REMARK VINA RESULT:      -6.4      3.637      6.887
REMARK  Name = 
REMARK  7 active torsions:
REMARK  status: ('A' for Active; 'I' for Inactive)
REMARK    1  A    between atoms: C_1  and  C_2
REMARK    2  A    between atoms: C_2  and  C_3
REMARK    3  A    between atoms: C_7  and  C_8
REMARK    4  A    between atoms: C_11  and  N_12
REMARK    5  A    between atoms: C_13  and  N_14
REMARK    6  A    between atoms: C_17  and  C_18
REMARK    7  A    between atoms: C_18  and  O_20
REMARK                            x       y       z     vdW  Elec       q    Type
REMARK                         _______ _______ _______ _____ _____    ______ ____
ROOT
ATOM      1  C   UNL     1       4.189   5.180  17.748  0.00  0.00    +0.000 A 
ATOM      2  C   UNL     1       3.802   4.108  18.541  0.00  0.00    +0.000 A 
ATOM      3  N   UNL     1       2.882   4.206  19.526  0.00  0.00    +0.000 NA
ATOM      4  C   UNL     1       2.362   5.437  19.720  0.00  0.00    +0.000 A 
ATOM      5  C   UNL     1       2.730   6.564  18.925  0.00  0.00    +0.000 A 
ATOM      6  N   UNL     1       3.620   6.401  17.912  0.00  0.00    +0.000 NA
ENDROOT
BRANCH   5   7
ATOM      7  N   UNL     1       2.261   7.851  19.140  0.00  0.00    +0.000 N 
ATOM      8  C   UNL     1       1.888   8.262  20.485  0.00  0.00    +0.000 C 
ATOM      9  C   UNL     1       0.480   8.858  20.479  0.00  0.00    +0.000 C 
ATOM     10  C   UNL     1       0.331   9.969  19.435  0.00  0.00    +0.000 C 
ATOM     11  C   UNL     1       0.780   9.469  18.057  0.00  0.00    +0.000 C 
ATOM     12  C   UNL     1       2.175   8.839  18.073  0.00  0.00    +0.000 C 
BRANCH  10  13
ATOM     13  C   UNL     1       1.075  11.229  19.839  0.00  0.00    +0.000 C 
ATOM     14  O   UNL     1       1.641  11.992  19.069  0.00  0.00    +0.000 OA
BRANCH  13  15
ATOM     15  O   UNL     1       1.040  11.466  21.171  0.00  0.00    +0.000 OA
ATOM     16  H   UNL     1       0.284  12.009  21.464  0.00  0.00    +0.000 HD
ENDBRANCH  13  15
ENDBRANCH  10  13
ENDBRANCH   5   7
BRANCH   1  21
ATOM     17  C   UNL     1       6.628   5.585  16.933  0.00  0.00    +0.000 A 
ATOM     18  C   UNL     1       7.443   5.209  15.811  0.00  0.00    +0.000 A 
ATOM     19  C   UNL     1       6.746   4.525  14.848  0.00  0.00    +0.000 A 
ATOM     20  S   UNL     1       5.104   4.355  15.262  0.00  0.00    +0.000 S 
ATOM     21  C   UNL     1       5.318   5.121  16.795  0.00  0.00    +0.000 A 
BRANCH  17  23
ATOM     22  C   UNL     1       7.673   7.735  17.701  0.00  0.00    +0.000 C 
ATOM     23  C   UNL     1       7.188   6.349  18.105  0.00  0.00    +0.000 C 
ENDBRANCH  17  23
ENDBRANCH   1  21
BRANCH   4  24
ATOM     24  N   UNL     1       1.444   5.497  20.772  0.00  0.00    +0.000 N 
ATOM     25  H   UNL     1       1.716   6.281  21.356  0.00  0.00    +0.000 HD
ATOM     26  H   UNL     1       1.428   4.615  21.272  0.00  0.00    +0.000 HD
ENDBRANCH   4  24
TORSDOF 6
ENDMDL
MODEL 9
REMARK VINA RESULT:      -6.3      1.343      2.320
REMARK  Name = 
REMARK  7 active torsions:
REMARK  status: ('A' for Active; 'I' for Inactive)
REMARK    1  A    between atoms: C_1  and  C_2
REMARK    2  A    between atoms: C_2  and  C_3
REMARK    3  A    between atoms: C_7  and  C_8
REMARK    4  A    between atoms: C_11  and  N_12
REMARK    5  A    between atoms: C_13  and  N_14
REMARK    6  A    between atoms: C_17  and  C_18
REMARK    7  A    between atoms: C_18  and  O_20
REMARK                            x       y       z     vdW  Elec       q    Type
REMARK                         _______ _______ _______ _____ _____    ______ ____
ROOT
ATOM      1  C   UNL     1       2.031   6.741  20.332  0.00  0.00    +0.000 A 
ATOM      2  C   UNL     1       1.436   5.624  20.904  0.00  0.00    +0.000 A 
ATOM      3  N   UNL     1       1.814   4.357  20.626  0.00  0.00    +0.000 NA
ATOM      4  C   UNL     1       2.808   4.228  19.722  0.00  0.00    +0.000 A 
ATOM      5  C   UNL     1       3.447   5.349  19.113  0.00  0.00    +0.000 A 
ATOM      6  N   UNL     1       3.067   6.604  19.466  0.00  0.00    +0.000 NA
ENDROOT
BRANCH   5   7
ATOM      7  N   UNL     1       4.427   5.247  18.136  0.00  0.00    +0.000 N 
ATOM      8  C   UNL     1       5.099   6.449  17.667  0.00  0.00    +0.000 C 
ATOM      9  C   UNL     1       5.042   6.519  16.141  0.00  0.00    +0.000 C 
ATOM     10  C   UNL     1       5.557   5.234  15.487  0.00  0.00    +0.000 C 
ATOM     11  C   UNL     1       4.828   4.015  16.062  0.00  0.00    +0.000 C 
ATOM     12  C   UNL     1       4.854   3.965  17.591  0.00  0.00    +0.000 C 
BRANCH  10  13
ATOM     13  C   UNL     1       7.063   5.095  15.620  0.00  0.00    +0.000 C 
ATOM     14  O   UNL     1       7.643   4.590  16.570  0.00  0.00    +0.000 OA
BRANCH  13  15
ATOM     15  O   UNL     1       7.739   5.570  14.548  0.00  0.00    +0.000 OA
ATOM     16  H   UNL     1       7.279   5.450  13.696  0.00  0.00    +0.000 HD
ENDBRANCH  13  15
ENDBRANCH  10  13
ENDBRANCH   5   7
BRANCH   1  21
ATOM     17  C   UNL     1       1.284   9.104  19.533  0.00  0.00    +0.000 A 
ATOM     18  C   UNL     1       0.642  10.257  20.102  0.00  0.00    +0.000 A 
ATOM     19  C   UNL     1       0.436  10.143  21.453  0.00  0.00    +0.000 A 
ATOM     20  S   UNL     1       1.037   8.671  22.059  0.00  0.00    +0.000 S 
ATOM     21  C   UNL     1       1.507   8.114  20.493  0.00  0.00    +0.000 A 
BRANCH  17  23
ATOM     22  C   UNL     1       2.302  10.276  17.560  0.00  0.00    +0.000 C 
ATOM     23  C   UNL     1       1.612   9.016  18.065  0.00  0.00    +0.000 C 
ENDBRANCH  17  23
ENDBRANCH   1  21
BRANCH   4  24
ATOM     24  N   UNL     1       3.138   2.900  19.440  0.00  0.00    +0.000 N 
ATOM     25  H   UNL     1       3.876   2.636  20.086  0.00  0.00    +0.000 HD
ATOM     26  H   UNL     1       3.410   2.806  18.467  0.00  0.00    +0.000 HD
ENDBRANCH   4  24
TORSDOF 6
ENDMDL
