MODEL 1
REMARK VINA RESULT:      -7.5      0.000      0.000
REMARK  Name = 
REMARK  7 active torsions:
REMARK  status: ('A' for Active; 'I' for Inactive)
REMARK    1  A    between atoms: C_1  and  C_2
REMARK    2  A    between atoms: C_2  and  O_3
REMARK    3  A    between atoms: O_3  and  C_4
REMARK    4  A    between atoms: C_9  and  C_10
REMARK    5  A    between atoms: C_13  and  C_14
REMARK    6  A    between atoms: C_15  and  C_16
REMARK    7  A    between atoms: C_19  and  C_20
REMARK                            x       y       z     vdW  Elec       q    Type
REMARK                         _______ _______ _______ _____ _____    ______ ____
ROOT
ATOM      1  C   UNL     1       6.186   5.549  18.014  0.00  0.00    +0.000 A 
ATOM      2  C   UNL     1       7.399   5.568  18.705  0.00  0.00    +0.000 A 
ATOM      3  C   UNL     1       8.180   6.731  18.716  0.00  0.00    +0.000 A 
ATOM      4  C   UNL     1       7.741   7.864  18.041  0.00  0.00    +0.000 A 
ATOM      5  C   UNL     1       6.555   7.760  17.334  0.00  0.00    +0.000 A 
ATOM      6  N   UNL     1       5.782   6.643  17.306  0.00  0.00    +0.000 NA
ENDROOT
BRANCH   1  12
ATOM      7  C   UNL     1       4.601   3.785  16.986  0.00  0.00    +0.000 A 
ATOM      8  C   UNL     1       3.765   2.667  17.177  0.00  0.00    +0.000 A 
ATOM      9  C   UNL     1       3.421   2.236  18.455  0.00  0.00    +0.000 A 
ATOM     10  C   UNL     1       3.938   2.894  19.557  0.00  0.00    +0.000 A 
ATOM     11  C   UNL     1       4.819   3.965  19.376  0.00  0.00    +0.000 A 
ATOM     12  C   UNL     1       5.193   4.437  18.094  0.00  0.00    +0.000 A 
BRANCH   7  13
ATOM     13  O   UNL     1       4.863   4.269  15.725  0.00  0.00    +0.000 OA
BRANCH  13  15
ATOM     14  C   UNL     1       6.825   4.760  14.449  0.00  0.00    +0.000 C 
ATOM     15  C   UNL     1       5.972   3.662  15.053  0.00  0.00    +0.000 C 
ENDBRANCH  13  15
ENDBRANCH   7  13
ENDBRANCH   1  12
BRANCH   4  16
ATOM     16  C   UNL     1       8.446   9.105  18.152  0.00  0.00    +0.000 C 
ATOM     17  C   UNL     1       9.060  10.121  18.326  0.00  0.00    +0.000 C 
BRANCH  17  18
ATOM     18  C   UNL     1       9.821  11.299  18.595  0.00  0.00    +0.000 A 
ATOM     19  C   UNL     1       9.989  11.858  19.843  0.00  0.00    +0.000 A 
ATOM     20  S   UNL     1      10.978  13.252  19.713  0.00  0.00    +0.000 S 
ATOM     21  C   UNL     1      11.097  12.997  18.018  0.00  0.00    +0.000 A 
ATOM     22  C   UNL     1      11.892  13.926  17.166  0.00  0.00    +0.000 C 
ATOM     23  N   UNL     1      10.447  11.946  17.554  0.00  0.00    +0.000 NA
ENDBRANCH  17  18
ENDBRANCH   4  16
TORSDOF 5
ENDMDL
MODEL 2
REMARK VINA RESULT:      -7.4      7.060      8.536
REMARK  Name = 
REMARK  7 active torsions:
REMARK  status: ('A' for Active; 'I' for Inactive)
REMARK    1  A    between atoms: C_1  and  C_2
REMARK    2  A    between atoms: C_2  and  O_3
REMARK    3  A    between atoms: O_3  and  C_4
REMARK    4  A    between atoms: C_9  and  C_10
REMARK    5  A    between atoms: C_13  and  C_14
REMARK    6  A    between atoms: C_15  and  C_16
REMARK    7  A    between atoms: C_19  and  C_20
REMARK                            x       y       z     vdW  Elec       q    Type
REMARK                         _______ _______ _______ _____ _____    ______ ____
ROOT
ATOM      1  C   UNL     1       2.440   7.327  18.514  0.00  0.00    +0.000 A 
ATOM      2  C   UNL     1       1.948   8.470  17.881  0.00  0.00    +0.000 A 
ATOM      3  C   UNL     1       1.247   9.432  18.620  0.00  0.00    +0.000 A 
ATOM      4  C   UNL     1       1.050   9.246  19.983  0.00  0.00    +0.000 A 
ATOM      5  C   UNL     1       1.519   8.068  20.536  0.00  0.00    +0.000 A 
ATOM      6  N   UNL     1       2.198   7.119  19.840  0.00  0.00    +0.000 NA
ENDROOT
BRANCH   1  12
ATOM      7  C   UNL     1       3.081   4.965  17.685  0.00  0.00    +0.000 A 
ATOM      8  C   UNL     1       3.969   4.148  16.956  0.00  0.00    +0.000 A 
ATOM      9  C   UNL     1       5.180   4.646  16.484  0.00  0.00    +0.000 A 
ATOM     10  C   UNL     1       5.502   5.975  16.703  0.00  0.00    +0.000 A 
ATOM     11  C   UNL     1       4.598   6.806  17.370  0.00  0.00    +0.000 A 
ATOM     12  C   UNL     1       3.357   6.341  17.869  0.00  0.00    +0.000 A 
BRANCH   7  13
ATOM     13  O   UNL     1       1.930   4.448  18.233  0.00  0.00    +0.000 OA
BRANCH  13  15
ATOM     14  C   UNL     1       1.090   3.659  20.328  0.00  0.00    +0.000 C 
ATOM     15  C   UNL     1       2.123   3.449  19.239  0.00  0.00    +0.000 C 
ENDBRANCH  13  15
ENDBRANCH   7  13
ENDBRANCH   1  12
BRANCH   4  16
ATOM     16  C   UNL     1       0.463  10.275  20.788  0.00  0.00    +0.000 C 
ATOM     17  C   UNL     1      -0.108  11.106  21.439  0.00  0.00    +0.000 C 
BRANCH  17  18
ATOM     18  C   UNL     1      -0.850  12.057  22.203  0.00  0.00    +0.000 A 
ATOM     19  C   UNL     1      -0.480  13.369  22.397  0.00  0.00    +0.000 A 
ATOM     20  S   UNL     1      -1.658  14.155  23.363  0.00  0.00    +0.000 S 
ATOM     21  C   UNL     1      -2.555  12.692  23.441  0.00  0.00    +0.000 A 
ATOM     22  C   UNL     1      -3.837  12.629  24.198  0.00  0.00    +0.000 C 
ATOM     23  N   UNL     1      -2.029  11.667  22.798  0.00  0.00    +0.000 NA
ENDBRANCH  17  18
ENDBRANCH   4  16
TORSDOF 5
ENDMDL
MODEL 3
REMARK VINA RESULT:      -7.4      1.001      1.089
REMARK  Name = 
REMARK  7 active torsions:
REMARK  status: ('A' for Active; 'I' for Inactive)
REMARK    1  A    between atoms: C_1  and  C_2
REMARK    2  A    between atoms: C_2  and  O_3
REMARK    3  A    between atoms: O_3  and  C_4
REMARK    4  A    between atoms: C_9  and  C_10
REMARK    5  A    between atoms: C_13  and  C_14
REMARK    6  A    between atoms: C_15  and  C_16
REMARK    7  A    between atoms: C_19  and  C_20
REMARK                            x       y       z     vdW  Elec       q    Type
REMARK                         _______ _______ _______ _____ _____    ______ ____
ROOT
ATOM      1  C   UNL     1       6.147   5.595  18.048  0.00  0.00    +0.000 A 
ATOM      2  C   UNL     1       7.368   5.619  18.724  0.00  0.00    +0.000 A 
ATOM      3  C   UNL     1       8.163   6.773  18.693  0.00  0.00    +0.000 A 
ATOM      4  C   UNL     1       7.727   7.892  17.994  0.00  0.00    +0.000 A 
ATOM      5  C   UNL     1       6.532   7.783  17.305  0.00  0.00    +0.000 A 
ATOM      6  N   UNL     1       5.747   6.675  17.316  0.00  0.00    +0.000 NA
ENDROOT
BRANCH   1  12
ATOM      7  C   UNL     1       4.574   3.783  17.090  0.00  0.00    +0.000 A 
ATOM      8  C   UNL     1       3.723   2.684  17.326  0.00  0.00    +0.000 A 
ATOM      9  C   UNL     1       3.344   2.334  18.619  0.00  0.00    +0.000 A 
ATOM     10  C   UNL     1       3.839   3.055  19.692  0.00  0.00    +0.000 A 
ATOM     11  C   UNL     1       4.733   4.106  19.468  0.00  0.00    +0.000 A 
ATOM     12  C   UNL     1       5.143   4.497  18.171  0.00  0.00    +0.000 A 
BRANCH   7  13
ATOM     13  O   UNL     1       4.871   4.187  15.808  0.00  0.00    +0.000 OA
BRANCH  13  15
ATOM     14  C   UNL     1       6.083   3.917  13.765  0.00  0.00    +0.000 C 
ATOM     15  C   UNL     1       6.072   3.639  15.255  0.00  0.00    +0.000 C 
ENDBRANCH  13  15
ENDBRANCH   7  13
ENDBRANCH   1  12
BRANCH   4  16
ATOM     16  C   UNL     1       8.447   9.128  18.062  0.00  0.00    +0.000 C 
ATOM     17  C   UNL     1       8.975  10.205  18.097  0.00  0.00    +0.000 C 
BRANCH  17  18
ATOM     18  C   UNL     1       9.536  11.518  18.132  0.00  0.00    +0.000 A 
ATOM     19  C   UNL     1      10.884  11.795  18.174  0.00  0.00    +0.000 A 
ATOM     20  S   UNL     1      11.115  13.493  18.196  0.00  0.00    +0.000 S 
ATOM     21  C   UNL     1       9.412  13.715  18.149  0.00  0.00    +0.000 A 
ATOM     22  C   UNL     1       8.826  15.085  18.144  0.00  0.00    +0.000 C 
ATOM     23  N   UNL     1       8.694  12.608  18.121  0.00  0.00    +0.000 NA
ENDBRANCH  17  18
ENDBRANCH   4  16
TORSDOF 5
ENDMDL
MODEL 4
REMARK VINA RESULT:      -7.3      1.766      2.574
REMARK  Name = 
REMARK  7 active torsions:
REMARK  status: ('A' for Active; 'I' for Inactive)
REMARK    1  A    between atoms: C_1  and  C_2
REMARK    2  A    between atoms: C_2  and  O_3
REMARK    3  A    between atoms: O_3  and  C_4
REMARK    4  A    between atoms: C_9  and  C_10
REMARK    5  A    between atoms: C_13  and  C_14
REMARK    6  A    between atoms: C_15  and  C_16
REMARK    7  A    between atoms: C_19  and  C_20
REMARK                            x       y       z     vdW  Elec       q    Type
REMARK                         _______ _______ _______ _____ _____    ______ ____
ROOT
ATOM      1  C   UNL     1       5.431   5.456  17.845  0.00  0.00    +0.000 A 
ATOM      2  C   UNL     1       6.577   5.304  18.626  0.00  0.00    +0.000 A 
ATOM      3  C   UNL     1       7.528   6.331  18.681  0.00  0.00    +0.000 A 
ATOM      4  C   UNL     1       7.322   7.501  17.961  0.00  0.00    +0.000 A 
ATOM      5  C   UNL     1       6.190   7.566  17.167  0.00  0.00    +0.000 A 
ATOM      6  N   UNL     1       5.256   6.582  17.094  0.00  0.00    +0.000 NA
ENDROOT
BRANCH   1  12
ATOM      7  C   UNL     1       2.926   4.876  18.105  0.00  0.00    +0.000 A 
ATOM      8  C   UNL     1       1.895   3.923  17.981  0.00  0.00    +0.000 A 
ATOM      9  C   UNL     1       2.180   2.587  17.715  0.00  0.00    +0.000 A 
ATOM     10  C   UNL     1       3.495   2.194  17.533  0.00  0.00    +0.000 A 
ATOM     11  C   UNL     1       4.517   3.146  17.593  0.00  0.00    +0.000 A 
ATOM     12  C   UNL     1       4.272   4.514  17.863  0.00  0.00    +0.000 A 
BRANCH   7  13
ATOM     13  O   UNL     1       2.651   6.176  18.463  0.00  0.00    +0.000 OA
BRANCH  13  15
ATOM     14  C   UNL     1       1.870   7.777  20.059  0.00  0.00    +0.000 C 
ATOM     15  C   UNL     1       2.487   6.406  19.866  0.00  0.00    +0.000 C 
ENDBRANCH  13  15
ENDBRANCH   7  13
ENDBRANCH   1  12
BRANCH   4  16
ATOM     16  C   UNL     1       8.203   8.621  18.109  0.00  0.00    +0.000 C 
ATOM     17  C   UNL     1       8.891   9.584  18.302  0.00  0.00    +0.000 C 
BRANCH  17  18
ATOM     18  C   UNL     1       9.675  10.741  18.597  0.00  0.00    +0.000 A 
ATOM     19  C   UNL     1       9.822  11.292  19.851  0.00  0.00    +0.000 A 
ATOM     20  S   UNL     1      10.852  12.658  19.755  0.00  0.00    +0.000 S 
ATOM     21  C   UNL     1      11.014  12.404  18.063  0.00  0.00    +0.000 A 
ATOM     22  C   UNL     1      11.858  13.314  17.237  0.00  0.00    +0.000 C 
ATOM     23  N   UNL     1      10.349  11.373  17.576  0.00  0.00    +0.000 NA
ENDBRANCH  17  18
ENDBRANCH   4  16
TORSDOF 5
ENDMDL
MODEL 5
REMARK VINA RESULT:      -7.3      0.920      1.255
REMARK  Name = 
REMARK  7 active torsions:
REMARK  status: ('A' for Active; 'I' for Inactive)
REMARK    1  A    between atoms: C_1  and  C_2
REMARK    2  A    between atoms: C_2  and  O_3
REMARK    3  A    between atoms: O_3  and  C_4
REMARK    4  A    between atoms: C_9  and  C_10
REMARK    5  A    between atoms: C_13  and  C_14
REMARK    6  A    between atoms: C_15  and  C_16
REMARK    7  A    between atoms: C_19  and  C_20
REMARK                            x       y       z     vdW  Elec       q    Type
REMARK                         _______ _______ _______ _____ _____    ______ ____
ROOT
ATOM      1  C   UNL     1       6.276   5.604  17.995  0.00  0.00    +0.000 A 
ATOM      2  C   UNL     1       7.502   5.597  18.660  0.00  0.00    +0.000 A 
ATOM      3  C   UNL     1       8.278   6.763  18.712  0.00  0.00    +0.000 A 
ATOM      4  C   UNL     1       7.819   7.925  18.104  0.00  0.00    +0.000 A 
ATOM      5  C   UNL     1       6.619   7.849  17.418  0.00  0.00    +0.000 A 
ATOM      6  N   UNL     1       5.851   6.730  17.350  0.00  0.00    +0.000 NA
ENDROOT
BRANCH   1  12
ATOM      7  C   UNL     1       4.728   3.840  16.913  0.00  0.00    +0.000 A 
ATOM      8  C   UNL     1       3.897   2.713  17.072  0.00  0.00    +0.000 A 
ATOM      9  C   UNL     1       3.528   2.266  18.337  0.00  0.00    +0.000 A 
ATOM     10  C   UNL     1       4.014   2.916  19.458  0.00  0.00    +0.000 A 
ATOM     11  C   UNL     1       4.890   3.995  19.308  0.00  0.00    +0.000 A 
ATOM     12  C   UNL     1       5.290   4.485  18.041  0.00  0.00    +0.000 A 
BRANCH   7  13
ATOM     13  O   UNL     1       5.015   4.339  15.663  0.00  0.00    +0.000 OA
BRANCH  13  15
ATOM     14  C   UNL     1       6.981   4.858  14.404  0.00  0.00    +0.000 C 
ATOM     15  C   UNL     1       6.144   3.749  15.010  0.00  0.00    +0.000 C 
ENDBRANCH  13  15
ENDBRANCH   7  13
ENDBRANCH   1  12
BRANCH   4  16
ATOM     16  C   UNL     1       8.520   9.163  18.261  0.00  0.00    +0.000 C 
ATOM     17  C   UNL     1       9.029  10.239  18.413  0.00  0.00    +0.000 C 
BRANCH  17  18
ATOM     18  C   UNL     1       9.571  11.543  18.622  0.00  0.00    +0.000 A 
ATOM     19  C   UNL     1      10.020  12.378  17.623  0.00  0.00    +0.000 A 
ATOM     20  S   UNL     1      10.578  13.844  18.313  0.00  0.00    +0.000 S 
ATOM     21  C   UNL     1      10.178  13.248  19.875  0.00  0.00    +0.000 A 
ATOM     22  C   UNL     1      10.418  14.081  21.087  0.00  0.00    +0.000 C 
ATOM     23  N   UNL     1       9.663  12.034  19.906  0.00  0.00    +0.000 NA
ENDBRANCH  17  18
ENDBRANCH   4  16
TORSDOF 5
ENDMDL
MODEL 6
REMARK VINA RESULT:      -7.1      1.861      2.893
REMARK  Name = 
REMARK  7 active torsions:
REMARK  status: ('A' for Active; 'I' for Inactive)
REMARK    1  A    between atoms: C_1  and  C_2
REMARK    2  A    between atoms: C_2  and  O_3
REMARK    3  A    between atoms: O_3  and  C_4
REMARK    4  A    between atoms: C_9  and  C_10
REMARK    5  A    between atoms: C_13  and  C_14
REMARK    6  A    between atoms: C_15  and  C_16
REMARK    7  A    between atoms: C_19  and  C_20
REMARK                            x       y       z     vdW  Elec       q    Type
REMARK                         _______ _______ _______ _____ _____    ______ ____
ROOT
ATOM      1  C   UNL     1       5.619   5.483  17.971  0.00  0.00    +0.000 A 
ATOM      2  C   UNL     1       6.817   5.381  18.679  0.00  0.00    +0.000 A 
ATOM      3  C   UNL     1       7.723   6.450  18.681  0.00  0.00    +0.000 A 
ATOM      4  C   UNL     1       7.421   7.611  17.979  0.00  0.00    +0.000 A 
ATOM      5  C   UNL     1       6.240   7.626  17.257  0.00  0.00    +0.000 A 
ATOM      6  N   UNL     1       5.348   6.602  17.237  0.00  0.00    +0.000 NA
ENDROOT
BRANCH   1  12
ATOM      7  C   UNL     1       3.386   4.587  18.915  0.00  0.00    +0.000 A 
ATOM      8  C   UNL     1       2.335   3.653  18.828  0.00  0.00    +0.000 A 
ATOM      9  C   UNL     1       2.413   2.561  17.969  0.00  0.00    +0.000 A 
ATOM     10  C   UNL     1       3.527   2.409  17.160  0.00  0.00    +0.000 A 
ATOM     11  C   UNL     1       4.545   3.367  17.196  0.00  0.00    +0.000 A 
ATOM     12  C   UNL     1       4.507   4.491  18.056  0.00  0.00    +0.000 A 
BRANCH   7  13
ATOM     13  O   UNL     1       3.350   5.612  19.833  0.00  0.00    +0.000 OA
BRANCH  13  15
ATOM     14  C   UNL     1       1.647   7.068  20.670  0.00  0.00    +0.000 C 
ATOM     15  C   UNL     1       2.520   6.724  19.480  0.00  0.00    +0.000 C 
ENDBRANCH  13  15
ENDBRANCH   7  13
ENDBRANCH   1  12
BRANCH   4  16
ATOM     16  C   UNL     1       8.258   8.769  18.078  0.00  0.00    +0.000 C 
ATOM     17  C   UNL     1       8.914   9.761  18.234  0.00  0.00    +0.000 C 
BRANCH  17  18
ATOM     18  C   UNL     1       9.665  10.950  18.487  0.00  0.00    +0.000 A 
ATOM     19  C   UNL     1      10.531  11.537  17.591  0.00  0.00    +0.000 A 
ATOM     20  S   UNL     1      11.209  12.945  18.296  0.00  0.00    +0.000 S 
ATOM     21  C   UNL     1      10.299  12.655  19.724  0.00  0.00    +0.000 A 
ATOM     22  C   UNL     1      10.400  13.581  20.888  0.00  0.00    +0.000 C 
ATOM     23  N   UNL     1       9.532  11.581  19.703  0.00  0.00    +0.000 NA
ENDBRANCH  17  18
ENDBRANCH   4  16
TORSDOF 5
ENDMDL
MODEL 7
REMARK VINA RESULT:      -7.1      6.843      7.979
REMARK  Name = 
REMARK  7 active torsions:
REMARK  status: ('A' for Active; 'I' for Inactive)
REMARK    1  A    between atoms: C_1  and  C_2
REMARK    2  A    between atoms: C_2  and  O_3
REMARK    3  A    between atoms: O_3  and  C_4
REMARK    4  A    between atoms: C_9  and  C_10
REMARK    5  A    between atoms: C_13  and  C_14
REMARK    6  A    between atoms: C_15  and  C_16
REMARK    7  A    between atoms: C_19  and  C_20
REMARK                            x       y       z     vdW  Elec       q    Type
REMARK                         _______ _______ _______ _____ _____    ______ ____
ROOT
ATOM      1  C   UNL     1       2.436   7.227  18.521  0.00  0.00    +0.000 A 
ATOM      2  C   UNL     1       1.996   8.336  17.797  0.00  0.00    +0.000 A 
ATOM      3  C   UNL     1       1.356   9.394  18.457  0.00  0.00    +0.000 A 
ATOM      4  C   UNL     1       1.168   9.337  19.832  0.00  0.00    +0.000 A 
ATOM      5  C   UNL     1       1.583   8.187  20.481  0.00  0.00    +0.000 A 
ATOM      6  N   UNL     1       2.202   7.147  19.863  0.00  0.00    +0.000 NA
ENDROOT
BRANCH   1  12
ATOM      7  C   UNL     1       2.874   4.810  17.718  0.00  0.00    +0.000 A 
ATOM      8  C   UNL     1       3.729   3.897  17.069  0.00  0.00    +0.000 A 
ATOM      9  C   UNL     1       5.033   4.249  16.733  0.00  0.00    +0.000 A 
ATOM     10  C   UNL     1       5.486   5.527  17.009  0.00  0.00    +0.000 A 
ATOM     11  C   UNL     1       4.623   6.457  17.595  0.00  0.00    +0.000 A 
ATOM     12  C   UNL     1       3.290   6.142  17.955  0.00  0.00    +0.000 A 
BRANCH   7  13
ATOM     13  O   UNL     1       1.618   4.433  18.136  0.00  0.00    +0.000 OA
BRANCH  13  15
ATOM     14  C   UNL     1       1.006   3.756  20.346  0.00  0.00    +0.000 C 
ATOM     15  C   UNL     1       1.577   3.305  19.016  0.00  0.00    +0.000 C 
ENDBRANCH  13  15
ENDBRANCH   7  13
ENDBRANCH   1  12
BRANCH   4  16
ATOM     16  C   UNL     1       0.648  10.461  20.551  0.00  0.00    +0.000 C 
ATOM     17  C   UNL     1       0.154  11.347  21.191  0.00  0.00    +0.000 C 
BRANCH  17  18
ATOM     18  C   UNL     1      -0.473  12.351  21.991  0.00  0.00    +0.000 A 
ATOM     19  C   UNL     1      -1.639  12.175  22.701  0.00  0.00    +0.000 A 
ATOM     20  S   UNL     1      -2.028  13.627  23.526  0.00  0.00    +0.000 S 
ATOM     21  C   UNL     1      -0.620  14.363  22.871  0.00  0.00    +0.000 A 
ATOM     22  C   UNL     1      -0.283  15.777  23.197  0.00  0.00    +0.000 C 
ATOM     23  N   UNL     1       0.109  13.596  22.082  0.00  0.00    +0.000 NA
ENDBRANCH  17  18
ENDBRANCH   4  16
TORSDOF 5
ENDMDL
MODEL 8
REMARK VINA RESULT:      -7.0      6.225      7.837
REMARK  Name = 
REMARK  7 active torsions:
REMARK  status: ('A' for Active; 'I' for Inactive)
REMARK    1  A    between atoms: C_1  and  C_2
REMARK    2  A    between atoms: C_2  and  O_3
REMARK    3  A    between atoms: O_3  and  C_4
REMARK    4  A    between atoms: C_9  and  C_10
REMARK    5  A    between atoms: C_13  and  C_14
REMARK    6  A    between atoms: C_15  and  C_16
REMARK    7  A    between atoms: C_19  and  C_20
REMARK                            x       y       z     vdW  Elec       q    Type
REMARK                         _______ _______ _______ _____ _____    ______ ____
ROOT
ATOM      1  C   UNL     1       3.637   6.566  18.066  0.00  0.00    +0.000 A 
ATOM      2  C   UNL     1       3.104   7.710  17.471  0.00  0.00    +0.000 A 
ATOM      3  C   UNL     1       2.188   8.504  18.175  0.00  0.00    +0.000 A 
ATOM      4  C   UNL     1       1.819   8.150  19.468  0.00  0.00    +0.000 A 
ATOM      5  C   UNL     1       2.346   6.976  19.978  0.00  0.00    +0.000 A 
ATOM      6  N   UNL     1       3.232   6.188  19.314  0.00  0.00    +0.000 NA
ENDROOT
BRANCH   1  12
ATOM      7  C   UNL     1       4.607   4.532  16.801  0.00  0.00    +0.000 A 
ATOM      8  C   UNL     1       5.718   3.917  16.190  0.00  0.00    +0.000 A 
ATOM      9  C   UNL     1       6.997   4.447  16.326  0.00  0.00    +0.000 A 
ATOM     10  C   UNL     1       7.177   5.617  17.043  0.00  0.00    +0.000 A 
ATOM     11  C   UNL     1       6.071   6.266  17.598  0.00  0.00    +0.000 A 
ATOM     12  C   UNL     1       4.753   5.761  17.486  0.00  0.00    +0.000 A 
BRANCH   7  13
ATOM     13  O   UNL     1       3.358   3.956  16.747  0.00  0.00    +0.000 OA
BRANCH  13  15
ATOM     14  C   UNL     1       1.680   3.129  18.236  0.00  0.00    +0.000 C 
ATOM     15  C   UNL     1       3.100   2.954  17.736  0.00  0.00    +0.000 C 
ENDBRANCH  13  15
ENDBRANCH   7  13
ENDBRANCH   1  12
BRANCH   4  16
ATOM     16  C   UNL     1       0.999   9.015  20.261  0.00  0.00    +0.000 C 
ATOM     17  C   UNL     1       0.276   9.769  20.850  0.00  0.00    +0.000 C 
BRANCH  17  18
ATOM     18  C   UNL     1      -0.621  10.680  21.488  0.00  0.00    +0.000 A 
ATOM     19  C   UNL     1      -0.886  10.705  22.839  0.00  0.00    +0.000 A 
ATOM     20  S   UNL     1      -2.008  11.956  23.176  0.00  0.00    +0.000 S 
ATOM     21  C   UNL     1      -2.048  12.355  21.505  0.00  0.00    +0.000 A 
ATOM     22  C   UNL     1      -2.906  13.470  21.013  0.00  0.00    +0.000 C 
ATOM     23  N   UNL     1      -1.283  11.615  20.724  0.00  0.00    +0.000 NA
ENDBRANCH  17  18
ENDBRANCH   4  16
TORSDOF 5
ENDMDL
MODEL 9
REMARK VINA RESULT:      -7.0      7.109      8.371
REMARK  Name = 
REMARK  7 active torsions:
REMARK  status: ('A' for Active; 'I' for Inactive)
REMARK    1  A    between atoms: C_1  and  C_2
REMARK    2  A    between atoms: C_2  and  O_3
REMARK    3  A    between atoms: O_3  and  C_4
REMARK    4  A    between atoms: C_9  and  C_10
REMARK    5  A    between atoms: C_13  and  C_14
REMARK    6  A    between atoms: C_15  and  C_16
REMARK    7  A    between atoms: C_19  and  C_20
REMARK                            x       y       z     vdW  Elec       q    Type
REMARK                         _______ _______ _______ _____ _____    ______ ____
ROOT
ATOM      1  C   UNL     1       2.304   6.973  19.137  0.00  0.00    +0.000 A 
ATOM      2  C   UNL     1       1.994   6.893  20.495  0.00  0.00    +0.000 A 
ATOM      3  C   UNL     1       1.389   7.979  21.140  0.00  0.00    +0.000 A 
ATOM      4  C   UNL     1       1.094   9.131  20.422  0.00  0.00    +0.000 A 
ATOM      5  C   UNL     1       1.475   9.163  19.091  0.00  0.00    +0.000 A 
ATOM      6  N   UNL     1       2.066   8.125  18.445  0.00  0.00    +0.000 NA
ENDROOT
BRANCH   1  12
ATOM      7  C   UNL     1       4.048   5.699  17.717  0.00  0.00    +0.000 A 
ATOM      8  C   UNL     1       4.424   4.511  17.059  0.00  0.00    +0.000 A 
ATOM      9  C   UNL     1       3.521   3.465  16.894  0.00  0.00    +0.000 A 
ATOM     10  C   UNL     1       2.243   3.579  17.416  0.00  0.00    +0.000 A 
ATOM     11  C   UNL     1       1.885   4.729  18.124  0.00  0.00    +0.000 A 
ATOM     12  C   UNL     1       2.770   5.818  18.313  0.00  0.00    +0.000 A 
BRANCH   7  13
ATOM     13  O   UNL     1       4.910   6.769  17.796  0.00  0.00    +0.000 OA
BRANCH  13  15
ATOM     14  C   UNL     1       7.280   6.947  17.530  0.00  0.00    +0.000 C 
ATOM     15  C   UNL     1       5.953   6.792  16.815  0.00  0.00    +0.000 C 
ENDBRANCH  13  15
ENDBRANCH   7  13
ENDBRANCH   1  12
BRANCH   4  16
ATOM     16  C   UNL     1       0.350  10.200  21.018  0.00  0.00    +0.000 C 
ATOM     17  C   UNL     1      -0.290  11.041  21.586  0.00  0.00    +0.000 C 
BRANCH  17  18
ATOM     18  C   UNL     1      -1.050  11.999  22.323  0.00  0.00    +0.000 A 
ATOM     19  C   UNL     1      -0.717  13.328  22.462  0.00  0.00    +0.000 A 
ATOM     20  S   UNL     1      -1.905  14.116  23.413  0.00  0.00    +0.000 S 
ATOM     21  C   UNL     1      -2.758  12.632  23.559  0.00  0.00    +0.000 A 
ATOM     22  C   UNL     1      -4.027  12.561  24.336  0.00  0.00    +0.000 C 
ATOM     23  N   UNL     1      -2.210  11.598  22.948  0.00  0.00    +0.000 NA
ENDBRANCH  17  18
ENDBRANCH   4  16
TORSDOF 5
ENDMDL
