MODEL 1
REMARK VINA RESULT:      -9.0      0.000      0.000
REMARK  Name = 
REMARK  4 active torsions:
REMARK  status: ('A' for Active; 'I' for Inactive)
REMARK    1  A    between atoms: C_6  and  C_7
REMARK    2  A    between atoms: N_15  and  C_16
REMARK    3  A    between atoms: C_16  and  C_17
REMARK    4  A    between atoms: N_22  and  C_23
REMARK                            x       y       z     vdW  Elec       q    Type
REMARK                         _______ _______ _______ _____ _____    ______ ____
ROOT
ATOM      1  C   UNL     1       7.110   4.944  16.144  0.00  0.00    +0.000 A 
ATOM      2  N   UNL     1       7.643   5.458  15.056  0.00  0.00    +0.000 NA
ATOM      3  C   UNL     1       7.094   4.782  14.007  0.00  0.00    +0.000 A 
ATOM      4  C   UNL     1       7.398   4.907  12.637  0.00  0.00    +0.000 A 
ATOM      5  C   UNL     1       6.714   4.132  11.700  0.00  0.00    +0.000 A 
ATOM      6  C   UNL     1       5.709   3.277  12.122  0.00  0.00    +0.000 A 
ATOM      7  C   UNL     1       5.369   3.162  13.479  0.00  0.00    +0.000 A 
ATOM      8  C   UNL     1       6.106   3.893  14.434  0.00  0.00    +0.000 A 
ATOM      9  N   UNL     1       6.114   4.012  15.816  0.00  0.00    +0.000 N 
ENDROOT
BRANCH   1  15
ATOM     10  N   UNL     1       7.505   7.884  17.308  0.00  0.00    +0.000 N 
ATOM     11  C   UNL     1       7.747   6.735  17.968  0.00  0.00    +0.000 A 
ATOM     12  N   UNL     1       8.131   6.698  19.248  0.00  0.00    +0.000 NA
ATOM     13  O   UNL     1       8.113   5.369  19.604  0.00  0.00    +0.000 OA
ATOM     14  N   UNL     1       7.734   4.571  18.534  0.00  0.00    +0.000 NA
ATOM     15  C   UNL     1       7.543   5.404  17.516  0.00  0.00    +0.000 A 
ATOM     16  H   UNL     1       7.422   8.711  17.890  0.00  0.00    +0.000 HD
ATOM     17  H   UNL     1       6.796   7.864  16.577  0.00  0.00    +0.000 HD
ENDBRANCH   1  15
BRANCH   9  18
ATOM     18  C   UNL     1       5.281   3.355  16.818  0.00  0.00    +0.000 C 
BRANCH  18  19
ATOM     19  C   UNL     1       3.816   3.669  16.920  0.00  0.00    +0.000 C 
ATOM     20  O   UNL     1       2.960   2.812  16.573  0.00  0.00    +0.000 OA
ATOM     21  N   UNL     1       3.382   4.815  17.519  0.00  0.00    +0.000 N 
ATOM     22  C   UNL     1       1.947   4.944  17.786  0.00  0.00    +0.000 C 
ATOM     23  C   UNL     1       1.718   5.397  19.221  0.00  0.00    +0.000 C 
ATOM     24  N   UNL     1       2.489   6.618  19.480  0.00  0.00    +0.000 N 
ATOM     25  C   UNL     1       3.924   6.599  19.152  0.00  0.00    +0.000 C 
ATOM     26  C   UNL     1       4.151   6.042  17.732  0.00  0.00    +0.000 C 
BRANCH  24  27
ATOM     27  C   UNL     1       1.841   7.768  19.858  0.00  0.00    +0.000 A 
ATOM     28  C   UNL     1       1.307   7.917  21.144  0.00  0.00    +0.000 A 
ATOM     29  C   UNL     1       0.562   9.048  21.480  0.00  0.00    +0.000 A 
ATOM     30  C   UNL     1       0.377  10.050  20.531  0.00  0.00    +0.000 A 
ATOM     31  F   UNL     1      -0.364  11.117  20.843  0.00  0.00    +0.000 F 
ATOM     32  C   UNL     1       0.941   9.954  19.274  0.00  0.00    +0.000 A 
ATOM     33  C   UNL     1       1.671   8.818  18.942  0.00  0.00    +0.000 A 
ENDBRANCH  24  27
ENDBRANCH  18  19
ENDBRANCH   9  18
TORSDOF 4
ENDMDL
MODEL 2
REMARK VINA RESULT:      -8.7      3.026      4.990
REMARK  Name = 
REMARK  4 active torsions:
REMARK  status: ('A' for Active; 'I' for Inactive)
REMARK    1  A    between atoms: C_6  and  C_7
REMARK    2  A    between atoms: N_15  and  C_16
REMARK    3  A    between atoms: C_16  and  C_17
REMARK    4  A    between atoms: N_22  and  C_23
REMARK                            x       y       z     vdW  Elec       q    Type
REMARK                         _______ _______ _______ _____ _____    ______ ____
ROOT
ATOM      1  C   UNL     1       4.911   5.297  17.924  0.00  0.00    +0.000 A 
ATOM      2  N   UNL     1       5.030   3.997  17.760  0.00  0.00    +0.000 NA
ATOM      3  C   UNL     1       3.795   3.469  17.995  0.00  0.00    +0.000 A 
ATOM      4  C   UNL     1       3.421   2.111  18.023  0.00  0.00    +0.000 A 
ATOM      5  C   UNL     1       2.093   1.761  18.271  0.00  0.00    +0.000 A 
ATOM      6  C   UNL     1       1.144   2.756  18.443  0.00  0.00    +0.000 A 
ATOM      7  C   UNL     1       1.491   4.115  18.388  0.00  0.00    +0.000 A 
ATOM      8  C   UNL     1       2.845   4.469  18.207  0.00  0.00    +0.000 A 
ATOM      9  N   UNL     1       3.572   5.650  18.147  0.00  0.00    +0.000 N 
ENDROOT
BRANCH   1  15
ATOM     10  N   UNL     1       7.594   5.401  19.640  0.00  0.00    +0.000 N 
ATOM     11  C   UNL     1       7.266   6.240  18.639  0.00  0.00    +0.000 A 
ATOM     12  N   UNL     1       8.083   7.200  18.196  0.00  0.00    +0.000 NA
ATOM     13  O   UNL     1       7.473   7.723  17.079  0.00  0.00    +0.000 OA
ATOM     14  N   UNL     1       6.259   7.097  16.836  0.00  0.00    +0.000 NA
ATOM     15  C   UNL     1       6.110   6.209  17.813  0.00  0.00    +0.000 A 
ATOM     16  H   UNL     1       8.576   5.396  19.900  0.00  0.00    +0.000 HD
ATOM     17  H   UNL     1       7.207   4.458  19.609  0.00  0.00    +0.000 HD
ENDBRANCH   1  15
BRANCH   9  18
ATOM     18  C   UNL     1       3.124   7.033  18.264  0.00  0.00    +0.000 C 
BRANCH  18  19
ATOM     19  C   UNL     1       2.195   7.446  19.369  0.00  0.00    +0.000 C 
ATOM     20  O   UNL     1       2.090   6.736  20.405  0.00  0.00    +0.000 OA
ATOM     21  N   UNL     1       1.564   8.654  19.344  0.00  0.00    +0.000 N 
ATOM     22  C   UNL     1       0.861   9.083  20.556  0.00  0.00    +0.000 C 
ATOM     23  C   UNL     1       1.244  10.513  20.909  0.00  0.00    +0.000 C 
ATOM     24  N   UNL     1       1.023  11.382  19.747  0.00  0.00    +0.000 N 
ATOM     25  C   UNL     1       1.622  10.972  18.467  0.00  0.00    +0.000 C 
ATOM     26  C   UNL     1       1.312   9.491  18.169  0.00  0.00    +0.000 C 
BRANCH  24  27
ATOM     27  C   UNL     1       0.152  12.440  19.841  0.00  0.00    +0.000 A 
ATOM     28  C   UNL     1       0.418  13.664  19.214  0.00  0.00    +0.000 A 
ATOM     29  C   UNL     1      -0.424  14.759  19.404  0.00  0.00    +0.000 A 
ATOM     30  C   UNL     1      -1.556  14.621  20.202  0.00  0.00    +0.000 A 
ATOM     31  F   UNL     1      -2.344  15.679  20.411  0.00  0.00    +0.000 F 
ATOM     32  C   UNL     1      -1.872  13.408  20.786  0.00  0.00    +0.000 A 
ATOM     33  C   UNL     1      -1.021  12.325  20.603  0.00  0.00    +0.000 A 
ENDBRANCH  24  27
ENDBRANCH  18  19
ENDBRANCH   9  18
TORSDOF 4
ENDMDL
MODEL 3
REMARK VINA RESULT:      -8.5      3.541      5.414
REMARK  Name = 
REMARK  4 active torsions:
REMARK  status: ('A' for Active; 'I' for Inactive)
REMARK    1  A    between atoms: C_6  and  C_7
REMARK    2  A    between atoms: N_15  and  C_16
REMARK    3  A    between atoms: C_16  and  C_17
REMARK    4  A    between atoms: N_22  and  C_23
REMARK                            x       y       z     vdW  Elec       q    Type
REMARK                         _______ _______ _______ _____ _____    ______ ____
ROOT
ATOM      1  C   UNL     1       3.833   4.534  19.372  0.00  0.00    +0.000 A 
ATOM      2  N   UNL     1       5.101   4.224  19.546  0.00  0.00    +0.000 NA
ATOM      3  C   UNL     1       5.814   5.094  18.776  0.00  0.00    +0.000 A 
ATOM      4  C   UNL     1       7.205   5.122  18.558  0.00  0.00    +0.000 A 
ATOM      5  C   UNL     1       7.760   6.106  17.739  0.00  0.00    +0.000 A 
ATOM      6  C   UNL     1       6.941   7.075  17.183  0.00  0.00    +0.000 A 
ATOM      7  C   UNL     1       5.557   7.083  17.414  0.00  0.00    +0.000 A 
ATOM      8  C   UNL     1       4.986   6.049  18.185  0.00  0.00    +0.000 A 
ATOM      9  N   UNL     1       3.707   5.687  18.585  0.00  0.00    +0.000 N 
ENDROOT
BRANCH   1  15
ATOM     10  N   UNL     1       2.397   1.855  18.414  0.00  0.00    +0.000 N 
ATOM     11  C   UNL     1       2.100   2.554  19.526  0.00  0.00    +0.000 A 
ATOM     12  N   UNL     1       1.184   2.156  20.413  0.00  0.00    +0.000 NA
ATOM     13  O   UNL     1       1.286   3.029  21.472  0.00  0.00    +0.000 OA
ATOM     14  N   UNL     1       2.259   3.989  21.234  0.00  0.00    +0.000 NA
ATOM     15  C   UNL     1       2.737   3.723  20.023  0.00  0.00    +0.000 A 
ATOM     16  H   UNL     1       2.044   0.903  18.391  0.00  0.00    +0.000 HD
ATOM     17  H   UNL     1       3.354   1.911  18.066  0.00  0.00    +0.000 HD
ENDBRANCH   1  15
BRANCH   9  18
ATOM     18  C   UNL     1       2.423   6.324  18.310  0.00  0.00    +0.000 C 
BRANCH  18  19
ATOM     19  C   UNL     1       2.334   7.810  18.114  0.00  0.00    +0.000 C 
ATOM     20  O   UNL     1       2.629   8.321  17.001  0.00  0.00    +0.000 OA
ATOM     21  N   UNL     1       1.797   8.615  19.076  0.00  0.00    +0.000 N 
ATOM     22  C   UNL     1       1.531  10.013  18.725  0.00  0.00    +0.000 C 
ATOM     23  C   UNL     1       0.123  10.403  19.150  0.00  0.00    +0.000 C 
ATOM     24  N   UNL     1      -0.065  10.094  20.572  0.00  0.00    +0.000 N 
ATOM     25  C   UNL     1       0.267   8.733  21.023  0.00  0.00    +0.000 C 
ATOM     26  C   UNL     1       1.656   8.309  20.500  0.00  0.00    +0.000 C 
BRANCH  24  27
ATOM     27  C   UNL     1      -0.381  11.098  21.454  0.00  0.00    +0.000 A 
ATOM     28  C   UNL     1      -1.205  10.866  22.562  0.00  0.00    +0.000 A 
ATOM     29  C   UNL     1      -1.601  11.917  23.388  0.00  0.00    +0.000 A 
ATOM     30  C   UNL     1      -1.145  13.205  23.122  0.00  0.00    +0.000 A 
ATOM     31  F   UNL     1      -1.551  14.217  23.895  0.00  0.00    +0.000 F 
ATOM     32  C   UNL     1      -0.285  13.452  22.069  0.00  0.00    +0.000 A 
ATOM     33  C   UNL     1       0.094  12.402  21.242  0.00  0.00    +0.000 A 
ENDBRANCH  24  27
ENDBRANCH  18  19
ENDBRANCH   9  18
TORSDOF 4
ENDMDL
MODEL 4
REMARK VINA RESULT:      -8.4      3.062      5.213
REMARK  Name = 
REMARK  4 active torsions:
REMARK  status: ('A' for Active; 'I' for Inactive)
REMARK    1  A    between atoms: C_6  and  C_7
REMARK    2  A    between atoms: N_15  and  C_16
REMARK    3  A    between atoms: C_16  and  C_17
REMARK    4  A    between atoms: N_22  and  C_23
REMARK                            x       y       z     vdW  Elec       q    Type
REMARK                         _______ _______ _______ _____ _____    ______ ____
ROOT
ATOM      1  C   UNL     1       4.210   5.118  18.069  0.00  0.00    +0.000 A 
ATOM      2  N   UNL     1       4.036   3.933  17.524  0.00  0.00    +0.000 NA
ATOM      3  C   UNL     1       2.915   3.410  18.098  0.00  0.00    +0.000 A 
ATOM      4  C   UNL     1       2.357   2.131  17.909  0.00  0.00    +0.000 A 
ATOM      5  C   UNL     1       1.187   1.777  18.581  0.00  0.00    +0.000 A 
ATOM      6  C   UNL     1       0.558   2.706  19.395  0.00  0.00    +0.000 A 
ATOM      7  C   UNL     1       1.081   3.996  19.573  0.00  0.00    +0.000 A 
ATOM      8  C   UNL     1       2.302   4.332  18.948  0.00  0.00    +0.000 A 
ATOM      9  N   UNL     1       3.139   5.438  18.915  0.00  0.00    +0.000 N 
ENDROOT
BRANCH   1  15
ATOM     10  N   UNL     1       7.143   5.159  19.317  0.00  0.00    +0.000 N 
ATOM     11  C   UNL     1       6.688   5.973  18.345  0.00  0.00    +0.000 A 
ATOM     12  N   UNL     1       7.460   6.874  17.731  0.00  0.00    +0.000 NA
ATOM     13  O   UNL     1       6.695   7.383  16.705  0.00  0.00    +0.000 OA
ATOM     14  N   UNL     1       5.432   6.807  16.693  0.00  0.00    +0.000 NA
ATOM     15  C   UNL     1       5.411   5.966  17.722  0.00  0.00    +0.000 A 
ATOM     16  H   UNL     1       8.152   5.116  19.412  0.00  0.00    +0.000 HD
ATOM     17  H   UNL     1       6.717   4.235  19.393  0.00  0.00    +0.000 HD
ENDBRANCH   1  15
BRANCH   9  18
ATOM     18  C   UNL     1       3.010   6.731  19.578  0.00  0.00    +0.000 C 
BRANCH  18  19
ATOM     19  C   UNL     1       2.379   7.895  18.869  0.00  0.00    +0.000 C 
ATOM     20  O   UNL     1       2.416   7.964  17.612  0.00  0.00    +0.000 OA
ATOM     21  N   UNL     1       1.634   8.813  19.549  0.00  0.00    +0.000 N 
ATOM     22  C   UNL     1       0.864   9.783  18.765  0.00  0.00    +0.000 C 
ATOM     23  C   UNL     1      -0.568   9.853  19.275  0.00  0.00    +0.000 C 
ATOM     24  N   UNL     1      -0.563  10.116  20.719  0.00  0.00    +0.000 N 
ATOM     25  C   UNL     1       0.260   9.240  21.568  0.00  0.00    +0.000 C 
ATOM     26  C   UNL     1       1.681   9.095  20.985  0.00  0.00    +0.000 C 
BRANCH  24  27
ATOM     27  C   UNL     1      -1.179  11.241  21.210  0.00  0.00    +0.000 A 
ATOM     28  C   UNL     1      -1.154  11.551  22.576  0.00  0.00    +0.000 A 
ATOM     29  C   UNL     1      -1.870  12.640  23.073  0.00  0.00    +0.000 A 
ATOM     30  C   UNL     1      -2.593  13.441  22.193  0.00  0.00    +0.000 A 
ATOM     31  F   UNL     1      -3.306  14.463  22.674  0.00  0.00    +0.000 F 
ATOM     32  C   UNL     1      -2.589  13.190  20.834  0.00  0.00    +0.000 A 
ATOM     33  C   UNL     1      -1.883  12.096  20.348  0.00  0.00    +0.000 A 
ENDBRANCH  24  27
ENDBRANCH  18  19
ENDBRANCH   9  18
TORSDOF 4
ENDMDL
MODEL 5
REMARK VINA RESULT:      -8.4      2.926      5.359
REMARK  Name = 
REMARK  4 active torsions:
REMARK  status: ('A' for Active; 'I' for Inactive)
REMARK    1  A    between atoms: C_6  and  C_7
REMARK    2  A    between atoms: N_15  and  C_16
REMARK    3  A    between atoms: C_16  and  C_17
REMARK    4  A    between atoms: N_22  and  C_23
REMARK                            x       y       z     vdW  Elec       q    Type
REMARK                         _______ _______ _______ _____ _____    ______ ____
ROOT
ATOM      1  C   UNL     1       3.418   4.153  18.200  0.00  0.00    +0.000 A 
ATOM      2  N   UNL     1       4.412   3.553  17.579  0.00  0.00    +0.000 NA
ATOM      3  C   UNL     1       5.324   4.525  17.293  0.00  0.00    +0.000 A 
ATOM      4  C   UNL     1       6.524   4.405  16.566  0.00  0.00    +0.000 A 
ATOM      5  C   UNL     1       7.342   5.520  16.384  0.00  0.00    +0.000 A 
ATOM      6  C   UNL     1       6.987   6.729  16.961  0.00  0.00    +0.000 A 
ATOM      7  C   UNL     1       5.812   6.863  17.716  0.00  0.00    +0.000 A 
ATOM      8  C   UNL     1       4.949   5.753  17.841  0.00  0.00    +0.000 A 
ATOM      9  N   UNL     1       3.721   5.501  18.436  0.00  0.00    +0.000 N 
ENDROOT
BRANCH   1  15
ATOM     10  N   UNL     1       2.586   2.920  21.019  0.00  0.00    +0.000 N 
ATOM     11  C   UNL     1       1.881   2.820  19.875  0.00  0.00    +0.000 A 
ATOM     12  N   UNL     1       0.685   2.228  19.807  0.00  0.00    +0.000 NA
ATOM     13  O   UNL     1       0.221   2.471  18.535  0.00  0.00    +0.000 OA
ATOM     14  N   UNL     1       1.143   3.202  17.799  0.00  0.00    +0.000 NA
ATOM     15  C   UNL     1       2.181   3.388  18.608  0.00  0.00    +0.000 A 
ATOM     16  H   UNL     1       2.070   2.714  21.868  0.00  0.00    +0.000 HD
ATOM     17  H   UNL     1       3.185   3.738  21.130  0.00  0.00    +0.000 HD
ENDBRANCH   1  15
BRANCH   9  18
ATOM     18  C   UNL     1       2.848   6.389  19.196  0.00  0.00    +0.000 C 
BRANCH  18  19
ATOM     19  C   UNL     1       2.451   7.728  18.642  0.00  0.00    +0.000 C 
ATOM     20  O   UNL     1       2.660   7.998  17.430  0.00  0.00    +0.000 OA
ATOM     21  N   UNL     1       1.732   8.613  19.391  0.00  0.00    +0.000 N 
ATOM     22  C   UNL     1       1.186   9.793  18.714  0.00  0.00    +0.000 C 
ATOM     23  C   UNL     1      -0.284   9.969  19.068  0.00  0.00    +0.000 C 
ATOM     24  N   UNL     1      -0.438   9.988  20.527  0.00  0.00    +0.000 N 
ATOM     25  C   UNL     1       0.163   8.882  21.290  0.00  0.00    +0.000 C 
ATOM     26  C   UNL     1       1.622   8.646  20.850  0.00  0.00    +0.000 C 
BRANCH  24  27
ATOM     27  C   UNL     1      -0.982  11.089  21.142  0.00  0.00    +0.000 A 
ATOM     28  C   UNL     1      -1.010  11.208  22.538  0.00  0.00    +0.000 A 
ATOM     29  C   UNL     1      -1.658  12.282  23.148  0.00  0.00    +0.000 A 
ATOM     30  C   UNL     1      -2.256  13.259  22.357  0.00  0.00    +0.000 A 
ATOM     31  F   UNL     1      -2.904  14.270  22.943  0.00  0.00    +0.000 F 
ATOM     32  C   UNL     1      -2.193  13.195  20.978  0.00  0.00    +0.000 A 
ATOM     33  C   UNL     1      -1.558  12.116  20.377  0.00  0.00    +0.000 A 
ENDBRANCH  24  27
ENDBRANCH  18  19
ENDBRANCH   9  18
TORSDOF 4
ENDMDL
MODEL 6
REMARK VINA RESULT:      -8.3      2.769      4.997
REMARK  Name = 
REMARK  4 active torsions:
REMARK  status: ('A' for Active; 'I' for Inactive)
REMARK    1  A    between atoms: C_6  and  C_7
REMARK    2  A    between atoms: N_15  and  C_16
REMARK    3  A    between atoms: C_16  and  C_17
REMARK    4  A    between atoms: N_22  and  C_23
REMARK                            x       y       z     vdW  Elec       q    Type
REMARK                         _______ _______ _______ _____ _____    ______ ____
ROOT
ATOM      1  C   UNL     1       4.484   4.930  18.141  0.00  0.00    +0.000 A 
ATOM      2  N   UNL     1       4.333   3.721  17.643  0.00  0.00    +0.000 NA
ATOM      3  C   UNL     1       3.145   3.256  18.124  0.00  0.00    +0.000 A 
ATOM      4  C   UNL     1       2.572   1.982  17.945  0.00  0.00    +0.000 A 
ATOM      5  C   UNL     1       1.330   1.693  18.510  0.00  0.00    +0.000 A 
ATOM      6  C   UNL     1       0.649   2.679  19.205  0.00  0.00    +0.000 A 
ATOM      7  C   UNL     1       1.187   3.964  19.369  0.00  0.00    +0.000 A 
ATOM      8  C   UNL     1       2.474   4.237  18.858  0.00  0.00    +0.000 A 
ATOM      9  N   UNL     1       3.341   5.320  18.854  0.00  0.00    +0.000 N 
ENDROOT
BRANCH   1  15
ATOM     10  N   UNL     1       5.279   6.767  15.661  0.00  0.00    +0.000 N 
ATOM     11  C   UNL     1       6.059   6.499  16.726  0.00  0.00    +0.000 A 
ATOM     12  N   UNL     1       7.267   7.043  16.898  0.00  0.00    +0.000 NA
ATOM     13  O   UNL     1       7.670   6.665  18.158  0.00  0.00    +0.000 OA
ATOM     14  N   UNL     1       6.715   5.864  18.768  0.00  0.00    +0.000 NA
ATOM     15  C   UNL     1       5.738   5.730  17.877  0.00  0.00    +0.000 A 
ATOM     16  H   UNL     1       5.563   7.565  15.103  0.00  0.00    +0.000 HD
ATOM     17  H   UNL     1       4.269   6.745  15.801  0.00  0.00    +0.000 HD
ENDBRANCH   1  15
BRANCH   9  18
ATOM     18  C   UNL     1       3.182   6.650  19.432  0.00  0.00    +0.000 C 
BRANCH  18  19
ATOM     19  C   UNL     1       2.678   7.791  18.598  0.00  0.00    +0.000 C 
ATOM     20  O   UNL     1       2.926   7.830  17.363  0.00  0.00    +0.000 OA
ATOM     21  N   UNL     1       1.827   8.722  19.118  0.00  0.00    +0.000 N 
ATOM     22  C   UNL     1       1.198   9.667  18.191  0.00  0.00    +0.000 C 
ATOM     23  C   UNL     1      -0.299   9.740  18.450  0.00  0.00    +0.000 C 
ATOM     24  N   UNL     1      -0.539  10.039  19.867  0.00  0.00    +0.000 N 
ATOM     25  C   UNL     1       0.131   9.190  20.865  0.00  0.00    +0.000 C 
ATOM     26  C   UNL     1       1.630   9.039  20.533  0.00  0.00    +0.000 C 
BRANCH  24  27
ATOM     27  C   UNL     1      -1.231  11.172  20.218  0.00  0.00    +0.000 A 
ATOM     28  C   UNL     1      -1.015  11.810  21.446  0.00  0.00    +0.000 A 
ATOM     29  C   UNL     1      -1.798  12.898  21.832  0.00  0.00    +0.000 A 
ATOM     30  C   UNL     1      -2.784  13.369  20.970  0.00  0.00    +0.000 A 
ATOM     31  F   UNL     1      -3.556  14.390  21.354  0.00  0.00    +0.000 F 
ATOM     32  C   UNL     1      -2.980  12.794  19.729  0.00  0.00    +0.000 A 
ATOM     33  C   UNL     1      -2.205  11.703  19.357  0.00  0.00    +0.000 A 
ENDBRANCH  24  27
ENDBRANCH  18  19
ENDBRANCH   9  18
TORSDOF 4
ENDMDL
MODEL 7
REMARK VINA RESULT:      -8.3      3.135      5.459
REMARK  Name = 
REMARK  4 active torsions:
REMARK  status: ('A' for Active; 'I' for Inactive)
REMARK    1  A    between atoms: C_6  and  C_7
REMARK    2  A    between atoms: N_15  and  C_16
REMARK    3  A    between atoms: C_16  and  C_17
REMARK    4  A    between atoms: N_22  and  C_23
REMARK                            x       y       z     vdW  Elec       q    Type
REMARK                         _______ _______ _______ _____ _____    ______ ____
ROOT
ATOM      1  C   UNL     1       3.444   4.105  19.313  0.00  0.00    +0.000 A 
ATOM      2  N   UNL     1       4.220   3.472  18.459  0.00  0.00    +0.000 NA
ATOM      3  C   UNL     1       4.568   4.388  17.511  0.00  0.00    +0.000 A 
ATOM      4  C   UNL     1       5.323   4.182  16.340  0.00  0.00    +0.000 A 
ATOM      5  C   UNL     1       5.590   5.255  15.488  0.00  0.00    +0.000 A 
ATOM      6  C   UNL     1       5.147   6.524  15.827  0.00  0.00    +0.000 A 
ATOM      7  C   UNL     1       4.421   6.755  17.004  0.00  0.00    +0.000 A 
ATOM      8  C   UNL     1       4.091   5.660  17.831  0.00  0.00    +0.000 A 
ATOM      9  N   UNL     1       3.375   5.471  19.004  0.00  0.00    +0.000 N 
ENDROOT
BRANCH   1  15
ATOM     10  N   UNL     1       0.371   3.687  20.049  0.00  0.00    +0.000 N 
ATOM     11  C   UNL     1       1.421   3.259  20.776  0.00  0.00    +0.000 A 
ATOM     12  N   UNL     1       1.287   2.532  21.889  0.00  0.00    +0.000 NA
ATOM     13  O   UNL     1       2.562   2.154  22.243  0.00  0.00    +0.000 OA
ATOM     14  N   UNL     1       3.498   2.666  21.355  0.00  0.00    +0.000 NA
ATOM     15  C   UNL     1       2.804   3.376  20.471  0.00  0.00    +0.000 A 
ATOM     16  H   UNL     1      -0.518   3.251  20.270  0.00  0.00    +0.000 HD
ATOM     17  H   UNL     1       0.505   3.783  19.043  0.00  0.00    +0.000 HD
ENDBRANCH   1  15
BRANCH   9  18
ATOM     18  C   UNL     1       2.668   6.438  19.837  0.00  0.00    +0.000 C 
BRANCH  18  19
ATOM     19  C   UNL     1       2.097   7.691  19.238  0.00  0.00    +0.000 C 
ATOM     20  O   UNL     1       1.985   7.799  17.988  0.00  0.00    +0.000 OA
ATOM     21  N   UNL     1       1.558   8.665  20.025  0.00  0.00    +0.000 N 
ATOM     22  C   UNL     1       0.817   9.744  19.365  0.00  0.00    +0.000 C 
ATOM     23  C   UNL     1      -0.522   9.961  20.055  0.00  0.00    +0.000 C 
ATOM     24  N   UNL     1      -0.306  10.172  21.491  0.00  0.00    +0.000 N 
ATOM     25  C   UNL     1       0.506   9.178  22.211  0.00  0.00    +0.000 C 
ATOM     26  C   UNL     1       1.816   8.890  21.448  0.00  0.00    +0.000 C 
BRANCH  24  27
ATOM     27  C   UNL     1      -0.718  11.343  22.079  0.00  0.00    +0.000 A 
ATOM     28  C   UNL     1      -1.753  11.363  23.022  0.00  0.00    +0.000 A 
ATOM     29  C   UNL     1      -2.229  12.571  23.533  0.00  0.00    +0.000 A 
ATOM     30  C   UNL     1      -1.645  13.765  23.119  0.00  0.00    +0.000 A 
ATOM     31  F   UNL     1      -2.122  14.923  23.583  0.00  0.00    +0.000 F 
ATOM     32  C   UNL     1      -0.584  13.769  22.233  0.00  0.00    +0.000 A 
ATOM     33  C   UNL     1      -0.124  12.563  21.719  0.00  0.00    +0.000 A 
ENDBRANCH  24  27
ENDBRANCH  18  19
ENDBRANCH   9  18
TORSDOF 4
ENDMDL
MODEL 8
REMARK VINA RESULT:      -8.3      6.278     11.050
REMARK  Name = 
REMARK  4 active torsions:
REMARK  status: ('A' for Active; 'I' for Inactive)
REMARK    1  A    between atoms: C_6  and  C_7
REMARK    2  A    between atoms: N_15  and  C_16
REMARK    3  A    between atoms: C_16  and  C_17
REMARK    4  A    between atoms: N_22  and  C_23
REMARK                            x       y       z     vdW  Elec       q    Type
REMARK                         _______ _______ _______ _____ _____    ______ ____
ROOT
ATOM      1  C   UNL     1      -3.514  13.048  20.983  0.00  0.00    +0.000 A 
ATOM      2  N   UNL     1      -4.590  12.630  20.352  0.00  0.00    +0.000 NA
ATOM      3  C   UNL     1      -4.162  12.131  19.158  0.00  0.00    +0.000 A 
ATOM      4  C   UNL     1      -4.939  11.636  18.093  0.00  0.00    +0.000 A 
ATOM      5  C   UNL     1      -4.315  11.152  16.943  0.00  0.00    +0.000 A 
ATOM      6  C   UNL     1      -2.931  11.120  16.878  0.00  0.00    +0.000 A 
ATOM      7  C   UNL     1      -2.138  11.579  17.941  0.00  0.00    +0.000 A 
ATOM      8  C   UNL     1      -2.768  12.133  19.075  0.00  0.00    +0.000 A 
ATOM      9  N   UNL     1      -2.356  12.717  20.265  0.00  0.00    +0.000 N 
ENDROOT
BRANCH   1  15
ATOM     10  N   UNL     1      -3.424  11.845  23.933  0.00  0.00    +0.000 N 
ATOM     11  C   UNL     1      -3.614  13.140  23.615  0.00  0.00    +0.000 A 
ATOM     12  N   UNL     1      -3.726  14.105  24.533  0.00  0.00    +0.000 NA
ATOM     13  O   UNL     1      -3.741  15.288  23.829  0.00  0.00    +0.000 OA
ATOM     14  N   UNL     1      -3.657  15.056  22.463  0.00  0.00    +0.000 NA
ATOM     15  C   UNL     1      -3.615  13.735  22.325  0.00  0.00    +0.000 A 
ATOM     16  H   UNL     1      -3.156  11.668  24.896  0.00  0.00    +0.000 HD
ATOM     17  H   UNL     1      -2.885  11.276  23.281  0.00  0.00    +0.000 HD
ENDBRANCH   1  15
BRANCH   9  18
ATOM     18  C   UNL     1      -1.010  12.966  20.770  0.00  0.00    +0.000 C 
BRANCH  18  19
ATOM     19  C   UNL     1      -0.266  11.900  21.521  0.00  0.00    +0.000 C 
ATOM     20  O   UNL     1      -0.449  11.753  22.759  0.00  0.00    +0.000 OA
ATOM     21  N   UNL     1       0.502  10.983  20.865  0.00  0.00    +0.000 N 
ATOM     22  C   UNL     1       1.009   9.842  21.633  0.00  0.00    +0.000 C 
ATOM     23  C   UNL     1       0.743   8.544  20.883  0.00  0.00    +0.000 C 
ATOM     24  N   UNL     1       1.287   8.642  19.524  0.00  0.00    +0.000 N 
ATOM     25  C   UNL     1       0.898   9.810  18.717  0.00  0.00    +0.000 C 
ATOM     26  C   UNL     1       1.075  11.113  19.524  0.00  0.00    +0.000 C 
BRANCH  24  27
ATOM     27  C   UNL     1       2.248   7.753  19.107  0.00  0.00    +0.000 A 
ATOM     28  C   UNL     1       2.973   7.960  17.927  0.00  0.00    +0.000 A 
ATOM     29  C   UNL     1       3.870   6.999  17.463  0.00  0.00    +0.000 A 
ATOM     30  C   UNL     1       4.065   5.835  18.201  0.00  0.00    +0.000 A 
ATOM     31  F   UNL     1       4.900   4.899  17.740  0.00  0.00    +0.000 F 
ATOM     32  C   UNL     1       3.405   5.631  19.398  0.00  0.00    +0.000 A 
ATOM     33  C   UNL     1       2.503   6.588  19.847  0.00  0.00    +0.000 A 
ENDBRANCH  24  27
ENDBRANCH  18  19
ENDBRANCH   9  18
TORSDOF 4
ENDMDL
MODEL 9
REMARK VINA RESULT:      -8.3      2.636      5.128
REMARK  Name = 
REMARK  4 active torsions:
REMARK  status: ('A' for Active; 'I' for Inactive)
REMARK    1  A    between atoms: C_6  and  C_7
REMARK    2  A    between atoms: N_15  and  C_16
REMARK    3  A    between atoms: C_16  and  C_17
REMARK    4  A    between atoms: N_22  and  C_23
REMARK                            x       y       z     vdW  Elec       q    Type
REMARK                         _______ _______ _______ _____ _____    ______ ____
ROOT
ATOM      1  C   UNL     1       4.077   4.584  17.403  0.00  0.00    +0.000 A 
ATOM      2  N   UNL     1       3.552   3.402  17.157  0.00  0.00    +0.000 NA
ATOM      3  C   UNL     1       2.548   3.235  18.063  0.00  0.00    +0.000 A 
ATOM      4  C   UNL     1       1.735   2.102  18.263  0.00  0.00    +0.000 A 
ATOM      5  C   UNL     1       0.741   2.123  19.241  0.00  0.00    +0.000 A 
ATOM      6  C   UNL     1       0.531   3.278  19.978  0.00  0.00    +0.000 A 
ATOM      7  C   UNL     1       1.308   4.428  19.773  0.00  0.00    +0.000 A 
ATOM      8  C   UNL     1       2.359   4.385  18.833  0.00  0.00    +0.000 A 
ATOM      9  N   UNL     1       3.345   5.257  18.392  0.00  0.00    +0.000 N 
ENDROOT
BRANCH   1  15
ATOM     10  N   UNL     1       7.191   4.332  18.035  0.00  0.00    +0.000 N 
ATOM     11  C   UNL     1       6.649   4.977  16.984  0.00  0.00    +0.000 A 
ATOM     12  N   UNL     1       7.383   5.547  16.023  0.00  0.00    +0.000 NA
ATOM     13  O   UNL     1       6.487   5.949  15.059  0.00  0.00    +0.000 OA
ATOM     14  N   UNL     1       5.185   5.644  15.431  0.00  0.00    +0.000 NA
ATOM     15  C   UNL     1       5.277   5.079  16.630  0.00  0.00    +0.000 A 
ATOM     16  H   UNL     1       8.179   4.115  17.950  0.00  0.00    +0.000 HD
ATOM     17  H   UNL     1       6.666   3.551  18.428  0.00  0.00    +0.000 HD
ENDBRANCH   1  15
BRANCH   9  18
ATOM     18  C   UNL     1       3.634   6.628  18.799  0.00  0.00    +0.000 C 
BRANCH  18  19
ATOM     19  C   UNL     1       2.975   7.786  18.106  0.00  0.00    +0.000 C 
ATOM     20  O   UNL     1       3.072   7.913  16.856  0.00  0.00    +0.000 OA
ATOM     21  N   UNL     1       2.147   8.632  18.783  0.00  0.00    +0.000 N 
ATOM     22  C   UNL     1       1.364   9.592  18.000  0.00  0.00    +0.000 C 
ATOM     23  C   UNL     1      -0.094   9.562  18.436  0.00  0.00    +0.000 C 
ATOM     24  N   UNL     1      -0.177   9.761  19.888  0.00  0.00    +0.000 N 
ATOM     25  C   UNL     1       0.651   8.894  20.742  0.00  0.00    +0.000 C 
ATOM     26  C   UNL     1       2.105   8.851  20.230  0.00  0.00    +0.000 C 
BRANCH  24  27
ATOM     27  C   UNL     1      -0.879  10.828  20.392  0.00  0.00    +0.000 A 
ATOM     28  C   UNL     1      -0.878  11.123  21.761  0.00  0.00    +0.000 A 
ATOM     29  C   UNL     1      -1.677  12.145  22.271  0.00  0.00    +0.000 A 
ATOM     30  C   UNL     1      -2.461  12.898  21.401  0.00  0.00    +0.000 A 
ATOM     31  F   UNL     1      -3.252  13.856  21.893  0.00  0.00    +0.000 F 
ATOM     32  C   UNL     1      -2.437  12.665  20.038  0.00  0.00    +0.000 A 
ATOM     33  C   UNL     1      -1.648  11.636  19.540  0.00  0.00    +0.000 A 
ENDBRANCH  24  27
ENDBRANCH  18  19
ENDBRANCH   9  18
TORSDOF 4
ENDMDL
