MODEL 1
REMARK VINA RESULT:      -8.2      0.000      0.000
REMARK  Name = 
REMARK  10 active torsions:
REMARK  status: ('A' for Active; 'I' for Inactive)
REMARK    1  A    between atoms: C_2  and  C_3
REMARK    2  A    between atoms: C_3  and  O_4
REMARK    3  A    between atoms: O_4  and  C_5
REMARK    4  A    between atoms: C_8  and  S_9
REMARK    5  A    between atoms: S_9  and  N_12
REMARK    6  A    between atoms: N_12  and  C_13
REMARK    7  A    between atoms: C_13  and  C_14
REMARK    8  A    between atoms: C_14  and  C_15
REMARK    9  A    between atoms: N_23  and  C_24
REMARK   10  A    between atoms: C_24  and  C_25
REMARK                            x       y       z     vdW  Elec       q    Type
REMARK                         _______ _______ _______ _____ _____    ______ ____
ROOT
ATOM      1  C   UNL     1       2.453   7.682  18.815  0.00  0.00    +0.000 A 
ATOM      2  C   UNL     1       2.775   6.635  19.677  0.00  0.00    +0.000 A 
ATOM      3  C   UNL     1       3.829   5.777  19.379  0.00  0.00    +0.000 A 
ATOM      4  C   UNL     1       4.519   5.913  18.173  0.00  0.00    +0.000 A 
ATOM      5  C   UNL     1       4.186   6.933  17.280  0.00  0.00    +0.000 A 
ATOM      6  C   UNL     1       3.148   7.816  17.607  0.00  0.00    +0.000 A 
ENDROOT
BRANCH   4   7
ATOM      7  S   UNL     1       5.813   4.759  17.793  0.00  0.00    +0.000 S 
ATOM      8  O   UNL     1       6.776   5.455  16.964  0.00  0.00    +0.000 OA
ATOM      9  O   UNL     1       6.208   4.076  19.006  0.00  0.00    +0.000 OA
BRANCH   7  10
ATOM     10  N   UNL     1       5.060   3.633  16.789  0.00  0.00    +0.000 NA
ATOM     11  H   UNL     1       5.667   3.421  15.995  0.00  0.00    +0.000 HD
BRANCH  10  12
ATOM     12  C   UNL     1       4.360   2.476  17.387  0.00  0.00    +0.000 C 
BRANCH  12  13
ATOM     13  C   UNL     1       2.850   2.681  17.451  0.00  0.00    +0.000 C 
BRANCH  13  14
ATOM     14  C   UNL     1       2.327   2.806  18.855  0.00  0.00    +0.000 A 
ATOM     15  C   UNL     1       3.143   2.434  19.935  0.00  0.00    +0.000 A 
ATOM     16  C   UNL     1       2.686   2.574  21.243  0.00  0.00    +0.000 A 
ATOM     17  C   UNL     1       1.411   3.079  21.483  0.00  0.00    +0.000 A 
ATOM     18  C   UNL     1       0.592   3.445  20.414  0.00  0.00    +0.000 A 
ATOM     19  C   UNL     1       1.047   3.309  19.103  0.00  0.00    +0.000 A 
ENDBRANCH  13  14
ENDBRANCH  12  13
ENDBRANCH  10  12
ENDBRANCH   7  10
ENDBRANCH   4   7
BRANCH   1  20
ATOM     20  O   UNL     1       1.446   8.579  19.048  0.00  0.00    +0.000 OA
BRANCH  20  21
ATOM     21  C   UNL     1       1.128   8.826  20.421  0.00  0.00    +0.000 C 
BRANCH  21  23
ATOM     22  O   UNL     1      -0.630   9.920  21.675  0.00  0.00    +0.000 OA
ATOM     23  C   UNL     1      -0.054   9.780  20.601  0.00  0.00    +0.000 C 
ATOM     24  N   UNL     1      -0.440  10.395  19.435  0.00  0.00    +0.000 N 
ATOM     25  H   UNL     1       0.086  10.185  18.594  0.00  0.00    +0.000 HD
BRANCH  24  26
ATOM     26  C   UNL     1      -1.591  11.255  19.339  0.00  0.00    +0.000 C 
BRANCH  26  27
ATOM     27  C   UNL     1      -2.366  10.929  18.086  0.00  0.00    +0.000 A 
ATOM     28  C   UNL     1      -1.842  10.029  17.145  0.00  0.00    +0.000 A 
ATOM     29  C   UNL     1      -2.530   9.772  15.958  0.00  0.00    +0.000 A 
ATOM     30  C   UNL     1      -3.732  10.423  15.707  0.00  0.00    +0.000 A 
ATOM     31  F   UNL     1      -4.384  10.186  14.562  0.00  0.00    +0.000 F 
ATOM     32  C   UNL     1      -4.265  11.321  16.624  0.00  0.00    +0.000 A 
ATOM     33  C   UNL     1      -3.581  11.579  17.813  0.00  0.00    +0.000 A 
ENDBRANCH  26  27
ENDBRANCH  24  26
ENDBRANCH  21  23
ENDBRANCH  20  21
ENDBRANCH   1  20
TORSDOF 10
ENDMDL
MODEL 2
REMARK VINA RESULT:      -8.1      2.147      3.704
REMARK  Name = 
REMARK  10 active torsions:
REMARK  status: ('A' for Active; 'I' for Inactive)
REMARK    1  A    between atoms: C_2  and  C_3
REMARK    2  A    between atoms: C_3  and  O_4
REMARK    3  A    between atoms: O_4  and  C_5
REMARK    4  A    between atoms: C_8  and  S_9
REMARK    5  A    between atoms: S_9  and  N_12
REMARK    6  A    between atoms: N_12  and  C_13
REMARK    7  A    between atoms: C_13  and  C_14
REMARK    8  A    between atoms: C_14  and  C_15
REMARK    9  A    between atoms: N_23  and  C_24
REMARK   10  A    between atoms: C_24  and  C_25
REMARK                            x       y       z     vdW  Elec       q    Type
REMARK                         _______ _______ _______ _____ _____    ______ ____
ROOT
ATOM      1  C   UNL     1       2.034   7.055  20.019  0.00  0.00    +0.000 A 
ATOM      2  C   UNL     1       2.673   7.055  18.780  0.00  0.00    +0.000 A 
ATOM      3  C   UNL     1       2.944   5.856  18.128  0.00  0.00    +0.000 A 
ATOM      4  C   UNL     1       2.649   4.641  18.750  0.00  0.00    +0.000 A 
ATOM      5  C   UNL     1       2.043   4.621  20.008  0.00  0.00    +0.000 A 
ATOM      6  C   UNL     1       1.739   5.835  20.640  0.00  0.00    +0.000 A 
ENDROOT
BRANCH   4   7
ATOM      7  S   UNL     1       3.070   3.130  17.920  0.00  0.00    +0.000 S 
ATOM      8  O   UNL     1       3.066   2.080  18.918  0.00  0.00    +0.000 OA
ATOM      9  O   UNL     1       2.291   3.026  16.705  0.00  0.00    +0.000 OA
BRANCH   7  10
ATOM     10  N   UNL     1       4.683   3.353  17.482  0.00  0.00    +0.000 NA
ATOM     11  H   UNL     1       5.244   2.574  17.831  0.00  0.00    +0.000 HD
BRANCH  10  12
ATOM     12  C   UNL     1       5.010   3.816  16.116  0.00  0.00    +0.000 C 
BRANCH  12  13
ATOM     13  C   UNL     1       6.497   4.110  15.943  0.00  0.00    +0.000 C 
BRANCH  13  14
ATOM     14  C   UNL     1       7.011   5.151  16.899  0.00  0.00    +0.000 A 
ATOM     15  C   UNL     1       7.593   4.751  18.112  0.00  0.00    +0.000 A 
ATOM     16  C   UNL     1       8.103   5.700  18.994  0.00  0.00    +0.000 A 
ATOM     17  C   UNL     1       8.029   7.054  18.676  0.00  0.00    +0.000 A 
ATOM     18  C   UNL     1       7.445   7.459  17.475  0.00  0.00    +0.000 A 
ATOM     19  C   UNL     1       6.937   6.511  16.588  0.00  0.00    +0.000 A 
ENDBRANCH  13  14
ENDBRANCH  12  13
ENDBRANCH  10  12
ENDBRANCH   7  10
ENDBRANCH   4   7
BRANCH   1  20
ATOM     20  O   UNL     1       1.716   8.191  20.713  0.00  0.00    +0.000 OA
BRANCH  20  21
ATOM     21  C   UNL     1       1.410   9.345  19.924  0.00  0.00    +0.000 C 
BRANCH  21  23
ATOM     22  O   UNL     1      -0.609   9.635  21.228  0.00  0.00    +0.000 OA
ATOM     23  C   UNL     1       0.024   9.921  20.216  0.00  0.00    +0.000 C 
ATOM     24  N   UNL     1      -0.458  10.720  19.207  0.00  0.00    +0.000 N 
ATOM     25  H   UNL     1       0.135  10.867  18.398  0.00  0.00    +0.000 HD
BRANCH  24  26
ATOM     26  C   UNL     1      -1.781  11.288  19.213  0.00  0.00    +0.000 C 
BRANCH  26  27
ATOM     27  C   UNL     1      -2.495  10.926  17.934  0.00  0.00    +0.000 A 
ATOM     28  C   UNL     1      -1.899  10.048  17.016  0.00  0.00    +0.000 A 
ATOM     29  C   UNL     1      -2.532   9.759  15.806  0.00  0.00    +0.000 A 
ATOM     30  C   UNL     1      -3.752  10.356  15.510  0.00  0.00    +0.000 A 
ATOM     31  F   UNL     1      -4.351  10.089  14.343  0.00  0.00    +0.000 F 
ATOM     32  C   UNL     1      -4.355  11.233  16.404  0.00  0.00    +0.000 A 
ATOM     33  C   UNL     1      -3.726  11.522  17.616  0.00  0.00    +0.000 A 
ENDBRANCH  26  27
ENDBRANCH  24  26
ENDBRANCH  21  23
ENDBRANCH  20  21
ENDBRANCH   1  20
TORSDOF 10
ENDMDL
MODEL 3
REMARK VINA RESULT:      -8.1      0.921      1.293
REMARK  Name = 
REMARK  10 active torsions:
REMARK  status: ('A' for Active; 'I' for Inactive)
REMARK    1  A    between atoms: C_2  and  C_3
REMARK    2  A    between atoms: C_3  and  O_4
REMARK    3  A    between atoms: O_4  and  C_5
REMARK    4  A    between atoms: C_8  and  S_9
REMARK    5  A    between atoms: S_9  and  N_12
REMARK    6  A    between atoms: N_12  and  C_13
REMARK    7  A    between atoms: C_13  and  C_14
REMARK    8  A    between atoms: C_14  and  C_15
REMARK    9  A    between atoms: N_23  and  C_24
REMARK   10  A    between atoms: C_24  and  C_25
REMARK                            x       y       z     vdW  Elec       q    Type
REMARK                         _______ _______ _______ _____ _____    ______ ____
ROOT
ATOM      1  C   UNL     1       2.247   7.850  18.832  0.00  0.00    +0.000 A 
ATOM      2  C   UNL     1       3.045   8.026  17.703  0.00  0.00    +0.000 A 
ATOM      3  C   UNL     1       4.049   7.111  17.401  0.00  0.00    +0.000 A 
ATOM      4  C   UNL     1       4.313   6.053  18.273  0.00  0.00    +0.000 A 
ATOM      5  C   UNL     1       3.548   5.882  19.428  0.00  0.00    +0.000 A 
ATOM      6  C   UNL     1       2.514   6.787  19.704  0.00  0.00    +0.000 A 
ENDROOT
BRANCH   4   7
ATOM      7  S   UNL     1       5.645   4.943  17.892  0.00  0.00    +0.000 S 
ATOM      8  O   UNL     1       6.651   5.710  17.185  0.00  0.00    +0.000 OA
ATOM      9  O   UNL     1       5.968   4.172  19.073  0.00  0.00    +0.000 OA
BRANCH   7  10
ATOM     10  N   UNL     1       4.974   3.892  16.757  0.00  0.00    +0.000 NA
ATOM     11  H   UNL     1       5.639   3.146  16.546  0.00  0.00    +0.000 HD
BRANCH  10  12
ATOM     12  C   UNL     1       3.563   3.472  16.896  0.00  0.00    +0.000 C 
BRANCH  12  13
ATOM     13  C   UNL     1       3.409   2.242  17.786  0.00  0.00    +0.000 C 
BRANCH  13  14
ATOM     14  C   UNL     1       2.662   2.522  19.060  0.00  0.00    +0.000 A 
ATOM     15  C   UNL     1       3.309   2.359  20.294  0.00  0.00    +0.000 A 
ATOM     16  C   UNL     1       2.642   2.645  21.482  0.00  0.00    +0.000 A 
ATOM     17  C   UNL     1       1.322   3.088  21.448  0.00  0.00    +0.000 A 
ATOM     18  C   UNL     1       0.669   3.246  20.224  0.00  0.00    +0.000 A 
ATOM     19  C   UNL     1       1.336   2.964  19.033  0.00  0.00    +0.000 A 
ENDBRANCH  13  14
ENDBRANCH  12  13
ENDBRANCH  10  12
ENDBRANCH   7  10
ENDBRANCH   4   7
BRANCH   1  20
ATOM     20  O   UNL     1       1.228   8.694  19.185  0.00  0.00    +0.000 OA
BRANCH  20  21
ATOM     21  C   UNL     1       1.593  10.057  19.419  0.00  0.00    +0.000 C 
BRANCH  21  23
ATOM     22  O   UNL     1       0.706  12.207  18.744  0.00  0.00    +0.000 OA
ATOM     23  C   UNL     1       0.480  11.045  19.068  0.00  0.00    +0.000 C 
ATOM     24  N   UNL     1      -0.782  10.522  19.224  0.00  0.00    +0.000 N 
ATOM     25  H   UNL     1      -0.858   9.557  19.526  0.00  0.00    +0.000 HD
BRANCH  24  26
ATOM     26  C   UNL     1      -1.984  11.295  19.052  0.00  0.00    +0.000 C 
BRANCH  26  27
ATOM     27  C   UNL     1      -2.650  10.918  17.752  0.00  0.00    +0.000 A 
ATOM     28  C   UNL     1      -2.044   9.989  16.891  0.00  0.00    +0.000 A 
ATOM     29  C   UNL     1      -2.628   9.684  15.661  0.00  0.00    +0.000 A 
ATOM     30  C   UNL     1      -3.810  10.314  15.288  0.00  0.00    +0.000 A 
ATOM     31  F   UNL     1      -4.362  10.031  14.101  0.00  0.00    +0.000 F 
ATOM     32  C   UNL     1      -4.422  11.241  16.123  0.00  0.00    +0.000 A 
ATOM     33  C   UNL     1      -3.841  11.547  17.355  0.00  0.00    +0.000 A 
ENDBRANCH  26  27
ENDBRANCH  24  26
ENDBRANCH  21  23
ENDBRANCH  20  21
ENDBRANCH   1  20
TORSDOF 10
ENDMDL
MODEL 4
REMARK VINA RESULT:      -7.9      0.987      1.677
REMARK  Name = 
REMARK  10 active torsions:
REMARK  status: ('A' for Active; 'I' for Inactive)
REMARK    1  A    between atoms: C_2  and  C_3
REMARK    2  A    between atoms: C_3  and  O_4
REMARK    3  A    between atoms: O_4  and  C_5
REMARK    4  A    between atoms: C_8  and  S_9
REMARK    5  A    between atoms: S_9  and  N_12
REMARK    6  A    between atoms: N_12  and  C_13
REMARK    7  A    between atoms: C_13  and  C_14
REMARK    8  A    between atoms: C_14  and  C_15
REMARK    9  A    between atoms: N_23  and  C_24
REMARK   10  A    between atoms: C_24  and  C_25
REMARK                            x       y       z     vdW  Elec       q    Type
REMARK                         _______ _______ _______ _____ _____    ______ ____
ROOT
ATOM      1  C   UNL     1       2.457   7.295  19.110  0.00  0.00    +0.000 A 
ATOM      2  C   UNL     1       3.036   7.600  17.880  0.00  0.00    +0.000 A 
ATOM      3  C   UNL     1       4.130   6.874  17.418  0.00  0.00    +0.000 A 
ATOM      4  C   UNL     1       4.703   5.889  18.224  0.00  0.00    +0.000 A 
ATOM      5  C   UNL     1       4.160   5.596  19.476  0.00  0.00    +0.000 A 
ATOM      6  C   UNL     1       3.035   6.306  19.916  0.00  0.00    +0.000 A 
ENDROOT
BRANCH   4   7
ATOM      7  S   UNL     1       6.140   5.030  17.633  0.00  0.00    +0.000 S 
ATOM      8  O   UNL     1       6.563   5.693  16.416  0.00  0.00    +0.000 OA
ATOM      9  O   UNL     1       7.050   4.816  18.737  0.00  0.00    +0.000 OA
BRANCH   7  10
ATOM     10  N   UNL     1       5.538   3.527  17.161  0.00  0.00    +0.000 NA
ATOM     11  H   UNL     1       6.021   2.788  17.675  0.00  0.00    +0.000 HD
BRANCH  10  12
ATOM     12  C   UNL     1       4.080   3.345  16.994  0.00  0.00    +0.000 C 
BRANCH  12  13
ATOM     13  C   UNL     1       3.552   2.145  17.774  0.00  0.00    +0.000 C 
BRANCH  13  14
ATOM     14  C   UNL     1       2.772   2.531  18.999  0.00  0.00    +0.000 A 
ATOM     15  C   UNL     1       1.504   3.116  18.859  0.00  0.00    +0.000 A 
ATOM     16  C   UNL     1       0.754   3.450  19.984  0.00  0.00    +0.000 A 
ATOM     17  C   UNL     1       1.267   3.209  21.256  0.00  0.00    +0.000 A 
ATOM     18  C   UNL     1       2.530   2.634  21.403  0.00  0.00    +0.000 A 
ATOM     19  C   UNL     1       3.281   2.296  20.279  0.00  0.00    +0.000 A 
ENDBRANCH  13  14
ENDBRANCH  12  13
ENDBRANCH  10  12
ENDBRANCH   7  10
ENDBRANCH   4   7
BRANCH   1  20
ATOM     20  O   UNL     1       1.368   7.948  19.624  0.00  0.00    +0.000 OA
BRANCH  20  21
ATOM     21  C   UNL     1       1.484   8.395  20.978  0.00  0.00    +0.000 C 
BRANCH  21  23
ATOM     22  O   UNL     1       0.704  10.236  22.343  0.00  0.00    +0.000 OA
ATOM     23  C   UNL     1       0.817   9.749  21.222  0.00  0.00    +0.000 C 
ATOM     24  N   UNL     1       0.301  10.315  20.081  0.00  0.00    +0.000 N 
ATOM     25  H   UNL     1       0.422   9.814  19.209  0.00  0.00    +0.000 HD
BRANCH  24  26
ATOM     26  C   UNL     1      -0.461  11.538  20.081  0.00  0.00    +0.000 C 
BRANCH  26  27
ATOM     27  C   UNL     1      -1.742  11.338  19.310  0.00  0.00    +0.000 A 
ATOM     28  C   UNL     1      -1.809  10.378  18.288  0.00  0.00    +0.000 A 
ATOM     29  C   UNL     1      -2.975  10.233  17.533  0.00  0.00    +0.000 A 
ATOM     30  C   UNL     1      -4.065  11.056  17.792  0.00  0.00    +0.000 A 
ATOM     31  F   UNL     1      -5.178  10.926  17.058  0.00  0.00    +0.000 F 
ATOM     32  C   UNL     1      -4.016  12.016  18.795  0.00  0.00    +0.000 A 
ATOM     33  C   UNL     1      -2.853  12.162  19.553  0.00  0.00    +0.000 A 
ENDBRANCH  26  27
ENDBRANCH  24  26
ENDBRANCH  21  23
ENDBRANCH  20  21
ENDBRANCH   1  20
TORSDOF 10
ENDMDL
MODEL 5
REMARK VINA RESULT:      -7.9      2.642      3.442
REMARK  Name = 
REMARK  10 active torsions:
REMARK  status: ('A' for Active; 'I' for Inactive)
REMARK    1  A    between atoms: C_2  and  C_3
REMARK    2  A    between atoms: C_3  and  O_4
REMARK    3  A    between atoms: O_4  and  C_5
REMARK    4  A    between atoms: C_8  and  S_9
REMARK    5  A    between atoms: S_9  and  N_12
REMARK    6  A    between atoms: N_12  and  C_13
REMARK    7  A    between atoms: C_13  and  C_14
REMARK    8  A    between atoms: C_14  and  C_15
REMARK    9  A    between atoms: N_23  and  C_24
REMARK   10  A    between atoms: C_24  and  C_25
REMARK                            x       y       z     vdW  Elec       q    Type
REMARK                         _______ _______ _______ _____ _____    ______ ____
ROOT
ATOM      1  C   UNL     1       2.315   7.731  18.673  0.00  0.00    +0.000 A 
ATOM      2  C   UNL     1       3.162   7.854  17.573  0.00  0.00    +0.000 A 
ATOM      3  C   UNL     1       4.198   6.946  17.378  0.00  0.00    +0.000 A 
ATOM      4  C   UNL     1       4.443   5.954  18.329  0.00  0.00    +0.000 A 
ATOM      5  C   UNL     1       3.628   5.839  19.457  0.00  0.00    +0.000 A 
ATOM      6  C   UNL     1       2.563   6.734  19.625  0.00  0.00    +0.000 A 
ENDROOT
BRANCH   4   7
ATOM      7  S   UNL     1       5.815   4.854  18.084  0.00  0.00    +0.000 S 
ATOM      8  O   UNL     1       6.847   5.606  17.398  0.00  0.00    +0.000 OA
ATOM      9  O   UNL     1       6.083   4.150  19.319  0.00  0.00    +0.000 OA
BRANCH   7  10
ATOM     10  N   UNL     1       5.232   3.734  16.967  0.00  0.00    +0.000 NA
ATOM     11  H   UNL     1       5.883   2.950  16.896  0.00  0.00    +0.000 HD
BRANCH  10  12
ATOM     12  C   UNL     1       3.797   3.377  16.973  0.00  0.00    +0.000 C 
BRANCH  12  13
ATOM     13  C   UNL     1       3.508   2.152  17.835  0.00  0.00    +0.000 C 
BRANCH  13  14
ATOM     14  C   UNL     1       2.713   2.470  19.071  0.00  0.00    +0.000 A 
ATOM     15  C   UNL     1       3.322   2.372  20.332  0.00  0.00    +0.000 A 
ATOM     16  C   UNL     1       2.610   2.695  21.484  0.00  0.00    +0.000 A 
ATOM     17  C   UNL     1       1.284   3.110  21.388  0.00  0.00    +0.000 A 
ATOM     18  C   UNL     1       0.670   3.202  20.138  0.00  0.00    +0.000 A 
ATOM     19  C   UNL     1       1.381   2.883  18.982  0.00  0.00    +0.000 A 
ENDBRANCH  13  14
ENDBRANCH  12  13
ENDBRANCH  10  12
ENDBRANCH   7  10
ENDBRANCH   4   7
BRANCH   1  20
ATOM     20  O   UNL     1       1.262   8.571  18.923  0.00  0.00    +0.000 OA
BRANCH  20  21
ATOM     21  C   UNL     1       1.406   9.916  18.456  0.00  0.00    +0.000 C 
BRANCH  21  23
ATOM     22  O   UNL     1      -0.930  10.417  18.064  0.00  0.00    +0.000 OA
ATOM     23  C   UNL     1       0.126  10.740  18.599  0.00  0.00    +0.000 C 
ATOM     24  N   UNL     1       0.302  11.899  19.317  0.00  0.00    +0.000 N 
ATOM     25  H   UNL     1       1.224  12.086  19.692  0.00  0.00    +0.000 HD
BRANCH  24  26
ATOM     26  C   UNL     1      -0.735  12.882  19.495  0.00  0.00    +0.000 C 
BRANCH  26  27
ATOM     27  C   UNL     1      -1.507  12.585  20.756  0.00  0.00    +0.000 A 
ATOM     28  C   UNL     1      -2.865  12.929  20.851  0.00  0.00    +0.000 A 
ATOM     29  C   UNL     1      -3.566  12.708  22.038  0.00  0.00    +0.000 A 
ATOM     30  C   UNL     1      -2.907  12.157  23.131  0.00  0.00    +0.000 A 
ATOM     31  F   UNL     1      -3.577  11.960  24.273  0.00  0.00    +0.000 F 
ATOM     32  C   UNL     1      -1.562  11.816  23.059  0.00  0.00    +0.000 A 
ATOM     33  C   UNL     1      -0.859  12.033  21.873  0.00  0.00    +0.000 A 
ENDBRANCH  26  27
ENDBRANCH  24  26
ENDBRANCH  21  23
ENDBRANCH  20  21
ENDBRANCH   1  20
TORSDOF 10
ENDMDL
MODEL 6
REMARK VINA RESULT:      -7.9      2.164      3.728
REMARK  Name = 
REMARK  10 active torsions:
REMARK  status: ('A' for Active; 'I' for Inactive)
REMARK    1  A    between atoms: C_2  and  C_3
REMARK    2  A    between atoms: C_3  and  O_4
REMARK    3  A    between atoms: O_4  and  C_5
REMARK    4  A    between atoms: C_8  and  S_9
REMARK    5  A    between atoms: S_9  and  N_12
REMARK    6  A    between atoms: N_12  and  C_13
REMARK    7  A    between atoms: C_13  and  C_14
REMARK    8  A    between atoms: C_14  and  C_15
REMARK    9  A    between atoms: N_23  and  C_24
REMARK   10  A    between atoms: C_24  and  C_25
REMARK                            x       y       z     vdW  Elec       q    Type
REMARK                         _______ _______ _______ _____ _____    ______ ____
ROOT
ATOM      1  C   UNL     1       2.123   7.142  19.725  0.00  0.00    +0.000 A 
ATOM      2  C   UNL     1       1.722   6.007  20.427  0.00  0.00    +0.000 A 
ATOM      3  C   UNL     1       2.054   4.738  19.962  0.00  0.00    +0.000 A 
ATOM      4  C   UNL     1       2.723   4.595  18.745  0.00  0.00    +0.000 A 
ATOM      5  C   UNL     1       3.100   5.720  18.009  0.00  0.00    +0.000 A 
ATOM      6  C   UNL     1       2.795   6.995  18.505  0.00  0.00    +0.000 A 
ENDROOT
BRANCH   4   7
ATOM      7  S   UNL     1       3.071   2.960  18.147  0.00  0.00    +0.000 S 
ATOM      8  O   UNL     1       3.101   2.082  19.299  0.00  0.00    +0.000 OA
ATOM      9  O   UNL     1       2.228   2.686  17.005  0.00  0.00    +0.000 OA
BRANCH   7  10
ATOM     10  N   UNL     1       4.663   3.067  17.600  0.00  0.00    +0.000 NA
ATOM     11  H   UNL     1       5.123   2.161  17.706  0.00  0.00    +0.000 HD
BRANCH  10  12
ATOM     12  C   UNL     1       4.955   3.792  16.345  0.00  0.00    +0.000 C 
BRANCH  12  13
ATOM     13  C   UNL     1       6.448   4.040  16.152  0.00  0.00    +0.000 C 
BRANCH  13  14
ATOM     14  C   UNL     1       6.978   5.158  17.006  0.00  0.00    +0.000 A 
ATOM     15  C   UNL     1       7.476   4.875  18.288  0.00  0.00    +0.000 A 
ATOM     16  C   UNL     1       8.000   5.894  19.079  0.00  0.00    +0.000 A 
ATOM     17  C   UNL     1       8.026   7.202  18.601  0.00  0.00    +0.000 A 
ATOM     18  C   UNL     1       7.526   7.491  17.330  0.00  0.00    +0.000 A 
ATOM     19  C   UNL     1       7.003   6.473  16.534  0.00  0.00    +0.000 A 
ENDBRANCH  13  14
ENDBRANCH  12  13
ENDBRANCH  10  12
ENDBRANCH   7  10
ENDBRANCH   4   7
BRANCH   1  20
ATOM     20  O   UNL     1       1.854   8.423  20.128  0.00  0.00    +0.000 OA
BRANCH  20  21
ATOM     21  C   UNL     1       1.015   8.557  21.279  0.00  0.00    +0.000 C 
BRANCH  21  23
ATOM     22  O   UNL     1       0.147  10.566  22.313  0.00  0.00    +0.000 OA
ATOM     23  C   UNL     1       0.237   9.873  21.304  0.00  0.00    +0.000 C 
ATOM     24  N   UNL     1      -0.398  10.154  20.119  0.00  0.00    +0.000 N 
ATOM     25  H   UNL     1      -0.282   9.498  19.355  0.00  0.00    +0.000 HD
BRANCH  24  26
ATOM     26  C   UNL     1      -1.271  11.285  19.939  0.00  0.00    +0.000 C 
BRANCH  26  27
ATOM     27  C   UNL     1      -2.066  11.117  18.668  0.00  0.00    +0.000 A 
ATOM     28  C   UNL     1      -3.366  11.636  18.573  0.00  0.00    +0.000 A 
ATOM     29  C   UNL     1      -4.125  11.430  17.420  0.00  0.00    +0.000 A 
ATOM     30  C   UNL     1      -3.589  10.695  16.369  0.00  0.00    +0.000 A 
ATOM     31  F   UNL     1      -4.323  10.486  15.269  0.00  0.00    +0.000 F 
ATOM     32  C   UNL     1      -2.306  10.167  16.446  0.00  0.00    +0.000 A 
ATOM     33  C   UNL     1      -1.544  10.373  17.597  0.00  0.00    +0.000 A 
ENDBRANCH  26  27
ENDBRANCH  24  26
ENDBRANCH  21  23
ENDBRANCH  20  21
ENDBRANCH   1  20
TORSDOF 10
ENDMDL
MODEL 7
REMARK VINA RESULT:      -7.9      1.039      1.719
REMARK  Name = 
REMARK  10 active torsions:
REMARK  status: ('A' for Active; 'I' for Inactive)
REMARK    1  A    between atoms: C_2  and  C_3
REMARK    2  A    between atoms: C_3  and  O_4
REMARK    3  A    between atoms: O_4  and  C_5
REMARK    4  A    between atoms: C_8  and  S_9
REMARK    5  A    between atoms: S_9  and  N_12
REMARK    6  A    between atoms: N_12  and  C_13
REMARK    7  A    between atoms: C_13  and  C_14
REMARK    8  A    between atoms: C_14  and  C_15
REMARK    9  A    between atoms: N_23  and  C_24
REMARK   10  A    between atoms: C_24  and  C_25
REMARK                            x       y       z     vdW  Elec       q    Type
REMARK                         _______ _______ _______ _____ _____    ______ ____
ROOT
ATOM      1  C   UNL     1       2.285   7.333  19.283  0.00  0.00    +0.000 A 
ATOM      2  C   UNL     1       2.863   7.677  18.062  0.00  0.00    +0.000 A 
ATOM      3  C   UNL     1       3.928   6.939  17.555  0.00  0.00    +0.000 A 
ATOM      4  C   UNL     1       4.474   5.897  18.306  0.00  0.00    +0.000 A 
ATOM      5  C   UNL     1       3.932   5.562  19.548  0.00  0.00    +0.000 A 
ATOM      6  C   UNL     1       2.835   6.286  20.034  0.00  0.00    +0.000 A 
ENDROOT
BRANCH   4   7
ATOM      7  S   UNL     1       5.876   5.019  17.659  0.00  0.00    +0.000 S 
ATOM      8  O   UNL     1       6.208   5.625  16.386  0.00  0.00    +0.000 OA
ATOM      9  O   UNL     1       6.861   4.866  18.708  0.00  0.00    +0.000 OA
BRANCH   7  10
ATOM     10  N   UNL     1       5.258   3.491  17.304  0.00  0.00    +0.000 NA
ATOM     11  H   UNL     1       5.654   2.803  17.947  0.00  0.00    +0.000 HD
BRANCH  10  12
ATOM     12  C   UNL     1       3.818   3.338  17.007  0.00  0.00    +0.000 C 
BRANCH  12  13
ATOM     13  C   UNL     1       3.209   2.123  17.702  0.00  0.00    +0.000 C 
BRANCH  13  14
ATOM     14  C   UNL     1       2.548   2.457  19.010  0.00  0.00    +0.000 A 
ATOM     15  C   UNL     1       3.256   2.280  20.209  0.00  0.00    +0.000 A 
ATOM     16  C   UNL     1       2.670   2.615  21.428  0.00  0.00    +0.000 A 
ATOM     17  C   UNL     1       1.373   3.122  21.459  0.00  0.00    +0.000 A 
ATOM     18  C   UNL     1       0.661   3.293  20.271  0.00  0.00    +0.000 A 
ATOM     19  C   UNL     1       1.246   2.962  19.050  0.00  0.00    +0.000 A 
ENDBRANCH  13  14
ENDBRANCH  12  13
ENDBRANCH  10  12
ENDBRANCH   7  10
ENDBRANCH   4   7
BRANCH   1  20
ATOM     20  O   UNL     1       1.224   7.996  19.838  0.00  0.00    +0.000 OA
BRANCH  20  21
ATOM     21  C   UNL     1       1.461   8.609  21.109  0.00  0.00    +0.000 C 
BRANCH  21  23
ATOM     22  O   UNL     1       0.467  10.439  22.345  0.00  0.00    +0.000 OA
ATOM     23  C   UNL     1       0.781   9.971  21.255  0.00  0.00    +0.000 C 
ATOM     24  N   UNL     1       0.498  10.570  20.051  0.00  0.00    +0.000 N 
ATOM     25  H   UNL     1       0.774  10.083  19.206  0.00  0.00    +0.000 HD
BRANCH  24  26
ATOM     26  C   UNL     1      -0.230  11.807  19.935  0.00  0.00    +0.000 C 
BRANCH  26  27
ATOM     27  C   UNL     1      -1.540  11.561  19.229  0.00  0.00    +0.000 A 
ATOM     28  C   UNL     1      -2.688  12.278  19.600  0.00  0.00    +0.000 A 
ATOM     29  C   UNL     1      -3.914  12.011  18.989  0.00  0.00    +0.000 A 
ATOM     30  C   UNL     1      -3.994  11.019  18.018  0.00  0.00    +0.000 A 
ATOM     31  F   UNL     1      -5.174  10.754  17.443  0.00  0.00    +0.000 F 
ATOM     32  C   UNL     1      -2.870  10.294  17.641  0.00  0.00    +0.000 A 
ATOM     33  C   UNL     1      -1.642  10.561  18.249  0.00  0.00    +0.000 A 
ENDBRANCH  26  27
ENDBRANCH  24  26
ENDBRANCH  21  23
ENDBRANCH  20  21
ENDBRANCH   1  20
TORSDOF 10
ENDMDL
MODEL 8
REMARK VINA RESULT:      -7.8      2.577      3.140
REMARK  Name = 
REMARK  10 active torsions:
REMARK  status: ('A' for Active; 'I' for Inactive)
REMARK    1  A    between atoms: C_2  and  C_3
REMARK    2  A    between atoms: C_3  and  O_4
REMARK    3  A    between atoms: O_4  and  C_5
REMARK    4  A    between atoms: C_8  and  S_9
REMARK    5  A    between atoms: S_9  and  N_12
REMARK    6  A    between atoms: N_12  and  C_13
REMARK    7  A    between atoms: C_13  and  C_14
REMARK    8  A    between atoms: C_14  and  C_15
REMARK    9  A    between atoms: N_23  and  C_24
REMARK   10  A    between atoms: C_24  and  C_25
REMARK                            x       y       z     vdW  Elec       q    Type
REMARK                         _______ _______ _______ _____ _____    ______ ____
ROOT
ATOM      1  C   UNL     1       2.426   7.483  19.280  0.00  0.00    +0.000 A 
ATOM      2  C   UNL     1       2.939   6.392  19.979  0.00  0.00    +0.000 A 
ATOM      3  C   UNL     1       3.973   5.633  19.438  0.00  0.00    +0.000 A 
ATOM      4  C   UNL     1       4.447   5.914  18.155  0.00  0.00    +0.000 A 
ATOM      5  C   UNL     1       3.918   6.980  17.425  0.00  0.00    +0.000 A 
ATOM      6  C   UNL     1       2.904   7.762  17.993  0.00  0.00    +0.000 A 
ENDROOT
BRANCH   4   7
ATOM      7  S   UNL     1       5.719   4.884  17.469  0.00  0.00    +0.000 S 
ATOM      8  O   UNL     1       6.017   5.397  16.147  0.00  0.00    +0.000 OA
ATOM      9  O   UNL     1       6.755   4.690  18.459  0.00  0.00    +0.000 OA
BRANCH   7  10
ATOM     10  N   UNL     1       4.947   3.403  17.233  0.00  0.00    +0.000 NA
ATOM     11  H   UNL     1       5.234   2.747  17.962  0.00  0.00    +0.000 HD
BRANCH  10  12
ATOM     12  C   UNL     1       3.513   3.377  16.874  0.00  0.00    +0.000 C 
BRANCH  12  13
ATOM     13  C   UNL     1       2.761   2.246  17.570  0.00  0.00    +0.000 C 
BRANCH  13  14
ATOM     14  C   UNL     1       2.316   2.597  18.962  0.00  0.00    +0.000 A 
ATOM     15  C   UNL     1       1.069   3.211  19.157  0.00  0.00    +0.000 A 
ATOM     16  C   UNL     1       0.628   3.513  20.443  0.00  0.00    +0.000 A 
ATOM     17  C   UNL     1       1.430   3.213  21.541  0.00  0.00    +0.000 A 
ATOM     18  C   UNL     1       2.674   2.610  21.354  0.00  0.00    +0.000 A 
ATOM     19  C   UNL     1       3.118   2.303  20.068  0.00  0.00    +0.000 A 
ENDBRANCH  13  14
ENDBRANCH  12  13
ENDBRANCH  10  12
ENDBRANCH   7  10
ENDBRANCH   4   7
BRANCH   1  20
ATOM     20  O   UNL     1       1.425   8.289  19.752  0.00  0.00    +0.000 OA
BRANCH  20  21
ATOM     21  C   UNL     1       1.165   8.211  21.157  0.00  0.00    +0.000 C 
BRANCH  21  23
ATOM     22  O   UNL     1       1.073   9.736  23.035  0.00  0.00    +0.000 OA
ATOM     23  C   UNL     1       1.027   9.583  21.818  0.00  0.00    +0.000 C 
ATOM     24  N   UNL     1       0.778  10.596  20.925  0.00  0.00    +0.000 N 
ATOM     25  H   UNL     1       0.730  10.357  19.941  0.00  0.00    +0.000 HD
BRANCH  24  26
ATOM     26  C   UNL     1       0.510  11.954  21.324  0.00  0.00    +0.000 C 
BRANCH  26  27
ATOM     27  C   UNL     1      -0.964  12.124  21.593  0.00  0.00    +0.000 A 
ATOM     28  C   UNL     1      -1.839  12.459  20.547  0.00  0.00    +0.000 A 
ATOM     29  C   UNL     1      -3.194  12.674  20.805  0.00  0.00    +0.000 A 
ATOM     30  C   UNL     1      -3.670  12.568  22.106  0.00  0.00    +0.000 A 
ATOM     31  F   UNL     1      -4.967  12.789  22.354  0.00  0.00    +0.000 F 
ATOM     32  C   UNL     1      -2.819  12.243  23.156  0.00  0.00    +0.000 A 
ATOM     33  C   UNL     1      -1.463  12.024  22.901  0.00  0.00    +0.000 A 
ENDBRANCH  26  27
ENDBRANCH  24  26
ENDBRANCH  21  23
ENDBRANCH  20  21
ENDBRANCH   1  20
TORSDOF 10
ENDMDL
MODEL 9
REMARK VINA RESULT:      -7.8      0.707      1.140
REMARK  Name = 
REMARK  10 active torsions:
REMARK  status: ('A' for Active; 'I' for Inactive)
REMARK    1  A    between atoms: C_2  and  C_3
REMARK    2  A    between atoms: C_3  and  O_4
REMARK    3  A    between atoms: O_4  and  C_5
REMARK    4  A    between atoms: C_8  and  S_9
REMARK    5  A    between atoms: S_9  and  N_12
REMARK    6  A    between atoms: N_12  and  C_13
REMARK    7  A    between atoms: C_13  and  C_14
REMARK    8  A    between atoms: C_14  and  C_15
REMARK    9  A    between atoms: N_23  and  C_24
REMARK   10  A    between atoms: C_24  and  C_25
REMARK                            x       y       z     vdW  Elec       q    Type
REMARK                         _______ _______ _______ _____ _____    ______ ____
ROOT
ATOM      1  C   UNL     1       2.386   7.181  19.355  0.00  0.00    +0.000 A 
ATOM      2  C   UNL     1       3.162   6.264  20.063  0.00  0.00    +0.000 A 
ATOM      3  C   UNL     1       4.271   5.672  19.468  0.00  0.00    +0.000 A 
ATOM      4  C   UNL     1       4.566   5.934  18.128  0.00  0.00    +0.000 A 
ATOM      5  C   UNL     1       3.778   6.821  17.392  0.00  0.00    +0.000 A 
ATOM      6  C   UNL     1       2.686   7.442  18.012  0.00  0.00    +0.000 A 
ENDROOT
BRANCH   4   7
ATOM      7  S   UNL     1       5.948   5.110  17.380  0.00  0.00    +0.000 S 
ATOM      8  O   UNL     1       6.459   5.987  16.346  0.00  0.00    +0.000 OA
ATOM      9  O   UNL     1       6.804   4.584  18.421  0.00  0.00    +0.000 OA
BRANCH   7  10
ATOM     10  N   UNL     1       5.246   3.802  16.579  0.00  0.00    +0.000 NA
ATOM     11  H   UNL     1       5.856   3.498  15.819  0.00  0.00    +0.000 HD
BRANCH  10  12
ATOM     12  C   UNL     1       4.612   2.721  17.365  0.00  0.00    +0.000 C 
BRANCH  12  13
ATOM     13  C   UNL     1       3.089   2.808  17.349  0.00  0.00    +0.000 C 
BRANCH  13  14
ATOM     14  C   UNL     1       2.487   2.924  18.721  0.00  0.00    +0.000 A 
ATOM     15  C   UNL     1       1.222   3.512  18.876  0.00  0.00    +0.000 A 
ATOM     16  C   UNL     1       0.636   3.598  20.137  0.00  0.00    +0.000 A 
ATOM     17  C   UNL     1       1.311   3.105  21.251  0.00  0.00    +0.000 A 
ATOM     18  C   UNL     1       2.572   2.526  21.105  0.00  0.00    +0.000 A 
ATOM     19  C   UNL     1       3.160   2.436  19.845  0.00  0.00    +0.000 A 
ENDBRANCH  13  14
ENDBRANCH  12  13
ENDBRANCH  10  12
ENDBRANCH   7  10
ENDBRANCH   4   7
BRANCH   1  20
ATOM     20  O   UNL     1       1.294   7.820  19.877  0.00  0.00    +0.000 OA
BRANCH  20  21
ATOM     21  C   UNL     1       1.504   8.523  21.106  0.00  0.00    +0.000 C 
BRANCH  21  23
ATOM     22  O   UNL     1       0.476  10.366  22.293  0.00  0.00    +0.000 OA
ATOM     23  C   UNL     1       0.656   9.790  21.224  0.00  0.00    +0.000 C 
ATOM     24  N   UNL     1       0.068  10.165  20.040  0.00  0.00    +0.000 N 
ATOM     25  H   UNL     1       0.258   9.601  19.220  0.00  0.00    +0.000 HD
BRANCH  24  26
ATOM     26  C   UNL     1      -0.854  11.265  19.929  0.00  0.00    +0.000 C 
BRANCH  26  27
ATOM     27  C   UNL     1      -1.803  11.020  18.782  0.00  0.00    +0.000 A 
ATOM     28  C   UNL     1      -1.453  10.131  17.754  0.00  0.00    +0.000 A 
ATOM     29  C   UNL     1      -2.303   9.948  16.662  0.00  0.00    +0.000 A 
ATOM     30  C   UNL     1      -3.494  10.661  16.593  0.00  0.00    +0.000 A 
ATOM     31  F   UNL     1      -4.302  10.496  15.538  0.00  0.00    +0.000 F 
ATOM     32  C   UNL     1      -3.855  11.551  17.598  0.00  0.00    +0.000 A 
ATOM     33  C   UNL     1      -3.008  11.734  18.692  0.00  0.00    +0.000 A 
ENDBRANCH  26  27
ENDBRANCH  24  26
ENDBRANCH  21  23
ENDBRANCH  20  21
ENDBRANCH   1  20
TORSDOF 10
ENDMDL
