MODEL 1
REMARK VINA RESULT:      -7.8      0.000      0.000
REMARK  Name = 
REMARK  9 active torsions:
REMARK  status: ('A' for Active; 'I' for Inactive)
REMARK    1  A    between atoms: C_1  and  O_2
REMARK    2  A    between atoms: O_2  and  C_3
REMARK    3  A    between atoms: C_6  and  O_7
REMARK    4  A    between atoms: O_7  and  C_8
REMARK    5  A    between atoms: C_8  and  C_9
REMARK    6  A    between atoms: C_14  and  C_15
REMARK    7  A    between atoms: C_18  and  O_19
REMARK    8  A    between atoms: O_19  and  C_20
REMARK    9  A    between atoms: C_23  and  C_24
REMARK                            x       y       z     vdW  Elec       q    Type
REMARK                         _______ _______ _______ _____ _____    ______ ____
ROOT
ATOM      1  C   UNL     1       0.176  10.012  19.735  0.00  0.00    +0.000 C 
ATOM      2  O   UNL     1      -0.398   9.290  20.550  0.00  0.00    +0.000 OA
ATOM      3  N   UNL     1       1.279   9.681  18.969  0.00  0.00    +0.000 N 
ATOM      4  C   UNL     1       1.936   8.471  19.037  0.00  0.00    +0.000 A 
ATOM      5  N   UNL     1       2.747   8.033  18.100  0.00  0.00    +0.000 NA
ATOM      6  C   UNL     1       3.153   6.723  18.393  0.00  0.00    +0.000 A 
ATOM      7  C   UNL     1       2.728   6.257  19.631  0.00  0.00    +0.000 A 
ATOM      8  C   UNL     1       2.907   4.974  20.365  0.00  0.00    +0.000 C 
ATOM      9  S   UNL     1       1.801   7.472  20.406  0.00  0.00    +0.000 S 
ATOM     10  H   UNL     1       1.508  10.230  18.153  0.00  0.00    +0.000 HD
ENDROOT
BRANCH   6  11
ATOM     11  C   UNL     1       3.969   5.963  17.437  0.00  0.00    +0.000 A 
ATOM     12  C   UNL     1       3.912   4.563  17.415  0.00  0.00    +0.000 A 
ATOM     13  C   UNL     1       4.669   3.827  16.492  0.00  0.00    +0.000 A 
ATOM     14  C   UNL     1       5.479   4.474  15.559  0.00  0.00    +0.000 A 
ATOM     15  C   UNL     1       5.574   5.863  15.594  0.00  0.00    +0.000 A 
ATOM     16  C   UNL     1       4.842   6.595  16.539  0.00  0.00    +0.000 A 
BRANCH  14  17
ATOM     17  O   UNL     1       6.171   3.658  14.706  0.00  0.00    +0.000 OA
ATOM     18  C   UNL     1       5.872   3.808  13.321  0.00  0.00    +0.000 C 
ENDBRANCH  14  17
ENDBRANCH   6  11
BRANCH   1  19
ATOM     19  C   UNL     1      -0.377  11.409  19.472  0.00  0.00    +0.000 C 
BRANCH  19  20
ATOM     20  O   UNL     1      -1.790  11.296  19.370  0.00  0.00    +0.000 OA
BRANCH  20  24
ATOM     21  C   UNL     1      -3.553  10.429  15.690  0.00  0.00    +0.000 A 
ATOM     22  C   UNL     1      -4.117  11.328  16.596  0.00  0.00    +0.000 A 
ATOM     23  C   UNL     1      -3.483  11.598  17.811  0.00  0.00    +0.000 A 
ATOM     24  C   UNL     1      -2.301  10.943  18.153  0.00  0.00    +0.000 A 
ATOM     25  C   UNL     1      -1.735  10.045  17.247  0.00  0.00    +0.000 A 
ATOM     26  C   UNL     1      -2.360   9.782  16.017  0.00  0.00    +0.000 A 
BRANCH  21  28
ATOM     27  C   UNL     1      -3.521   9.909  13.384  0.00  0.00    +0.000 C 
ATOM     28  O   UNL     1      -4.276  10.237  14.544  0.00  0.00    +0.000 OA
ENDBRANCH  21  28
ENDBRANCH  20  24
ENDBRANCH  19  20
ENDBRANCH   1  19
TORSDOF 6
ENDMDL
MODEL 2
REMARK VINA RESULT:      -7.8      1.282      2.022
REMARK  Name = 
REMARK  9 active torsions:
REMARK  status: ('A' for Active; 'I' for Inactive)
REMARK    1  A    between atoms: C_1  and  O_2
REMARK    2  A    between atoms: O_2  and  C_3
REMARK    3  A    between atoms: C_6  and  O_7
REMARK    4  A    between atoms: O_7  and  C_8
REMARK    5  A    between atoms: C_8  and  C_9
REMARK    6  A    between atoms: C_14  and  C_15
REMARK    7  A    between atoms: C_18  and  O_19
REMARK    8  A    between atoms: O_19  and  C_20
REMARK    9  A    between atoms: C_23  and  C_24
REMARK                            x       y       z     vdW  Elec       q    Type
REMARK                         _______ _______ _______ _____ _____    ______ ____
ROOT
ATOM      1  C   UNL     1       0.045   9.957  20.140  0.00  0.00    +0.000 C 
ATOM      2  O   UNL     1      -0.596   9.242  20.910  0.00  0.00    +0.000 OA
ATOM      3  N   UNL     1       1.156   9.590  19.402  0.00  0.00    +0.000 N 
ATOM      4  C   UNL     1       1.743   8.344  19.451  0.00  0.00    +0.000 A 
ATOM      5  N   UNL     1       2.562   7.892  18.528  0.00  0.00    +0.000 NA
ATOM      6  C   UNL     1       2.885   6.553  18.789  0.00  0.00    +0.000 A 
ATOM      7  C   UNL     1       2.392   6.072  19.996  0.00  0.00    +0.000 A 
ATOM      8  C   UNL     1       2.473   4.758  20.691  0.00  0.00    +0.000 C 
ATOM      9  S   UNL     1       1.504   7.310  20.780  0.00  0.00    +0.000 S 
ATOM     10  H   UNL     1       1.444  10.152  18.614  0.00  0.00    +0.000 HD
ENDROOT
BRANCH   6  11
ATOM     11  C   UNL     1       3.693   5.781  17.836  0.00  0.00    +0.000 A 
ATOM     12  C   UNL     1       4.780   6.378  17.184  0.00  0.00    +0.000 A 
ATOM     13  C   UNL     1       5.573   5.644  16.290  0.00  0.00    +0.000 A 
ATOM     14  C   UNL     1       5.310   4.296  16.046  0.00  0.00    +0.000 A 
ATOM     15  C   UNL     1       4.211   3.700  16.658  0.00  0.00    +0.000 A 
ATOM     16  C   UNL     1       3.400   4.445  17.527  0.00  0.00    +0.000 A 
BRANCH  14  17
ATOM     17  O   UNL     1       6.148   3.679  15.157  0.00  0.00    +0.000 OA
ATOM     18  C   UNL     1       5.889   3.932  13.779  0.00  0.00    +0.000 C 
ENDBRANCH  14  17
ENDBRANCH   6  11
BRANCH   1  19
ATOM     19  C   UNL     1      -0.421  11.391  19.906  0.00  0.00    +0.000 C 
BRANCH  19  20
ATOM     20  O   UNL     1      -0.813  11.494  18.543  0.00  0.00    +0.000 OA
BRANCH  20  24
ATOM     21  C   UNL     1      -4.915  11.125  17.878  0.00  0.00    +0.000 A 
ATOM     22  C   UNL     1      -4.392  11.908  18.908  0.00  0.00    +0.000 A 
ATOM     23  C   UNL     1      -3.010  12.012  19.084  0.00  0.00    +0.000 A 
ATOM     24  C   UNL     1      -2.136  11.306  18.260  0.00  0.00    +0.000 A 
ATOM     25  C   UNL     1      -2.657  10.524  17.228  0.00  0.00    +0.000 A 
ATOM     26  C   UNL     1      -4.046  10.428  17.037  0.00  0.00    +0.000 A 
BRANCH  21  28
ATOM     27  C   UNL     1      -6.963  11.541  18.984  0.00  0.00    +0.000 C 
ATOM     28  O   UNL     1      -6.281  11.089  17.819  0.00  0.00    +0.000 OA
ENDBRANCH  21  28
ENDBRANCH  20  24
ENDBRANCH  19  20
ENDBRANCH   1  19
TORSDOF 6
ENDMDL
MODEL 3
REMARK VINA RESULT:      -7.8      1.030      1.444
REMARK  Name = 
REMARK  9 active torsions:
REMARK  status: ('A' for Active; 'I' for Inactive)
REMARK    1  A    between atoms: C_1  and  O_2
REMARK    2  A    between atoms: O_2  and  C_3
REMARK    3  A    between atoms: C_6  and  O_7
REMARK    4  A    between atoms: O_7  and  C_8
REMARK    5  A    between atoms: C_8  and  C_9
REMARK    6  A    between atoms: C_14  and  C_15
REMARK    7  A    between atoms: C_18  and  O_19
REMARK    8  A    between atoms: O_19  and  C_20
REMARK    9  A    between atoms: C_23  and  C_24
REMARK                            x       y       z     vdW  Elec       q    Type
REMARK                         _______ _______ _______ _____ _____    ______ ____
ROOT
ATOM      1  C   UNL     1       0.001   9.261  20.974  0.00  0.00    +0.000 C 
ATOM      2  O   UNL     1      -0.635   8.395  21.574  0.00  0.00    +0.000 OA
ATOM      3  N   UNL     1       1.127   9.069  20.194  0.00  0.00    +0.000 N 
ATOM      4  C   UNL     1       1.739   7.848  20.001  0.00  0.00    +0.000 A 
ATOM      5  N   UNL     1       2.576   7.605  19.019  0.00  0.00    +0.000 NA
ATOM      6  C   UNL     1       2.923   6.246  19.012  0.00  0.00    +0.000 A 
ATOM      7  C   UNL     1       2.425   5.524  20.089  0.00  0.00    +0.000 A 
ATOM      8  C   UNL     1       2.525   4.099  20.508  0.00  0.00    +0.000 C 
ATOM      9  S   UNL     1       1.505   6.565  21.092  0.00  0.00    +0.000 S 
ATOM     10  H   UNL     1       1.413   9.782  19.539  0.00  0.00    +0.000 HD
ENDROOT
BRANCH   6  11
ATOM     11  C   UNL     1       3.757   5.694  17.936  0.00  0.00    +0.000 A 
ATOM     12  C   UNL     1       3.798   4.312  17.712  0.00  0.00    +0.000 A 
ATOM     13  C   UNL     1       4.572   3.774  16.673  0.00  0.00    +0.000 A 
ATOM     14  C   UNL     1       5.302   4.607  15.825  0.00  0.00    +0.000 A 
ATOM     15  C   UNL     1       5.301   5.979  16.059  0.00  0.00    +0.000 A 
ATOM     16  C   UNL     1       4.551   6.511  17.118  0.00  0.00    +0.000 A 
BRANCH  14  17
ATOM     17  O   UNL     1       6.019   3.975  14.846  0.00  0.00    +0.000 OA
ATOM     18  C   UNL     1       6.819   4.816  14.019  0.00  0.00    +0.000 C 
ENDBRANCH  14  17
ENDBRANCH   6  11
BRANCH   1  19
ATOM     19  C   UNL     1      -0.490  10.704  21.025  0.00  0.00    +0.000 C 
BRANCH  19  20
ATOM     20  O   UNL     1      -0.294  11.267  19.734  0.00  0.00    +0.000 OA
BRANCH  20  24
ATOM     21  C   UNL     1      -3.306  10.777  16.890  0.00  0.00    +0.000 A 
ATOM     22  C   UNL     1      -2.061  10.157  16.775  0.00  0.00    +0.000 A 
ATOM     23  C   UNL     1      -1.087  10.340  17.760  0.00  0.00    +0.000 A 
ATOM     24  C   UNL     1      -1.331  11.174  18.850  0.00  0.00    +0.000 A 
ATOM     25  C   UNL     1      -2.576  11.793  18.967  0.00  0.00    +0.000 A 
ATOM     26  C   UNL     1      -3.564  11.600  17.988  0.00  0.00    +0.000 A 
BRANCH  21  28
ATOM     27  C   UNL     1      -3.562  10.204  14.611  0.00  0.00    +0.000 C 
ATOM     28  O   UNL     1      -4.167  10.535  15.855  0.00  0.00    +0.000 OA
ENDBRANCH  21  28
ENDBRANCH  20  24
ENDBRANCH  19  20
ENDBRANCH   1  19
TORSDOF 6
ENDMDL
MODEL 4
REMARK VINA RESULT:      -7.8      1.310      1.762
REMARK  Name = 
REMARK  9 active torsions:
REMARK  status: ('A' for Active; 'I' for Inactive)
REMARK    1  A    between atoms: C_1  and  O_2
REMARK    2  A    between atoms: O_2  and  C_3
REMARK    3  A    between atoms: C_6  and  O_7
REMARK    4  A    between atoms: O_7  and  C_8
REMARK    5  A    between atoms: C_8  and  C_9
REMARK    6  A    between atoms: C_14  and  C_15
REMARK    7  A    between atoms: C_18  and  O_19
REMARK    8  A    between atoms: O_19  and  C_20
REMARK    9  A    between atoms: C_23  and  C_24
REMARK                            x       y       z     vdW  Elec       q    Type
REMARK                         _______ _______ _______ _____ _____    ______ ____
ROOT
ATOM      1  C   UNL     1      -0.100  10.154  20.088  0.00  0.00    +0.000 C 
ATOM      2  O   UNL     1      -0.701   9.423  20.874  0.00  0.00    +0.000 OA
ATOM      3  N   UNL     1       1.008   9.820  19.330  0.00  0.00    +0.000 N 
ATOM      4  C   UNL     1       1.638   8.594  19.376  0.00  0.00    +0.000 A 
ATOM      5  N   UNL     1       2.453   8.164  18.439  0.00  0.00    +0.000 NA
ATOM      6  C   UNL     1       2.827   6.838  18.703  0.00  0.00    +0.000 A 
ATOM      7  C   UNL     1       2.374   6.349  19.922  0.00  0.00    +0.000 A 
ATOM      8  C   UNL     1       2.514   5.044  20.624  0.00  0.00    +0.000 C 
ATOM      9  S   UNL     1       1.461   7.563  20.715  0.00  0.00    +0.000 S 
ATOM     10  H   UNL     1       1.261  10.385  18.532  0.00  0.00    +0.000 HD
ENDROOT
BRANCH   6  11
ATOM     11  C   UNL     1       3.642   6.086  17.739  0.00  0.00    +0.000 A 
ATOM     12  C   UNL     1       3.541   4.691  17.666  0.00  0.00    +0.000 A 
ATOM     13  C   UNL     1       4.297   3.963  16.735  0.00  0.00    +0.000 A 
ATOM     14  C   UNL     1       5.149   4.616  15.844  0.00  0.00    +0.000 A 
ATOM     15  C   UNL     1       5.286   5.999  15.930  0.00  0.00    +0.000 A 
ATOM     16  C   UNL     1       4.555   6.720  16.884  0.00  0.00    +0.000 A 
BRANCH  14  17
ATOM     17  O   UNL     1       5.835   3.808  14.979  0.00  0.00    +0.000 OA
ATOM     18  C   UNL     1       6.789   4.458  14.144  0.00  0.00    +0.000 C 
ENDBRANCH  14  17
ENDBRANCH   6  11
BRANCH   1  19
ATOM     19  C   UNL     1      -0.618  11.569  19.853  0.00  0.00    +0.000 C 
BRANCH  19  20
ATOM     20  O   UNL     1      -0.942  11.682  18.474  0.00  0.00    +0.000 OA
BRANCH  20  24
ATOM     21  C   UNL     1      -5.043  11.654  17.706  0.00  0.00    +0.000 A 
ATOM     22  C   UNL     1      -4.515  12.039  18.939  0.00  0.00    +0.000 A 
ATOM     23  C   UNL     1      -3.133  12.046  19.146  0.00  0.00    +0.000 A 
ATOM     24  C   UNL     1      -2.265  11.630  18.138  0.00  0.00    +0.000 A 
ATOM     25  C   UNL     1      -2.791  11.246  16.903  0.00  0.00    +0.000 A 
ATOM     26  C   UNL     1      -4.178  11.253  16.685  0.00  0.00    +0.000 A 
BRANCH  21  28
ATOM     27  C   UNL     1      -6.986  12.890  17.176  0.00  0.00    +0.000 C 
ATOM     28  O   UNL     1      -6.408  11.673  17.632  0.00  0.00    +0.000 OA
ENDBRANCH  21  28
ENDBRANCH  20  24
ENDBRANCH  19  20
ENDBRANCH   1  19
TORSDOF 6
ENDMDL
MODEL 5
REMARK VINA RESULT:      -7.7      2.801      9.156
REMARK  Name = 
REMARK  9 active torsions:
REMARK  status: ('A' for Active; 'I' for Inactive)
REMARK    1  A    between atoms: C_1  and  O_2
REMARK    2  A    between atoms: O_2  and  C_3
REMARK    3  A    between atoms: C_6  and  O_7
REMARK    4  A    between atoms: O_7  and  C_8
REMARK    5  A    between atoms: C_8  and  C_9
REMARK    6  A    between atoms: C_14  and  C_15
REMARK    7  A    between atoms: C_18  and  O_19
REMARK    8  A    between atoms: O_19  and  C_20
REMARK    9  A    between atoms: C_23  and  C_24
REMARK                            x       y       z     vdW  Elec       q    Type
REMARK                         _______ _______ _______ _____ _____    ______ ____
ROOT
ATOM      1  C   UNL     1       6.304   4.822  17.773  0.00  0.00    +0.000 C 
ATOM      2  O   UNL     1       6.252   4.051  18.731  0.00  0.00    +0.000 OA
ATOM      3  N   UNL     1       5.393   5.815  17.461  0.00  0.00    +0.000 N 
ATOM      4  C   UNL     1       4.243   6.067  18.178  0.00  0.00    +0.000 A 
ATOM      5  N   UNL     1       3.570   7.192  18.095  0.00  0.00    +0.000 NA
ATOM      6  C   UNL     1       2.532   7.199  19.037  0.00  0.00    +0.000 A 
ATOM      7  C   UNL     1       2.376   6.000  19.723  0.00  0.00    +0.000 A 
ATOM      8  C   UNL     1       1.439   5.534  20.782  0.00  0.00    +0.000 C 
ATOM      9  S   UNL     1       3.557   4.882  19.185  0.00  0.00    +0.000 S 
ATOM     10  H   UNL     1       5.655   6.555  16.825  0.00  0.00    +0.000 HD
ENDROOT
BRANCH   6  11
ATOM     11  C   UNL     1       1.704   8.397  19.228  0.00  0.00    +0.000 A 
ATOM     12  C   UNL     1       1.252   8.747  20.507  0.00  0.00    +0.000 A 
ATOM     13  C   UNL     1       0.480   9.901  20.706  0.00  0.00    +0.000 A 
ATOM     14  C   UNL     1       0.164  10.739  19.637  0.00  0.00    +0.000 A 
ATOM     15  C   UNL     1       0.575  10.384  18.355  0.00  0.00    +0.000 A 
ATOM     16  C   UNL     1       1.319   9.212  18.154  0.00  0.00    +0.000 A 
BRANCH  14  17
ATOM     17  O   UNL     1      -0.591  11.837  19.946  0.00  0.00    +0.000 OA
ATOM     18  C   UNL     1      -1.967  11.769  19.580  0.00  0.00    +0.000 C 
ENDBRANCH  14  17
ENDBRANCH   6  11
BRANCH   1  19
ATOM     19  C   UNL     1       7.501   4.747  16.831  0.00  0.00    +0.000 C 
BRANCH  19  20
ATOM     20  O   UNL     1       7.211   5.567  15.707  0.00  0.00    +0.000 OA
BRANCH  20  24
ATOM     21  C   UNL     1       6.404   3.526  12.159  0.00  0.00    +0.000 A 
ATOM     22  C   UNL     1       5.674   3.312  13.328  0.00  0.00    +0.000 A 
ATOM     23  C   UNL     1       5.971   4.029  14.490  0.00  0.00    +0.000 A 
ATOM     24  C   UNL     1       7.027   4.939  14.508  0.00  0.00    +0.000 A 
ATOM     25  C   UNL     1       7.758   5.156  13.339  0.00  0.00    +0.000 A 
ATOM     26  C   UNL     1       7.452   4.449  12.164  0.00  0.00    +0.000 A 
BRANCH  21  28
ATOM     27  C   UNL     1       5.914   1.358  11.354  0.00  0.00    +0.000 C 
ATOM     28  O   UNL     1       6.029   2.752  11.095  0.00  0.00    +0.000 OA
ENDBRANCH  21  28
ENDBRANCH  20  24
ENDBRANCH  19  20
ENDBRANCH   1  19
TORSDOF 6
ENDMDL
MODEL 6
REMARK VINA RESULT:      -7.7      3.159      9.605
REMARK  Name = 
REMARK  9 active torsions:
REMARK  status: ('A' for Active; 'I' for Inactive)
REMARK    1  A    between atoms: C_1  and  O_2
REMARK    2  A    between atoms: O_2  and  C_3
REMARK    3  A    between atoms: C_6  and  O_7
REMARK    4  A    between atoms: O_7  and  C_8
REMARK    5  A    between atoms: C_8  and  C_9
REMARK    6  A    between atoms: C_14  and  C_15
REMARK    7  A    between atoms: C_18  and  O_19
REMARK    8  A    between atoms: O_19  and  C_20
REMARK    9  A    between atoms: C_23  and  C_24
REMARK                            x       y       z     vdW  Elec       q    Type
REMARK                         _______ _______ _______ _____ _____    ______ ____
ROOT
ATOM      1  C   UNL     1       2.706   5.685  19.138  0.00  0.00    +0.000 C 
ATOM      2  O   UNL     1       2.145   5.631  18.045  0.00  0.00    +0.000 OA
ATOM      3  N   UNL     1       2.621   6.712  20.062  0.00  0.00    +0.000 N 
ATOM      4  C   UNL     1       1.902   7.872  19.868  0.00  0.00    +0.000 A 
ATOM      5  N   UNL     1       1.545   8.675  20.845  0.00  0.00    +0.000 NA
ATOM      6  C   UNL     1       0.717   9.692  20.350  0.00  0.00    +0.000 A 
ATOM      7  C   UNL     1       0.580   9.694  18.967  0.00  0.00    +0.000 A 
ATOM      8  C   UNL     1      -0.167  10.553  18.008  0.00  0.00    +0.000 C 
ATOM      9  S   UNL     1       1.484   8.398  18.306  0.00  0.00    +0.000 S 
ATOM     10  H   UNL     1       2.893   6.550  21.021  0.00  0.00    +0.000 HD
ENDROOT
BRANCH   6  11
ATOM     11  C   UNL     1       0.085  10.652  21.265  0.00  0.00    +0.000 A 
ATOM     12  C   UNL     1       0.312  12.027  21.113  0.00  0.00    +0.000 A 
ATOM     13  C   UNL     1      -0.303  12.955  21.965  0.00  0.00    +0.000 A 
ATOM     14  C   UNL     1      -1.173  12.531  22.970  0.00  0.00    +0.000 A 
ATOM     15  C   UNL     1      -1.378  11.167  23.157  0.00  0.00    +0.000 A 
ATOM     16  C   UNL     1      -0.736  10.239  22.324  0.00  0.00    +0.000 A 
BRANCH  14  17
ATOM     17  O   UNL     1      -1.717  13.522  23.741  0.00  0.00    +0.000 OA
ATOM     18  C   UNL     1      -3.141  13.588  23.756  0.00  0.00    +0.000 C 
ENDBRANCH  14  17
ENDBRANCH   6  11
BRANCH   1  19
ATOM     19  C   UNL     1       3.557   4.502  19.589  0.00  0.00    +0.000 C 
BRANCH  19  20
ATOM     20  O   UNL     1       4.897   4.963  19.712  0.00  0.00    +0.000 OA
BRANCH  20  24
ATOM     21  C   UNL     1       6.902   5.242  16.064  0.00  0.00    +0.000 A 
ATOM     22  C   UNL     1       5.953   4.251  16.323  0.00  0.00    +0.000 A 
ATOM     23  C   UNL     1       5.297   4.206  17.555  0.00  0.00    +0.000 A 
ATOM     24  C   UNL     1       5.608   5.123  18.557  0.00  0.00    +0.000 A 
ATOM     25  C   UNL     1       6.556   6.115  18.300  0.00  0.00    +0.000 A 
ATOM     26  C   UNL     1       7.207   6.175  17.057  0.00  0.00    +0.000 A 
BRANCH  21  28
ATOM     27  C   UNL     1       6.766   4.439  13.845  0.00  0.00    +0.000 C 
ATOM     28  O   UNL     1       7.486   5.171  14.830  0.00  0.00    +0.000 OA
ENDBRANCH  21  28
ENDBRANCH  20  24
ENDBRANCH  19  20
ENDBRANCH   1  19
TORSDOF 6
ENDMDL
MODEL 7
REMARK VINA RESULT:      -7.6      2.723      4.029
REMARK  Name = 
REMARK  9 active torsions:
REMARK  status: ('A' for Active; 'I' for Inactive)
REMARK    1  A    between atoms: C_1  and  O_2
REMARK    2  A    between atoms: O_2  and  C_3
REMARK    3  A    between atoms: C_6  and  O_7
REMARK    4  A    between atoms: O_7  and  C_8
REMARK    5  A    between atoms: C_8  and  C_9
REMARK    6  A    between atoms: C_14  and  C_15
REMARK    7  A    between atoms: C_18  and  O_19
REMARK    8  A    between atoms: O_19  and  C_20
REMARK    9  A    between atoms: C_23  and  C_24
REMARK                            x       y       z     vdW  Elec       q    Type
REMARK                         _______ _______ _______ _____ _____    ______ ____
ROOT
ATOM      1  C   UNL     1       0.017  10.118  19.846  0.00  0.00    +0.000 C 
ATOM      2  O   UNL     1      -0.638   9.425  20.624  0.00  0.00    +0.000 OA
ATOM      3  N   UNL     1       1.146   9.733  19.146  0.00  0.00    +0.000 N 
ATOM      4  C   UNL     1       1.738   8.492  19.249  0.00  0.00    +0.000 A 
ATOM      5  N   UNL     1       2.580   8.015  18.361  0.00  0.00    +0.000 NA
ATOM      6  C   UNL     1       2.904   6.687  18.673  0.00  0.00    +0.000 A 
ATOM      7  C   UNL     1       2.385   6.242  19.884  0.00  0.00    +0.000 A 
ATOM      8  C   UNL     1       2.457   4.952  20.623  0.00  0.00    +0.000 C 
ATOM      9  S   UNL     1       1.474   7.502  20.605  0.00  0.00    +0.000 S 
ATOM     10  H   UNL     1       1.450  10.270  18.346  0.00  0.00    +0.000 HD
ENDROOT
BRANCH   6  11
ATOM     11  C   UNL     1       3.736   5.887  17.765  0.00  0.00    +0.000 A 
ATOM     12  C   UNL     1       4.827   6.472  17.107  0.00  0.00    +0.000 A 
ATOM     13  C   UNL     1       5.643   5.714  16.255  0.00  0.00    +0.000 A 
ATOM     14  C   UNL     1       5.401   4.354  16.061  0.00  0.00    +0.000 A 
ATOM     15  C   UNL     1       4.299   3.768  16.679  0.00  0.00    +0.000 A 
ATOM     16  C   UNL     1       3.465   4.536  17.505  0.00  0.00    +0.000 A 
BRANCH  14  17
ATOM     17  O   UNL     1       6.260   3.713  15.212  0.00  0.00    +0.000 OA
ATOM     18  C   UNL     1       6.080   3.981  13.823  0.00  0.00    +0.000 C 
ENDBRANCH  14  17
ENDBRANCH   6  11
BRANCH   1  19
ATOM     19  C   UNL     1      -0.450  11.540  19.554  0.00  0.00    +0.000 C 
BRANCH  19  20
ATOM     20  O   UNL     1      -0.506  12.234  20.794  0.00  0.00    +0.000 OA
BRANCH  20  24
ATOM     21  C   UNL     1      -4.129  12.601  22.829  0.00  0.00    +0.000 A 
ATOM     22  C   UNL     1      -2.959  12.167  23.455  0.00  0.00    +0.000 A 
ATOM     23  C   UNL     1      -1.766  12.073  22.736  0.00  0.00    +0.000 A 
ATOM     24  C   UNL     1      -1.734  12.372  21.375  0.00  0.00    +0.000 A 
ATOM     25  C   UNL     1      -2.902  12.808  20.747  0.00  0.00    +0.000 A 
ATOM     26  C   UNL     1      -4.101  12.920  21.470  0.00  0.00    +0.000 A 
BRANCH  21  28
ATOM     27  C   UNL     1      -6.466  12.918  22.981  0.00  0.00    +0.000 C 
ATOM     28  O   UNL     1      -5.234  12.635  23.634  0.00  0.00    +0.000 OA
ENDBRANCH  21  28
ENDBRANCH  20  24
ENDBRANCH  19  20
ENDBRANCH   1  19
TORSDOF 6
ENDMDL
MODEL 8
REMARK VINA RESULT:      -7.6      1.290      1.583
REMARK  Name = 
REMARK  9 active torsions:
REMARK  status: ('A' for Active; 'I' for Inactive)
REMARK    1  A    between atoms: C_1  and  O_2
REMARK    2  A    between atoms: O_2  and  C_3
REMARK    3  A    between atoms: C_6  and  O_7
REMARK    4  A    between atoms: O_7  and  C_8
REMARK    5  A    between atoms: C_8  and  C_9
REMARK    6  A    between atoms: C_14  and  C_15
REMARK    7  A    between atoms: C_18  and  O_19
REMARK    8  A    between atoms: O_19  and  C_20
REMARK    9  A    between atoms: C_23  and  C_24
REMARK                            x       y       z     vdW  Elec       q    Type
REMARK                         _______ _______ _______ _____ _____    ______ ____
ROOT
ATOM      1  C   UNL     1       0.213   9.207  20.843  0.00  0.00    +0.000 C 
ATOM      2  O   UNL     1      -0.469   8.380  21.447  0.00  0.00    +0.000 OA
ATOM      3  N   UNL     1       1.346   8.955  20.091  0.00  0.00    +0.000 N 
ATOM      4  C   UNL     1       1.912   7.708  19.934  0.00  0.00    +0.000 A 
ATOM      5  N   UNL     1       2.759   7.412  18.974  0.00  0.00    +0.000 NA
ATOM      6  C   UNL     1       3.051   6.041  18.999  0.00  0.00    +0.000 A 
ATOM      7  C   UNL     1       2.503   5.361  20.080  0.00  0.00    +0.000 A 
ATOM      8  C   UNL     1       2.537   3.941  20.528  0.00  0.00    +0.000 C 
ATOM      9  S   UNL     1       1.605   6.457  21.044  0.00  0.00    +0.000 S 
ATOM     10  H   UNL     1       1.673   9.643  19.428  0.00  0.00    +0.000 HD
ENDROOT
BRANCH   6  11
ATOM     11  C   UNL     1       3.883   5.435  17.952  0.00  0.00    +0.000 A 
ATOM     12  C   UNL     1       3.791   4.064  17.681  0.00  0.00    +0.000 A 
ATOM     13  C   UNL     1       4.563   3.478  16.668  0.00  0.00    +0.000 A 
ATOM     14  C   UNL     1       5.425   4.252  15.891  0.00  0.00    +0.000 A 
ATOM     15  C   UNL     1       5.555   5.609  16.174  0.00  0.00    +0.000 A 
ATOM     16  C   UNL     1       4.806   6.187  17.209  0.00  0.00    +0.000 A 
BRANCH  14  17
ATOM     17  O   UNL     1       6.128   3.577  14.931  0.00  0.00    +0.000 OA
ATOM     18  C   UNL     1       5.978   4.055  13.597  0.00  0.00    +0.000 C 
ENDBRANCH  14  17
ENDBRANCH   6  11
BRANCH   1  19
ATOM     19  C   UNL     1      -0.221  10.670  20.856  0.00  0.00    +0.000 C 
BRANCH  19  20
ATOM     20  O   UNL     1      -0.177  11.140  19.515  0.00  0.00    +0.000 OA
BRANCH  20  24
ATOM     21  C   UNL     1      -3.783  11.043  17.419  0.00  0.00    +0.000 A 
ATOM     22  C   UNL     1      -3.577  11.882  18.515  0.00  0.00    +0.000 A 
ATOM     23  C   UNL     1      -2.347  11.890  19.178  0.00  0.00    +0.000 A 
ATOM     24  C   UNL     1      -1.323  11.033  18.780  0.00  0.00    +0.000 A 
ATOM     25  C   UNL     1      -1.526  10.194  17.682  0.00  0.00    +0.000 A 
ATOM     26  C   UNL     1      -2.755  10.194  17.002  0.00  0.00    +0.000 A 
BRANCH  21  28
ATOM     27  C   UNL     1      -5.926  12.038  17.475  0.00  0.00    +0.000 C 
ATOM     28  O   UNL     1      -5.032  11.114  16.866  0.00  0.00    +0.000 OA
ENDBRANCH  21  28
ENDBRANCH  20  24
ENDBRANCH  19  20
ENDBRANCH   1  19
TORSDOF 6
ENDMDL
MODEL 9
REMARK VINA RESULT:      -7.6      2.669      3.968
REMARK  Name = 
REMARK  9 active torsions:
REMARK  status: ('A' for Active; 'I' for Inactive)
REMARK    1  A    between atoms: C_1  and  O_2
REMARK    2  A    between atoms: O_2  and  C_3
REMARK    3  A    between atoms: C_6  and  O_7
REMARK    4  A    between atoms: O_7  and  C_8
REMARK    5  A    between atoms: C_8  and  C_9
REMARK    6  A    between atoms: C_14  and  C_15
REMARK    7  A    between atoms: C_18  and  O_19
REMARK    8  A    between atoms: O_19  and  C_20
REMARK    9  A    between atoms: C_23  and  C_24
REMARK                            x       y       z     vdW  Elec       q    Type
REMARK                         _______ _______ _______ _____ _____    ______ ____
ROOT
ATOM      1  C   UNL     1       0.166  10.047  19.688  0.00  0.00    +0.000 C 
ATOM      2  O   UNL     1      -0.447   9.364  20.507  0.00  0.00    +0.000 OA
ATOM      3  N   UNL     1       1.270   9.661  18.950  0.00  0.00    +0.000 N 
ATOM      4  C   UNL     1       1.883   8.431  19.055  0.00  0.00    +0.000 A 
ATOM      5  N   UNL     1       2.693   7.945  18.143  0.00  0.00    +0.000 NA
ATOM      6  C   UNL     1       3.048   6.628  18.470  0.00  0.00    +0.000 A 
ATOM      7  C   UNL     1       2.585   6.204  19.710  0.00  0.00    +0.000 A 
ATOM      8  C   UNL     1       2.705   4.932  20.474  0.00  0.00    +0.000 C 
ATOM      9  S   UNL     1       1.688   7.467  20.442  0.00  0.00    +0.000 S 
ATOM     10  H   UNL     1       1.533  10.184  18.126  0.00  0.00    +0.000 HD
ENDROOT
BRANCH   6  11
ATOM     11  C   UNL     1       3.853   5.819  17.545  0.00  0.00    +0.000 A 
ATOM     12  C   UNL     1       4.771   6.435  16.684  0.00  0.00    +0.000 A 
ATOM     13  C   UNL     1       5.562   5.672  15.813  0.00  0.00    +0.000 A 
ATOM     14  C   UNL     1       5.468   4.280  15.800  0.00  0.00    +0.000 A 
ATOM     15  C   UNL     1       4.534   3.658  16.624  0.00  0.00    +0.000 A 
ATOM     16  C   UNL     1       3.721   4.425  17.470  0.00  0.00    +0.000 A 
BRANCH  14  17
ATOM     17  O   UNL     1       6.288   3.638  14.913  0.00  0.00    +0.000 OA
ATOM     18  C   UNL     1       6.063   3.928  13.535  0.00  0.00    +0.000 C 
ENDBRANCH  14  17
ENDBRANCH   6  11
BRANCH   1  19
ATOM     19  C   UNL     1      -0.332  11.457  19.385  0.00  0.00    +0.000 C 
BRANCH  19  20
ATOM     20  O   UNL     1      -0.273  12.200  20.595  0.00  0.00    +0.000 OA
BRANCH  20  24
ATOM     21  C   UNL     1      -3.930  12.530  22.574  0.00  0.00    +0.000 A 
ATOM     22  C   UNL     1      -3.789  12.800  21.212  0.00  0.00    +0.000 A 
ATOM     23  C   UNL     1      -2.547  12.663  20.589  0.00  0.00    +0.000 A 
ATOM     24  C   UNL     1      -1.423  12.293  21.326  0.00  0.00    +0.000 A 
ATOM     25  C   UNL     1      -1.562  12.020  22.688  0.00  0.00    +0.000 A 
ATOM     26  C   UNL     1      -2.813  12.141  23.316  0.00  0.00    +0.000 A 
BRANCH  21  28
ATOM     27  C   UNL     1      -5.427  13.968  23.706  0.00  0.00    +0.000 C 
ATOM     28  O   UNL     1      -5.191  12.717  23.071  0.00  0.00    +0.000 OA
ENDBRANCH  21  28
ENDBRANCH  20  24
ENDBRANCH  19  20
ENDBRANCH   1  19
TORSDOF 6
ENDMDL
