MODEL 1
REMARK VINA RESULT:      -7.0      0.000      0.000
REMARK  Name = 
REMARK  3 active torsions:
REMARK  status: ('A' for Active; 'I' for Inactive)
REMARK    1  A    between atoms: C_5  and  C_6
REMARK    2  A    between atoms: C_6  and  N_7
REMARK    3  A    between atoms: N_10  and  C_11
REMARK                            x       y       z     vdW  Elec       q    Type
REMARK                         _______ _______ _______ _____ _____    ______ ____
ROOT
ATOM      1  N   UNL     1       6.764   6.264  16.173  0.00  0.00    +0.000 NA
ATOM      2  C   UNL     1       5.314   6.115  15.921  0.00  0.00    +0.000 C 
ATOM      3  C   UNL     1       4.575   5.130  16.849  0.00  0.00    +0.000 C 
ATOM      4  N   UNL     1       4.824   5.449  18.255  0.00  0.00    +0.000 N 
ATOM      5  C   UNL     1       6.197   5.719  18.664  0.00  0.00    +0.000 C 
ATOM      6  C   UNL     1       6.975   6.557  17.609  0.00  0.00    +0.000 C 
ENDROOT
BRANCH   4   7
ATOM      7  C   UNL     1       3.753   5.486  19.125  0.00  0.00    +0.000 A 
ATOM      8  N   UNL     1       3.089   6.667  19.246  0.00  0.00    +0.000 NA
ATOM      9  C   UNL     1       2.055   6.775  20.089  0.00  0.00    +0.000 A 
ATOM     10  N   UNL     1       1.533   5.816  20.853  0.00  0.00    +0.000 NA
ATOM     11  C   UNL     1       2.172   4.644  20.703  0.00  0.00    +0.000 A 
ATOM     12  S   UNL     1       1.632   3.268  21.553  0.00  0.00    +0.000 S 
ATOM     13  C   UNL     1       2.834   2.285  20.845  0.00  0.00    +0.000 A 
ATOM     14  C   UNL     1       3.636   3.001  19.982  0.00  0.00    +0.000 A 
ATOM     15  C   UNL     1       3.271   4.392  19.892  0.00  0.00    +0.000 A 
ENDBRANCH   4   7
BRANCH   1  16
ATOM     16  C   UNL     1       7.558   5.121  15.708  0.00  0.00    +0.000 C 
BRANCH  16  21
ATOM     17 CL   UNL     1       5.228   2.494  11.393  0.00  0.00    +0.000 Cl
ATOM     18  C   UNL     1       6.160   3.533  12.395  0.00  0.00    +0.000 A 
ATOM     19  C   UNL     1       7.096   4.445  11.980  0.00  0.00    +0.000 A 
ATOM     20  C   UNL     1       7.680   5.120  13.094  0.00  0.00    +0.000 A 
ATOM     21  C   UNL     1       7.168   4.689  14.312  0.00  0.00    +0.000 A 
ATOM     22  S   UNL     1       5.969   3.478  14.076  0.00  0.00    +0.000 S 
ENDBRANCH  16  21
ENDBRANCH   1  16
TORSDOF 3
ENDMDL
MODEL 2
REMARK VINA RESULT:      -6.4      3.691      5.579
REMARK  Name = 
REMARK  3 active torsions:
REMARK  status: ('A' for Active; 'I' for Inactive)
REMARK    1  A    between atoms: C_5  and  C_6
REMARK    2  A    between atoms: C_6  and  N_7
REMARK    3  A    between atoms: N_10  and  C_11
REMARK                            x       y       z     vdW  Elec       q    Type
REMARK                         _______ _______ _______ _____ _____    ______ ____
ROOT
ATOM      1  N   UNL     1       2.587   5.649  19.066  0.00  0.00    +0.000 NA
ATOM      2  C   UNL     1       1.803   6.030  20.261  0.00  0.00    +0.000 C 
ATOM      3  C   UNL     1       1.957   7.495  20.717  0.00  0.00    +0.000 C 
ATOM      4  N   UNL     1       1.696   8.418  19.612  0.00  0.00    +0.000 N 
ATOM      5  C   UNL     1       2.319   8.139  18.324  0.00  0.00    +0.000 C 
ATOM      6  C   UNL     1       2.317   6.621  17.982  0.00  0.00    +0.000 C 
ENDROOT
BRANCH   4   7
ATOM      7  C   UNL     1       0.870   9.502  19.836  0.00  0.00    +0.000 A 
ATOM      8  N   UNL     1       0.573  10.289  18.767  0.00  0.00    +0.000 NA
ATOM      9  C   UNL     1      -0.204  11.368  18.921  0.00  0.00    +0.000 A 
ATOM     10  N   UNL     1      -0.790  11.788  20.042  0.00  0.00    +0.000 NA
ATOM     11  C   UNL     1      -0.520  10.986  21.086  0.00  0.00    +0.000 A 
ATOM     12  S   UNL     1      -1.213  11.313  22.608  0.00  0.00    +0.000 S 
ATOM     13  C   UNL     1      -0.476   9.941  23.305  0.00  0.00    +0.000 A 
ATOM     14  C   UNL     1       0.291   9.253  22.390  0.00  0.00    +0.000 A 
ATOM     15  C   UNL     1       0.288   9.856  21.081  0.00  0.00    +0.000 A 
ENDBRANCH   4   7
BRANCH   1  16
ATOM     16  C   UNL     1       4.020   5.487  19.335  0.00  0.00    +0.000 C 
BRANCH  16  21
ATOM     17 CL   UNL     1       6.195   3.768  14.513  0.00  0.00    +0.000 Cl
ATOM     18  C   UNL     1       5.812   4.644  15.940  0.00  0.00    +0.000 A 
ATOM     19  C   UNL     1       6.417   5.792  16.381  0.00  0.00    +0.000 A 
ATOM     20  C   UNL     1       5.845   6.230  17.614  0.00  0.00    +0.000 A 
ATOM     21  C   UNL     1       4.831   5.392  18.062  0.00  0.00    +0.000 A 
ATOM     22  S   UNL     1       4.581   4.093  16.962  0.00  0.00    +0.000 S 
ENDBRANCH  16  21
ENDBRANCH   1  16
TORSDOF 3
ENDMDL
MODEL 3
REMARK VINA RESULT:      -6.4      4.989      7.840
REMARK  Name = 
REMARK  3 active torsions:
REMARK  status: ('A' for Active; 'I' for Inactive)
REMARK    1  A    between atoms: C_5  and  C_6
REMARK    2  A    between atoms: C_6  and  N_7
REMARK    3  A    between atoms: N_10  and  C_11
REMARK                            x       y       z     vdW  Elec       q    Type
REMARK                         _______ _______ _______ _____ _____    ______ ____
ROOT
ATOM      1  N   UNL     1       1.276   9.258  20.214  0.00  0.00    +0.000 NA
ATOM      2  C   UNL     1       1.615   8.173  21.161  0.00  0.00    +0.000 C 
ATOM      3  C   UNL     1       1.546   6.743  20.586  0.00  0.00    +0.000 C 
ATOM      4  N   UNL     1       2.345   6.631  19.366  0.00  0.00    +0.000 N 
ATOM      5  C   UNL     1       2.205   7.674  18.356  0.00  0.00    +0.000 C 
ATOM      6  C   UNL     1       2.083   9.092  18.983  0.00  0.00    +0.000 C 
ENDROOT
BRANCH   4   7
ATOM      7  C   UNL     1       3.195   5.552  19.227  0.00  0.00    +0.000 A 
ATOM      8  N   UNL     1       4.521   5.773  19.440  0.00  0.00    +0.000 NA
ATOM      9  C   UNL     1       5.400   4.773  19.301  0.00  0.00    +0.000 A 
ATOM     10  N   UNL     1       5.137   3.503  18.994  0.00  0.00    +0.000 NA
ATOM     11  C   UNL     1       3.823   3.286  18.819  0.00  0.00    +0.000 A 
ATOM     12  S   UNL     1       3.263   1.715  18.467  0.00  0.00    +0.000 S 
ATOM     13  C   UNL     1       1.638   2.236  18.440  0.00  0.00    +0.000 A 
ATOM     14  C   UNL     1       1.531   3.587  18.687  0.00  0.00    +0.000 A 
ATOM     15  C   UNL     1       2.804   4.227  18.902  0.00  0.00    +0.000 A 
ENDBRANCH   4   7
BRANCH   1  16
ATOM     16  C   UNL     1      -0.161   9.363  19.937  0.00  0.00    +0.000 C 
BRANCH  16  21
ATOM     17 CL   UNL     1      -0.483  14.769  18.665  0.00  0.00    +0.000 Cl
ATOM     18  C   UNL     1      -0.685  13.064  18.719  0.00  0.00    +0.000 A 
ATOM     19  C   UNL     1      -1.551  12.319  17.963  0.00  0.00    +0.000 A 
ATOM     20  C   UNL     1      -1.453  10.932  18.290  0.00  0.00    +0.000 A 
ATOM     21  C   UNL     1      -0.519  10.681  19.288  0.00  0.00    +0.000 A 
ATOM     22  S   UNL     1       0.237  12.140  19.797  0.00  0.00    +0.000 S 
ENDBRANCH  16  21
ENDBRANCH   1  16
TORSDOF 3
ENDMDL
MODEL 4
REMARK VINA RESULT:      -6.4      4.156      6.088
REMARK  Name = 
REMARK  3 active torsions:
REMARK  status: ('A' for Active; 'I' for Inactive)
REMARK    1  A    between atoms: C_5  and  C_6
REMARK    2  A    between atoms: C_6  and  N_7
REMARK    3  A    between atoms: N_10  and  C_11
REMARK                            x       y       z     vdW  Elec       q    Type
REMARK                         _______ _______ _______ _____ _____    ______ ____
ROOT
ATOM      1  N   UNL     1       2.458   5.973  19.023  0.00  0.00    +0.000 NA
ATOM      2  C   UNL     1       1.696   6.307  20.245  0.00  0.00    +0.000 C 
ATOM      3  C   UNL     1       1.824   7.765  20.731  0.00  0.00    +0.000 C 
ATOM      4  N   UNL     1       1.511   8.705  19.654  0.00  0.00    +0.000 N 
ATOM      5  C   UNL     1       2.107   8.471  18.344  0.00  0.00    +0.000 C 
ATOM      6  C   UNL     1       2.136   6.962  17.968  0.00  0.00    +0.000 C 
ENDROOT
BRANCH   4   7
ATOM      7  C   UNL     1       0.664   9.762  19.923  0.00  0.00    +0.000 A 
ATOM      8  N   UNL     1       0.887  10.464  21.066  0.00  0.00    +0.000 NA
ATOM      9  C   UNL     1       0.089  11.487  21.395  0.00  0.00    +0.000 A 
ATOM     10  N   UNL     1      -0.942  11.963  20.698  0.00  0.00    +0.000 NA
ATOM     11  C   UNL     1      -1.135  11.287  19.553  0.00  0.00    +0.000 A 
ATOM     12  S   UNL     1      -2.374  11.765  18.484  0.00  0.00    +0.000 S 
ATOM     13  C   UNL     1      -1.963  10.542  17.367  0.00  0.00    +0.000 A 
ATOM     14  C   UNL     1      -0.905   9.780  17.810  0.00  0.00    +0.000 A 
ATOM     15  C   UNL     1      -0.409  10.193  19.099  0.00  0.00    +0.000 A 
ENDBRANCH   4   7
BRANCH   1  16
ATOM     16  C   UNL     1       3.901   5.843  19.252  0.00  0.00    +0.000 C 
BRANCH  16  21
ATOM     17 CL   UNL     1       7.215   5.000  14.865  0.00  0.00    +0.000 Cl
ATOM     18  C   UNL     1       6.057   4.837  16.123  0.00  0.00    +0.000 A 
ATOM     19  C   UNL     1       5.225   3.769  16.335  0.00  0.00    +0.000 A 
ATOM     20  C   UNL     1       4.386   3.991  17.469  0.00  0.00    +0.000 A 
ATOM     21  C   UNL     1       4.612   5.224  18.069  0.00  0.00    +0.000 A 
ATOM     22  S   UNL     1       5.856   6.084  17.250  0.00  0.00    +0.000 S 
ENDBRANCH  16  21
ENDBRANCH   1  16
TORSDOF 3
ENDMDL
MODEL 5
REMARK VINA RESULT:      -6.3      5.326      8.511
REMARK  Name = 
REMARK  3 active torsions:
REMARK  status: ('A' for Active; 'I' for Inactive)
REMARK    1  A    between atoms: C_5  and  C_6
REMARK    2  A    between atoms: C_6  and  N_7
REMARK    3  A    between atoms: N_10  and  C_11
REMARK                            x       y       z     vdW  Elec       q    Type
REMARK                         _______ _______ _______ _____ _____    ______ ____
ROOT
ATOM      1  N   UNL     1       1.260   9.506  19.842  0.00  0.00    +0.000 NA
ATOM      2  C   UNL     1       1.653   8.512  20.863  0.00  0.00    +0.000 C 
ATOM      3  C   UNL     1       1.580   7.037  20.419  0.00  0.00    +0.000 C 
ATOM      4  N   UNL     1       2.327   6.826  19.179  0.00  0.00    +0.000 N 
ATOM      5  C   UNL     1       2.130   7.776  18.089  0.00  0.00    +0.000 C 
ATOM      6  C   UNL     1       2.016   9.242  18.596  0.00  0.00    +0.000 C 
ENDROOT
BRANCH   4   7
ATOM      7  C   UNL     1       3.185   5.748  19.098  0.00  0.00    +0.000 A 
ATOM      8  N   UNL     1       4.501   5.979  19.353  0.00  0.00    +0.000 NA
ATOM      9  C   UNL     1       5.388   4.980  19.270  0.00  0.00    +0.000 A 
ATOM     10  N   UNL     1       5.141   3.702  18.984  0.00  0.00    +0.000 NA
ATOM     11  C   UNL     1       3.835   3.475  18.768  0.00  0.00    +0.000 A 
ATOM     12  S   UNL     1       3.293   1.894  18.435  0.00  0.00    +0.000 S 
ATOM     13  C   UNL     1       1.669   2.407  18.336  0.00  0.00    +0.000 A 
ATOM     14  C   UNL     1       1.548   3.763  18.545  0.00  0.00    +0.000 A 
ATOM     15  C   UNL     1       2.811   4.414  18.791  0.00  0.00    +0.000 A 
ENDBRANCH   4   7
BRANCH   1  16
ATOM     16  C   UNL     1      -0.189   9.573  19.619  0.00  0.00    +0.000 C 
BRANCH  16  21
ATOM     17 CL   UNL     1      -1.850  13.575  23.108  0.00  0.00    +0.000 Cl
ATOM     18  C   UNL     1      -1.549  12.601  21.725  0.00  0.00    +0.000 A 
ATOM     19  C   UNL     1      -2.007  12.824  20.453  0.00  0.00    +0.000 A 
ATOM     20  C   UNL     1      -1.567  11.797  19.564  0.00  0.00    +0.000 A 
ATOM     21  C   UNL     1      -0.795  10.831  20.200  0.00  0.00    +0.000 A 
ATOM     22  S   UNL     1      -0.606  11.203  21.869  0.00  0.00    +0.000 S 
ENDBRANCH  16  21
ENDBRANCH   1  16
TORSDOF 3
ENDMDL
MODEL 6
REMARK VINA RESULT:      -6.3      3.368      5.415
REMARK  Name = 
REMARK  3 active torsions:
REMARK  status: ('A' for Active; 'I' for Inactive)
REMARK    1  A    between atoms: C_5  and  C_6
REMARK    2  A    between atoms: C_6  and  N_7
REMARK    3  A    between atoms: N_10  and  C_11
REMARK                            x       y       z     vdW  Elec       q    Type
REMARK                         _______ _______ _______ _____ _____    ______ ____
ROOT
ATOM      1  N   UNL     1       2.597   4.961  18.841  0.00  0.00    +0.000 NA
ATOM      2  C   UNL     1       1.630   5.002  19.960  0.00  0.00    +0.000 C 
ATOM      3  C   UNL     1       1.823   6.157  20.963  0.00  0.00    +0.000 C 
ATOM      4  N   UNL     1       1.871   7.447  20.274  0.00  0.00    +0.000 N 
ATOM      5  C   UNL     1       2.708   7.559  19.086  0.00  0.00    +0.000 C 
ATOM      6  C   UNL     1       2.636   6.289  18.189  0.00  0.00    +0.000 C 
ENDROOT
BRANCH   4   7
ATOM      7  C   UNL     1       1.120   8.492  20.773  0.00  0.00    +0.000 A 
ATOM      8  N   UNL     1       1.055   8.623  22.126  0.00  0.00    +0.000 NA
ATOM      9  C   UNL     1       0.327   9.603  22.673  0.00  0.00    +0.000 A 
ATOM     10  N   UNL     1      -0.365  10.548  22.036  0.00  0.00    +0.000 NA
ATOM     11  C   UNL     1      -0.268  10.433  20.701  0.00  0.00    +0.000 A 
ATOM     12  S   UNL     1      -1.038  11.572  19.694  0.00  0.00    +0.000 S 
ATOM     13  C   UNL     1      -0.449  10.812  18.284  0.00  0.00    +0.000 A 
ATOM     14  C   UNL     1       0.313   9.704  18.581  0.00  0.00    +0.000 A 
ATOM     15  C   UNL     1       0.424   9.455  19.996  0.00  0.00    +0.000 A 
ENDBRANCH   4   7
BRANCH   1  16
ATOM     16  C   UNL     1       3.928   4.486  19.237  0.00  0.00    +0.000 C 
BRANCH  16  21
ATOM     17 CL   UNL     1       6.436   3.860  14.312  0.00  0.00    +0.000 Cl
ATOM     18  C   UNL     1       6.046   4.274  15.933  0.00  0.00    +0.000 A 
ATOM     19  C   UNL     1       6.860   4.913  16.832  0.00  0.00    +0.000 A 
ATOM     20  C   UNL     1       6.203   5.077  18.089  0.00  0.00    +0.000 A 
ATOM     21  C   UNL     1       4.917   4.551  18.095  0.00  0.00    +0.000 A 
ATOM     22  S   UNL     1       4.525   3.879  16.560  0.00  0.00    +0.000 S 
ENDBRANCH  16  21
ENDBRANCH   1  16
TORSDOF 3
ENDMDL
MODEL 7
REMARK VINA RESULT:      -6.3      5.590      8.524
REMARK  Name = 
REMARK  3 active torsions:
REMARK  status: ('A' for Active; 'I' for Inactive)
REMARK    1  A    between atoms: C_5  and  C_6
REMARK    2  A    between atoms: C_6  and  N_7
REMARK    3  A    between atoms: N_10  and  C_11
REMARK                            x       y       z     vdW  Elec       q    Type
REMARK                         _______ _______ _______ _____ _____    ______ ____
ROOT
ATOM      1  N   UNL     1       0.259   9.972  19.982  0.00  0.00    +0.000 NA
ATOM      2  C   UNL     1       0.632   9.543  18.616  0.00  0.00    +0.000 C 
ATOM      3  C   UNL     1       1.990   8.824  18.493  0.00  0.00    +0.000 C 
ATOM      4  N   UNL     1       2.074   7.701  19.427  0.00  0.00    +0.000 N 
ATOM      5  C   UNL     1       1.653   7.922  20.805  0.00  0.00    +0.000 C 
ATOM      6  C   UNL     1       0.384   8.817  20.900  0.00  0.00    +0.000 C 
ENDROOT
BRANCH   4   7
ATOM      7  C   UNL     1       2.539   6.486  18.963  0.00  0.00    +0.000 A 
ATOM      8  N   UNL     1       3.463   6.513  17.965  0.00  0.00    +0.000 NA
ATOM      9  C   UNL     1       3.938   5.370  17.456  0.00  0.00    +0.000 A 
ATOM     10  N   UNL     1       3.635   4.129  17.837  0.00  0.00    +0.000 NA
ATOM     11  C   UNL     1       2.748   4.111  18.846  0.00  0.00    +0.000 A 
ATOM     12  S   UNL     1       2.261   2.624  19.520  0.00  0.00    +0.000 S 
ATOM     13  C   UNL     1       1.256   3.401  20.660  0.00  0.00    +0.000 A 
ATOM     14  C   UNL     1       1.289   4.771  20.518  0.00  0.00    +0.000 A 
ATOM     15  C   UNL     1       2.152   5.211  19.451  0.00  0.00    +0.000 A 
ENDBRANCH   4   7
BRANCH   1  16
ATOM     16  C   UNL     1       1.003  11.147  20.449  0.00  0.00    +0.000 C 
BRANCH  16  21
ATOM     17 CL   UNL     1      -0.398  16.157  18.478  0.00  0.00    +0.000 Cl
ATOM     18  C   UNL     1      -0.360  14.653  19.307  0.00  0.00    +0.000 A 
ATOM     19  C   UNL     1      -1.274  14.202  20.224  0.00  0.00    +0.000 A 
ATOM     20  C   UNL     1      -0.910  12.912  20.716  0.00  0.00    +0.000 A 
ATOM     21  C   UNL     1       0.270  12.437  20.156  0.00  0.00    +0.000 A 
ATOM     22  S   UNL     1       0.907  13.566  19.025  0.00  0.00    +0.000 S 
ENDBRANCH  16  21
ENDBRANCH   1  16
TORSDOF 3
ENDMDL
MODEL 8
REMARK VINA RESULT:      -6.3      1.759      2.674
REMARK  Name = 
REMARK  3 active torsions:
REMARK  status: ('A' for Active; 'I' for Inactive)
REMARK    1  A    between atoms: C_5  and  C_6
REMARK    2  A    between atoms: C_6  and  N_7
REMARK    3  A    between atoms: N_10  and  C_11
REMARK                            x       y       z     vdW  Elec       q    Type
REMARK                         _______ _______ _______ _____ _____    ______ ____
ROOT
ATOM      1  N   UNL     1       6.763   6.074  16.150  0.00  0.00    +0.000 NA
ATOM      2  C   UNL     1       5.336   6.306  15.835  0.00  0.00    +0.000 C 
ATOM      3  C   UNL     1       4.327   5.572  16.740  0.00  0.00    +0.000 C 
ATOM      4  N   UNL     1       4.595   5.846  18.152  0.00  0.00    +0.000 N 
ATOM      5  C   UNL     1       5.973   5.754  18.619  0.00  0.00    +0.000 C 
ATOM      6  C   UNL     1       6.986   6.334  17.590  0.00  0.00    +0.000 C 
ENDROOT
BRANCH   4   7
ATOM      7  C   UNL     1       3.538   6.183  18.974  0.00  0.00    +0.000 A 
ATOM      8  N   UNL     1       3.243   5.331  19.992  0.00  0.00    +0.000 NA
ATOM      9  C   UNL     1       2.217   5.590  20.811  0.00  0.00    +0.000 A 
ATOM     10  N   UNL     1       1.410   6.650  20.785  0.00  0.00    +0.000 NA
ATOM     11  C   UNL     1       1.729   7.505  19.798  0.00  0.00    +0.000 A 
ATOM     12  S   UNL     1       0.852   8.955  19.616  0.00  0.00    +0.000 S 
ATOM     13  C   UNL     1       1.816   9.442  18.294  0.00  0.00    +0.000 A 
ATOM     14  C   UNL     1       2.782   8.506  17.995  0.00  0.00    +0.000 A 
ATOM     15  C   UNL     1       2.743   7.354  18.860  0.00  0.00    +0.000 A 
ENDBRANCH   4   7
BRANCH   1  16
ATOM     16  C   UNL     1       7.245   4.752  15.733  0.00  0.00    +0.000 C 
BRANCH  16  21
ATOM     17 CL   UNL     1       4.732   2.698  11.216  0.00  0.00    +0.000 Cl
ATOM     18  C   UNL     1       5.776   3.525  12.300  0.00  0.00    +0.000 A 
ATOM     19  C   UNL     1       6.882   4.263  11.966  0.00  0.00    +0.000 A 
ATOM     20  C   UNL     1       7.514   4.793  13.131  0.00  0.00    +0.000 A 
ATOM     21  C   UNL     1       6.864   4.432  14.305  0.00  0.00    +0.000 A 
ATOM     22  S   UNL     1       5.482   3.464  13.965  0.00  0.00    +0.000 S 
ENDBRANCH  16  21
ENDBRANCH   1  16
TORSDOF 3
ENDMDL
MODEL 9
REMARK VINA RESULT:      -6.3      5.704      8.438
REMARK  Name = 
REMARK  3 active torsions:
REMARK  status: ('A' for Active; 'I' for Inactive)
REMARK    1  A    between atoms: C_5  and  C_6
REMARK    2  A    between atoms: C_6  and  N_7
REMARK    3  A    between atoms: N_10  and  C_11
REMARK                            x       y       z     vdW  Elec       q    Type
REMARK                         _______ _______ _______ _____ _____    ______ ____
ROOT
ATOM      1  N   UNL     1       0.550  10.059  19.484  0.00  0.00    +0.000 NA
ATOM      2  C   UNL     1       0.903   9.501  18.160  0.00  0.00    +0.000 C 
ATOM      3  C   UNL     1       2.215   8.693  18.108  0.00  0.00    +0.000 C 
ATOM      4  N   UNL     1       2.226   7.645  19.128  0.00  0.00    +0.000 N 
ATOM      5  C   UNL     1       1.812   8.000  20.481  0.00  0.00    +0.000 C 
ATOM      6  C   UNL     1       0.599   8.975  20.492  0.00  0.00    +0.000 C 
ENDROOT
BRANCH   4   7
ATOM      7  C   UNL     1       2.618   6.372  18.767  0.00  0.00    +0.000 A 
ATOM      8  N   UNL     1       3.526   6.262  17.760  0.00  0.00    +0.000 NA
ATOM      9  C   UNL     1       3.931   5.055  17.348  0.00  0.00    +0.000 A 
ATOM     10  N   UNL     1       3.569   3.870  17.837  0.00  0.00    +0.000 NA
ATOM     11  C   UNL     1       2.698   3.987  18.854  0.00  0.00    +0.000 A 
ATOM     12  S   UNL     1       2.142   2.592  19.660  0.00  0.00    +0.000 S 
ATOM     13  C   UNL     1       1.198   3.518  20.738  0.00  0.00    +0.000 A 
ATOM     14  C   UNL     1       1.302   4.868  20.478  0.00  0.00    +0.000 A 
ATOM     15  C   UNL     1       2.170   5.166  19.367  0.00  0.00    +0.000 A 
ENDBRANCH   4   7
BRANCH   1  16
ATOM     16  C   UNL     1       1.362  11.220  19.864  0.00  0.00    +0.000 C 
BRANCH  16  21
ATOM     17 CL   UNL     1      -2.102  15.507  20.613  0.00  0.00    +0.000 Cl
ATOM     18  C   UNL     1      -0.924  14.415  20.006  0.00  0.00    +0.000 A 
ATOM     19  C   UNL     1      -0.252  14.516  18.816  0.00  0.00    +0.000 A 
ATOM     20  C   UNL     1       0.641  13.416  18.638  0.00  0.00    +0.000 A 
ATOM     21  C   UNL     1       0.607  12.520  19.699  0.00  0.00    +0.000 A 
ATOM     22  S   UNL     1      -0.503  13.044  20.905  0.00  0.00    +0.000 S 
ENDBRANCH  16  21
ENDBRANCH   1  16
TORSDOF 3
ENDMDL
