MODEL 1
REMARK VINA RESULT:      -7.2      0.000      0.000
REMARK  Name = 
REMARK  7 active torsions:
REMARK  status: ('A' for Active; 'I' for Inactive)
REMARK    1  A    between atoms: C_1  and  C_2
REMARK    2  A    between atoms: C_2  and  N_3
REMARK    3  A    between atoms: C_2  and  C_17
REMARK    4  A    between atoms: C_4  and  C_6
REMARK    5  A    between atoms: C_6  and  N_7
REMARK    6  A    between atoms: C_6  and  C_8
REMARK    7  A    between atoms: C_8  and  C_9
REMARK                            x       y       z     vdW  Elec       q    Type
REMARK                         _______ _______ _______ _____ _____    ______ ____
ROOT
ATOM      1  C   UNL     1       3.850   2.479  18.106  0.00  0.00    +0.000 C 
ENDROOT
BRANCH   1   3
ATOM      2  N   UNL     1       4.153   4.004  16.120  0.00  0.00    +0.000 N 
ATOM      3  C   UNL     1       3.309   3.506  17.077  0.00  0.00    +0.000 C 
ATOM      4  O   UNL     1       2.153   3.933  17.094  0.00  0.00    +0.000 OA
ATOM      5  H   UNL     1       3.722   4.698  15.524  0.00  0.00    +0.000 HD
BRANCH   2   7
ATOM      6  C   UNL     1       6.030   3.721  14.560  0.00  0.00    +0.000 C 
ATOM      7  C   UNL     1       5.597   3.831  16.020  0.00  0.00    +0.000 C 
BRANCH   7   8
ATOM      8  C   UNL     1       6.307   4.933  16.783  0.00  0.00    +0.000 A 
ATOM      9  C   UNL     1       7.203   4.584  17.809  0.00  0.00    +0.000 A 
ATOM     10  C   UNL     1       7.847   5.562  18.562  0.00  0.00    +0.000 A 
ATOM     11  C   UNL     1       7.598   6.909  18.304  0.00  0.00    +0.000 A 
ATOM     12  C   UNL     1       6.713   7.271  17.289  0.00  0.00    +0.000 A 
ATOM     13  C   UNL     1       6.071   6.292  16.531  0.00  0.00    +0.000 A 
ENDBRANCH   7   8
ENDBRANCH   2   7
ENDBRANCH   1   3
BRANCH   1  14
ATOM     14  N   UNL     1       2.868   1.386  18.316  0.00  0.00    +0.000 NA
ATOM     15  H   UNL     1       3.377   0.512  18.458  0.00  0.00    +0.000 HD
ATOM     16  H   UNL     1       2.330   1.254  17.458  0.00  0.00    +0.000 HD
ENDBRANCH   1  14
BRANCH   1  17
ATOM     17  C   UNL     1       4.324   3.118  19.436  0.00  0.00    +0.000 C 
BRANCH  17  18
ATOM     18  C   UNL     1       3.550   4.350  19.870  0.00  0.00    +0.000 A 
ATOM     19  C   UNL     1       3.969   5.604  19.395  0.00  0.00    +0.000 A 
ATOM     20  C   UNL     1       3.207   6.750  19.621  0.00  0.00    +0.000 A 
ATOM     21  C   UNL     1       2.015   6.654  20.330  0.00  0.00    +0.000 A 
ATOM     22 CL   UNL     1       1.030   8.049  20.537  0.00  0.00    +0.000 Cl
ATOM     23  C   UNL     1       1.610   5.436  20.867  0.00  0.00    +0.000 A 
ATOM     24  C   UNL     1       2.387   4.294  20.661  0.00  0.00    +0.000 A 
ATOM     25 CL   UNL     1       1.855   2.828  21.408  0.00  0.00    +0.000 Cl
ENDBRANCH  17  18
ENDBRANCH   1  17
TORSDOF 6
ENDMDL
MODEL 2
REMARK VINA RESULT:      -6.8      3.198      5.580
REMARK  Name = 
REMARK  7 active torsions:
REMARK  status: ('A' for Active; 'I' for Inactive)
REMARK    1  A    between atoms: C_1  and  C_2
REMARK    2  A    between atoms: C_2  and  N_3
REMARK    3  A    between atoms: C_2  and  C_17
REMARK    4  A    between atoms: C_4  and  C_6
REMARK    5  A    between atoms: C_6  and  N_7
REMARK    6  A    between atoms: C_6  and  C_8
REMARK    7  A    between atoms: C_8  and  C_9
REMARK                            x       y       z     vdW  Elec       q    Type
REMARK                         _______ _______ _______ _____ _____    ______ ____
ROOT
ATOM      1  C   UNL     1       4.329   2.940  19.557  0.00  0.00    +0.000 C 
ENDROOT
BRANCH   1   3
ATOM      2  N   UNL     1       2.114   4.097  19.903  0.00  0.00    +0.000 N 
ATOM      3  C   UNL     1       3.033   3.194  20.369  0.00  0.00    +0.000 C 
ATOM      4  O   UNL     1       2.795   2.646  21.449  0.00  0.00    +0.000 OA
ATOM      5  H   UNL     1       1.325   4.226  20.522  0.00  0.00    +0.000 HD
BRANCH   2   7
ATOM      6  C   UNL     1       1.437   4.555  17.587  0.00  0.00    +0.000 C 
ATOM      7  C   UNL     1       2.256   5.023  18.787  0.00  0.00    +0.000 C 
BRANCH   7   8
ATOM      8  C   UNL     1       1.924   6.433  19.236  0.00  0.00    +0.000 A 
ATOM      9  C   UNL     1       2.025   7.486  18.309  0.00  0.00    +0.000 A 
ATOM     10  C   UNL     1       1.770   8.802  18.686  0.00  0.00    +0.000 A 
ATOM     11  C   UNL     1       1.414   9.086  20.002  0.00  0.00    +0.000 A 
ATOM     12  C   UNL     1       1.308   8.054  20.934  0.00  0.00    +0.000 A 
ATOM     13  C   UNL     1       1.560   6.735  20.555  0.00  0.00    +0.000 A 
ENDBRANCH   7   8
ENDBRANCH   2   7
ENDBRANCH   1   3
BRANCH   1  14
ATOM     14  N   UNL     1       5.135   1.863  20.185  0.00  0.00    +0.000 NA
ATOM     15  H   UNL     1       4.537   1.047  20.324  0.00  0.00    +0.000 HD
ATOM     16  H   UNL     1       5.414   2.161  21.121  0.00  0.00    +0.000 HD
ENDBRANCH   1  14
BRANCH   1  17
ATOM     17  C   UNL     1       5.157   4.222  19.286  0.00  0.00    +0.000 C 
BRANCH  17  18
ATOM     18  C   UNL     1       5.790   4.298  17.908  0.00  0.00    +0.000 A 
ATOM     19  C   UNL     1       5.108   3.717  16.826  0.00  0.00    +0.000 A 
ATOM     20  C   UNL     1       5.554   3.895  15.516  0.00  0.00    +0.000 A 
ATOM     21  C   UNL     1       6.691   4.657  15.274  0.00  0.00    +0.000 A 
ATOM     22 CL   UNL     1       7.193   4.950  13.656  0.00  0.00    +0.000 Cl
ATOM     23  C   UNL     1       7.421   5.190  16.332  0.00  0.00    +0.000 A 
ATOM     24  C   UNL     1       6.988   4.989  17.645  0.00  0.00    +0.000 A 
ATOM     25 CL   UNL     1       7.977   5.628  18.911  0.00  0.00    +0.000 Cl
ENDBRANCH  17  18
ENDBRANCH   1  17
TORSDOF 6
ENDMDL
MODEL 3
REMARK VINA RESULT:      -6.8      3.142      5.368
REMARK  Name = 
REMARK  7 active torsions:
REMARK  status: ('A' for Active; 'I' for Inactive)
REMARK    1  A    between atoms: C_1  and  C_2
REMARK    2  A    between atoms: C_2  and  N_3
REMARK    3  A    between atoms: C_2  and  C_17
REMARK    4  A    between atoms: C_4  and  C_6
REMARK    5  A    between atoms: C_6  and  N_7
REMARK    6  A    between atoms: C_6  and  C_8
REMARK    7  A    between atoms: C_8  and  C_9
REMARK                            x       y       z     vdW  Elec       q    Type
REMARK                         _______ _______ _______ _____ _____    ______ ____
ROOT
ATOM      1  C   UNL     1       4.354   2.528  19.878  0.00  0.00    +0.000 C 
ENDROOT
BRANCH   1   3
ATOM      2  N   UNL     1       1.920   2.979  20.363  0.00  0.00    +0.000 N 
ATOM      3  C   UNL     1       3.137   2.563  20.837  0.00  0.00    +0.000 C 
ATOM      4  O   UNL     1       3.211   2.267  22.032  0.00  0.00    +0.000 OA
ATOM      5  H   UNL     1       1.200   3.009  21.073  0.00  0.00    +0.000 HD
BRANCH   2   7
ATOM      6  C   UNL     1       0.236   3.159  18.585  0.00  0.00    +0.000 C 
ATOM      7  C   UNL     1       1.621   3.580  19.070  0.00  0.00    +0.000 C 
BRANCH   7   8
ATOM      8  C   UNL     1       1.808   5.084  19.140  0.00  0.00    +0.000 A 
ATOM      9  C   UNL     1       2.238   5.771  17.991  0.00  0.00    +0.000 A 
ATOM     10  C   UNL     1       2.462   7.145  18.019  0.00  0.00    +0.000 A 
ATOM     11  C   UNL     1       2.265   7.853  19.202  0.00  0.00    +0.000 A 
ATOM     12  C   UNL     1       1.838   7.187  20.350  0.00  0.00    +0.000 A 
ATOM     13  C   UNL     1       1.609   5.811  20.321  0.00  0.00    +0.000 A 
ENDBRANCH   7   8
ENDBRANCH   2   7
ENDBRANCH   1   3
BRANCH   1  14
ATOM     14  N   UNL     1       5.316   1.478  20.294  0.00  0.00    +0.000 NA
ATOM     15  H   UNL     1       6.186   1.607  19.776  0.00  0.00    +0.000 HD
ATOM     16  H   UNL     1       4.957   0.566  20.004  0.00  0.00    +0.000 HD
ENDBRANCH   1  14
BRANCH   1  17
ATOM     17  C   UNL     1       5.030   3.909  19.675  0.00  0.00    +0.000 C 
BRANCH  17  18
ATOM     18  C   UNL     1       5.656   4.124  18.309  0.00  0.00    +0.000 A 
ATOM     19  C   UNL     1       5.029   3.553  17.189  0.00  0.00    +0.000 A 
ATOM     20  C   UNL     1       5.459   3.849  15.896  0.00  0.00    +0.000 A 
ATOM     21  C   UNL     1       6.526   4.720  15.708  0.00  0.00    +0.000 A 
ATOM     22 CL   UNL     1       7.003   5.154  14.114  0.00  0.00    +0.000 Cl
ATOM     23  C   UNL     1       7.206   5.247  16.801  0.00  0.00    +0.000 A 
ATOM     24  C   UNL     1       6.790   4.930  18.097  0.00  0.00    +0.000 A 
ATOM     25 CL   UNL     1       7.718   5.573  19.406  0.00  0.00    +0.000 Cl
ENDBRANCH  17  18
ENDBRANCH   1  17
TORSDOF 6
ENDMDL
MODEL 4
REMARK VINA RESULT:      -6.7      0.442      1.119
REMARK  Name = 
REMARK  7 active torsions:
REMARK  status: ('A' for Active; 'I' for Inactive)
REMARK    1  A    between atoms: C_1  and  C_2
REMARK    2  A    between atoms: C_2  and  N_3
REMARK    3  A    between atoms: C_2  and  C_17
REMARK    4  A    between atoms: C_4  and  C_6
REMARK    5  A    between atoms: C_6  and  N_7
REMARK    6  A    between atoms: C_6  and  C_8
REMARK    7  A    between atoms: C_8  and  C_9
REMARK                            x       y       z     vdW  Elec       q    Type
REMARK                         _______ _______ _______ _____ _____    ______ ____
ROOT
ATOM      1  C   UNL     1       4.218   2.465  18.325  0.00  0.00    +0.000 C 
ENDROOT
BRANCH   1   3
ATOM      2  N   UNL     1       4.279   3.907  16.257  0.00  0.00    +0.000 N 
ATOM      3  C   UNL     1       3.536   3.393  17.287  0.00  0.00    +0.000 C 
ATOM      4  O   UNL     1       2.351   3.730  17.358  0.00  0.00    +0.000 OA
ATOM      5  H   UNL     1       3.758   4.535  15.658  0.00  0.00    +0.000 HD
BRANCH   2   7
ATOM      6  C   UNL     1       6.084   3.878  14.591  0.00  0.00    +0.000 C 
ATOM      7  C   UNL     1       5.723   3.842  16.074  0.00  0.00    +0.000 C 
BRANCH   7   8
ATOM      8  C   UNL     1       6.400   4.928  16.890  0.00  0.00    +0.000 A 
ATOM      9  C   UNL     1       6.189   6.273  16.542  0.00  0.00    +0.000 A 
ATOM     10  C   UNL     1       6.820   7.302  17.236  0.00  0.00    +0.000 A 
ATOM     11  C   UNL     1       7.681   6.998  18.289  0.00  0.00    +0.000 A 
ATOM     12  C   UNL     1       7.900   5.668  18.648  0.00  0.00    +0.000 A 
ATOM     13  C   UNL     1       7.263   4.638  17.955  0.00  0.00    +0.000 A 
ENDBRANCH   7   8
ENDBRANCH   2   7
ENDBRANCH   1   3
BRANCH   1  14
ATOM     14  N   UNL     1       3.824   1.052  18.099  0.00  0.00    +0.000 NA
ATOM     15  H   UNL     1       2.829   1.022  17.871  0.00  0.00    +0.000 HD
ATOM     16  H   UNL     1       3.920   0.536  18.975  0.00  0.00    +0.000 HD
ENDBRANCH   1  14
BRANCH   1  17
ATOM     17  C   UNL     1       4.010   2.912  19.795  0.00  0.00    +0.000 C 
BRANCH  17  18
ATOM     18  C   UNL     1       3.403   4.293  19.967  0.00  0.00    +0.000 A 
ATOM     19  C   UNL     1       4.110   5.401  19.469  0.00  0.00    +0.000 A 
ATOM     20  C   UNL     1       3.534   6.671  19.449  0.00  0.00    +0.000 A 
ATOM     21  C   UNL     1       2.242   6.848  19.930  0.00  0.00    +0.000 A 
ATOM     22 CL   UNL     1       1.497   8.394  19.827  0.00  0.00    +0.000 Cl
ATOM     23  C   UNL     1       1.544   5.781  20.488  0.00  0.00    +0.000 A 
ATOM     24  C   UNL     1       2.133   4.514  20.530  0.00  0.00    +0.000 A 
ATOM     25 CL   UNL     1       1.233   3.249  21.292  0.00  0.00    +0.000 Cl
ENDBRANCH  17  18
ENDBRANCH   1  17
TORSDOF 6
ENDMDL
MODEL 5
REMARK VINA RESULT:      -6.6      2.125      3.569
REMARK  Name = 
REMARK  7 active torsions:
REMARK  status: ('A' for Active; 'I' for Inactive)
REMARK    1  A    between atoms: C_1  and  C_2
REMARK    2  A    between atoms: C_2  and  N_3
REMARK    3  A    between atoms: C_2  and  C_17
REMARK    4  A    between atoms: C_4  and  C_6
REMARK    5  A    between atoms: C_6  and  N_7
REMARK    6  A    between atoms: C_6  and  C_8
REMARK    7  A    between atoms: C_8  and  C_9
REMARK                            x       y       z     vdW  Elec       q    Type
REMARK                         _______ _______ _______ _____ _____    ______ ____
ROOT
ATOM      1  C   UNL     1       4.087   5.013  18.078  0.00  0.00    +0.000 C 
ENDROOT
BRANCH   1   3
ATOM      2  N   UNL     1       5.485   3.572  16.552  0.00  0.00    +0.000 N 
ATOM      3  C   UNL     1       4.390   3.668  17.370  0.00  0.00    +0.000 C 
ATOM      4  O   UNL     1       3.669   2.673  17.475  0.00  0.00    +0.000 OA
ATOM      5  H   UNL     1       5.575   2.670  16.102  0.00  0.00    +0.000 HD
BRANCH   2   7
ATOM      6  C   UNL     1       7.647   4.680  16.910  0.00  0.00    +0.000 C 
ATOM      7  C   UNL     1       6.358   4.645  16.094  0.00  0.00    +0.000 C 
BRANCH   7   8
ATOM      8  C   UNL     1       6.589   4.525  14.599  0.00  0.00    +0.000 A 
ATOM      9  C   UNL     1       5.790   3.640  13.855  0.00  0.00    +0.000 A 
ATOM     10  C   UNL     1       5.992   3.467  12.488  0.00  0.00    +0.000 A 
ATOM     11  C   UNL     1       7.005   4.175  11.845  0.00  0.00    +0.000 A 
ATOM     12  C   UNL     1       7.805   5.058  12.568  0.00  0.00    +0.000 A 
ATOM     13  C   UNL     1       7.600   5.235  13.937  0.00  0.00    +0.000 A 
ENDBRANCH   7   8
ENDBRANCH   2   7
ENDBRANCH   1   3
BRANCH   1  14
ATOM     14  N   UNL     1       4.645   5.016  19.454  0.00  0.00    +0.000 NA
ATOM     15  H   UNL     1       4.790   5.984  19.746  0.00  0.00    +0.000 HD
ATOM     16  H   UNL     1       5.574   4.593  19.435  0.00  0.00    +0.000 HD
ENDBRANCH   1  14
BRANCH   1  17
ATOM     17  C   UNL     1       2.591   5.416  18.041  0.00  0.00    +0.000 C 
BRANCH  17  18
ATOM     18  C   UNL     1       2.283   6.796  18.594  0.00  0.00    +0.000 A 
ATOM     19  C   UNL     1       2.401   7.902  17.735  0.00  0.00    +0.000 A 
ATOM     20  C   UNL     1       1.976   9.169  18.133  0.00  0.00    +0.000 A 
ATOM     21  C   UNL     1       1.429   9.345  19.399  0.00  0.00    +0.000 A 
ATOM     22 CL   UNL     1       0.825  10.888  19.861  0.00  0.00    +0.000 Cl
ATOM     23  C   UNL     1       1.360   8.280  20.292  0.00  0.00    +0.000 A 
ATOM     24  C   UNL     1       1.809   7.017  19.900  0.00  0.00    +0.000 A 
ATOM     25 CL   UNL     1       1.749   5.755  21.081  0.00  0.00    +0.000 Cl
ENDBRANCH  17  18
ENDBRANCH   1  17
TORSDOF 6
ENDMDL
MODEL 6
REMARK VINA RESULT:      -6.6      2.586      4.720
REMARK  Name = 
REMARK  7 active torsions:
REMARK  status: ('A' for Active; 'I' for Inactive)
REMARK    1  A    between atoms: C_1  and  C_2
REMARK    2  A    between atoms: C_2  and  N_3
REMARK    3  A    between atoms: C_2  and  C_17
REMARK    4  A    between atoms: C_4  and  C_6
REMARK    5  A    between atoms: C_6  and  N_7
REMARK    6  A    between atoms: C_6  and  C_8
REMARK    7  A    between atoms: C_8  and  C_9
REMARK                            x       y       z     vdW  Elec       q    Type
REMARK                         _______ _______ _______ _____ _____    ______ ____
ROOT
ATOM      1  C   UNL     1       6.655   5.840  17.978  0.00  0.00    +0.000 C 
ENDROOT
BRANCH   1   3
ATOM      2  N   UNL     1       6.988   4.189  16.101  0.00  0.00    +0.000 N 
ATOM      3  C   UNL     1       7.413   4.663  17.315  0.00  0.00    +0.000 C 
ATOM      4  O   UNL     1       8.373   4.095  17.843  0.00  0.00    +0.000 OA
ATOM      5  H   UNL     1       7.518   3.393  15.771  0.00  0.00    +0.000 HD
BRANCH   2   7
ATOM      6  C   UNL     1       5.429   6.011  15.569  0.00  0.00    +0.000 C 
ATOM      7  C   UNL     1       5.768   4.534  15.383  0.00  0.00    +0.000 C 
BRANCH   7   8
ATOM      8  C   UNL     1       5.885   4.116  13.929  0.00  0.00    +0.000 A 
ATOM      9  C   UNL     1       4.751   3.602  13.275  0.00  0.00    +0.000 A 
ATOM     10  C   UNL     1       4.821   3.168  11.953  0.00  0.00    +0.000 A 
ATOM     11  C   UNL     1       6.031   3.237  11.267  0.00  0.00    +0.000 A 
ATOM     12  C   UNL     1       7.164   3.746  11.900  0.00  0.00    +0.000 A 
ATOM     13  C   UNL     1       7.093   4.184  13.223  0.00  0.00    +0.000 A 
ENDBRANCH   7   8
ENDBRANCH   2   7
ENDBRANCH   1   3
BRANCH   1  14
ATOM     14  N   UNL     1       7.577   6.974  18.240  0.00  0.00    +0.000 NA
ATOM     15  H   UNL     1       8.518   6.603  18.381  0.00  0.00    +0.000 HD
ATOM     16  H   UNL     1       7.319   7.413  19.126  0.00  0.00    +0.000 HD
ENDBRANCH   1  14
BRANCH   1  17
ATOM     17  C   UNL     1       5.842   5.432  19.234  0.00  0.00    +0.000 C 
BRANCH  17  18
ATOM     18  C   UNL     1       4.555   4.679  18.949  0.00  0.00    +0.000 A 
ATOM     19  C   UNL     1       4.541   3.286  19.130  0.00  0.00    +0.000 A 
ATOM     20  C   UNL     1       3.353   2.562  19.045  0.00  0.00    +0.000 A 
ATOM     21  C   UNL     1       2.161   3.225  18.775  0.00  0.00    +0.000 A 
ATOM     22 CL   UNL     1       0.681   2.348  18.755  0.00  0.00    +0.000 Cl
ATOM     23  C   UNL     1       2.156   4.594  18.528  0.00  0.00    +0.000 A 
ATOM     24  C   UNL     1       3.352   5.314  18.589  0.00  0.00    +0.000 A 
ATOM     25 CL   UNL     1       3.280   7.001  18.212  0.00  0.00    +0.000 Cl
ENDBRANCH  17  18
ENDBRANCH   1  17
TORSDOF 6
ENDMDL
MODEL 7
REMARK VINA RESULT:      -6.5      2.605      4.708
REMARK  Name = 
REMARK  7 active torsions:
REMARK  status: ('A' for Active; 'I' for Inactive)
REMARK    1  A    between atoms: C_1  and  C_2
REMARK    2  A    between atoms: C_2  and  N_3
REMARK    3  A    between atoms: C_2  and  C_17
REMARK    4  A    between atoms: C_4  and  C_6
REMARK    5  A    between atoms: C_6  and  N_7
REMARK    6  A    between atoms: C_6  and  C_8
REMARK    7  A    between atoms: C_8  and  C_9
REMARK                            x       y       z     vdW  Elec       q    Type
REMARK                         _______ _______ _______ _____ _____    ______ ____
ROOT
ATOM      1  C   UNL     1       6.672   5.824  17.956  0.00  0.00    +0.000 C 
ENDROOT
BRANCH   1   3
ATOM      2  N   UNL     1       7.007   4.172  16.078  0.00  0.00    +0.000 N 
ATOM      3  C   UNL     1       7.434   4.649  17.290  0.00  0.00    +0.000 C 
ATOM      4  O   UNL     1       8.398   4.086  17.815  0.00  0.00    +0.000 OA
ATOM      5  H   UNL     1       7.540   3.379  15.747  0.00  0.00    +0.000 HD
BRANCH   2   7
ATOM      6  C   UNL     1       5.491   6.006  15.469  0.00  0.00    +0.000 C 
ATOM      7  C   UNL     1       5.783   4.511  15.364  0.00  0.00    +0.000 C 
BRANCH   7   8
ATOM      8  C   UNL     1       5.858   4.006  13.936  0.00  0.00    +0.000 A 
ATOM      9  C   UNL     1       7.084   4.074  13.252  0.00  0.00    +0.000 A 
ATOM     10  C   UNL     1       7.191   3.660  11.926  0.00  0.00    +0.000 A 
ATOM     11  C   UNL     1       6.067   3.176  11.261  0.00  0.00    +0.000 A 
ATOM     12  C   UNL     1       4.843   3.101  11.926  0.00  0.00    +0.000 A 
ATOM     13  C   UNL     1       4.737   3.512  13.255  0.00  0.00    +0.000 A 
ENDBRANCH   7   8
ENDBRANCH   2   7
ENDBRANCH   1   3
BRANCH   1  14
ATOM     14  N   UNL     1       7.593   6.957  18.223  0.00  0.00    +0.000 NA
ATOM     15  H   UNL     1       8.554   6.621  18.149  0.00  0.00    +0.000 HD
ATOM     16  H   UNL     1       7.480   7.253  19.195  0.00  0.00    +0.000 HD
ENDBRANCH   1  14
BRANCH   1  17
ATOM     17  C   UNL     1       5.856   5.410  19.207  0.00  0.00    +0.000 C 
BRANCH  17  18
ATOM     18  C   UNL     1       4.569   4.660  18.917  0.00  0.00    +0.000 A 
ATOM     19  C   UNL     1       4.538   3.274  19.142  0.00  0.00    +0.000 A 
ATOM     20  C   UNL     1       3.345   2.557  19.052  0.00  0.00    +0.000 A 
ATOM     21  C   UNL     1       2.166   3.221  18.732  0.00  0.00    +0.000 A 
ATOM     22 CL   UNL     1       0.680   2.357  18.705  0.00  0.00    +0.000 Cl
ATOM     23  C   UNL     1       2.180   4.582  18.441  0.00  0.00    +0.000 A 
ATOM     24  C   UNL     1       3.381   5.293  18.507  0.00  0.00    +0.000 A 
ATOM     25 CL   UNL     1       3.334   6.967  18.075  0.00  0.00    +0.000 Cl
ENDBRANCH  17  18
ENDBRANCH   1  17
TORSDOF 6
ENDMDL
MODEL 8
REMARK VINA RESULT:      -6.3      2.702      5.343
REMARK  Name = 
REMARK  7 active torsions:
REMARK  status: ('A' for Active; 'I' for Inactive)
REMARK    1  A    between atoms: C_1  and  C_2
REMARK    2  A    between atoms: C_2  and  N_3
REMARK    3  A    between atoms: C_2  and  C_17
REMARK    4  A    between atoms: C_4  and  C_6
REMARK    5  A    between atoms: C_6  and  N_7
REMARK    6  A    between atoms: C_6  and  C_8
REMARK    7  A    between atoms: C_8  and  C_9
REMARK                            x       y       z     vdW  Elec       q    Type
REMARK                         _______ _______ _______ _____ _____    ______ ____
ROOT
ATOM      1  C   UNL     1       4.546   3.837  17.749  0.00  0.00    +0.000 C 
ENDROOT
BRANCH   1   3
ATOM      2  N   UNL     1       3.137   3.291  19.769  0.00  0.00    +0.000 N 
ATOM      3  C   UNL     1       4.385   3.324  19.204  0.00  0.00    +0.000 C 
ATOM      4  O   UNL     1       5.337   2.973  19.905  0.00  0.00    +0.000 OA
ATOM      5  H   UNL     1       3.139   2.984  20.733  0.00  0.00    +0.000 HD
BRANCH   2   7
ATOM      6  C   UNL     1       0.687   3.207  19.911  0.00  0.00    +0.000 C 
ATOM      7  C   UNL     1       1.899   3.848  19.240  0.00  0.00    +0.000 C 
BRANCH   7   8
ATOM      8  C   UNL     1       1.922   5.361  19.345  0.00  0.00    +0.000 A 
ATOM      9  C   UNL     1       2.255   6.118  18.209  0.00  0.00    +0.000 A 
ATOM     10  C   UNL     1       2.329   7.508  18.268  0.00  0.00    +0.000 A 
ATOM     11  C   UNL     1       2.075   8.161  19.472  0.00  0.00    +0.000 A 
ATOM     12  C   UNL     1       1.742   7.425  20.608  0.00  0.00    +0.000 A 
ATOM     13  C   UNL     1       1.664   6.033  20.547  0.00  0.00    +0.000 A 
ENDBRANCH   7   8
ENDBRANCH   2   7
ENDBRANCH   1   3
BRANCH   1  14
ATOM     14  N   UNL     1       3.817   2.956  16.803  0.00  0.00    +0.000 NA
ATOM     15  H   UNL     1       2.936   2.672  17.233  0.00  0.00    +0.000 HD
ATOM     16  H   UNL     1       4.350   2.094  16.674  0.00  0.00    +0.000 HD
ENDBRANCH   1  14
BRANCH   1  17
ATOM     17  C   UNL     1       6.020   4.071  17.329  0.00  0.00    +0.000 C 
BRANCH  17  18
ATOM     18  C   UNL     1       6.573   5.444  17.666  0.00  0.00    +0.000 A 
ATOM     19  C   UNL     1       7.524   5.547  18.695  0.00  0.00    +0.000 A 
ATOM     20  C   UNL     1       8.189   6.748  18.942  0.00  0.00    +0.000 A 
ATOM     21  C   UNL     1       7.908   7.863  18.160  0.00  0.00    +0.000 A 
ATOM     22 CL   UNL     1       8.787   9.321  18.404  0.00  0.00    +0.000 Cl
ATOM     23  C   UNL     1       6.924   7.806  17.177  0.00  0.00    +0.000 A 
ATOM     24  C   UNL     1       6.241   6.609  16.949  0.00  0.00    +0.000 A 
ATOM     25 CL   UNL     1       4.991   6.627  15.754  0.00  0.00    +0.000 Cl
ENDBRANCH  17  18
ENDBRANCH   1  17
TORSDOF 6
ENDMDL
MODEL 9
REMARK VINA RESULT:      -6.3      2.723      5.475
REMARK  Name = 
REMARK  7 active torsions:
REMARK  status: ('A' for Active; 'I' for Inactive)
REMARK    1  A    between atoms: C_1  and  C_2
REMARK    2  A    between atoms: C_2  and  N_3
REMARK    3  A    between atoms: C_2  and  C_17
REMARK    4  A    between atoms: C_4  and  C_6
REMARK    5  A    between atoms: C_6  and  N_7
REMARK    6  A    between atoms: C_6  and  C_8
REMARK    7  A    between atoms: C_8  and  C_9
REMARK                            x       y       z     vdW  Elec       q    Type
REMARK                         _______ _______ _______ _____ _____    ______ ____
ROOT
ATOM      1  C   UNL     1       6.141   7.032  17.409  0.00  0.00    +0.000 C 
ENDROOT
BRANCH   1   3
ATOM      2  N   UNL     1       3.727   7.372  16.760  0.00  0.00    +0.000 N 
ATOM      3  C   UNL     1       4.991   7.014  16.369  0.00  0.00    +0.000 C 
ATOM      4  O   UNL     1       5.145   6.655  15.199  0.00  0.00    +0.000 OA
ATOM      5  H   UNL     1       3.038   7.287  16.024  0.00  0.00    +0.000 HD
BRANCH   2   7
ATOM      6  C   UNL     1       2.394   8.887  18.160  0.00  0.00    +0.000 C 
ATOM      7  C   UNL     1       3.245   7.620  18.113  0.00  0.00    +0.000 C 
BRANCH   7   8
ATOM      8  C   UNL     1       2.533   6.391  18.645  0.00  0.00    +0.000 A 
ATOM      9  C   UNL     1       2.026   5.449  17.733  0.00  0.00    +0.000 A 
ATOM     10  C   UNL     1       1.331   4.326  18.174  0.00  0.00    +0.000 A 
ATOM     11  C   UNL     1       1.126   4.132  19.538  0.00  0.00    +0.000 A 
ATOM     12  C   UNL     1       1.623   5.056  20.456  0.00  0.00    +0.000 A 
ATOM     13  C   UNL     1       2.324   6.180  20.014  0.00  0.00    +0.000 A 
ENDBRANCH   7   8
ENDBRANCH   2   7
ENDBRANCH   1   3
BRANCH   1  14
ATOM     14  N   UNL     1       7.059   8.170  17.151  0.00  0.00    +0.000 NA
ATOM     15  H   UNL     1       6.706   8.993  17.641  0.00  0.00    +0.000 HD
ATOM     16  H   UNL     1       7.023   8.406  16.157  0.00  0.00    +0.000 HD
ENDBRANCH   1  14
BRANCH   1  17
ATOM     17  C   UNL     1       6.889   5.681  17.537  0.00  0.00    +0.000 C 
BRANCH  17  18
ATOM     18  C   UNL     1       6.006   4.483  17.837  0.00  0.00    +0.000 A 
ATOM     19  C   UNL     1       5.595   4.270  19.163  0.00  0.00    +0.000 A 
ATOM     20  C   UNL     1       4.655   3.289  19.476  0.00  0.00    +0.000 A 
ATOM     21  C   UNL     1       4.114   2.506  18.463  0.00  0.00    +0.000 A 
ATOM     22 CL   UNL     1       2.892   1.355  18.833  0.00  0.00    +0.000 Cl
ATOM     23  C   UNL     1       4.551   2.652  17.150  0.00  0.00    +0.000 A 
ATOM     24  C   UNL     1       5.512   3.619  16.842  0.00  0.00    +0.000 A 
ATOM     25 CL   UNL     1       6.051   3.703  15.201  0.00  0.00    +0.000 Cl
ENDBRANCH  17  18
ENDBRANCH   1  17
TORSDOF 6
ENDMDL
