MODEL 1
REMARK VINA RESULT:      -7.8      0.000      0.000
REMARK  Name = 
REMARK  5 active torsions:
REMARK  status: ('A' for Active; 'I' for Inactive)
REMARK    1  A    between atoms: C_1  and  C_2
REMARK    2  A    between atoms: C_5  and  C_6
REMARK    3  A    between atoms: C_6  and  N_7
REMARK    4  A    between atoms: C_8  and  C_10
REMARK    5  A    between atoms: C_14  and  C_15
REMARK                            x       y       z     vdW  Elec       q    Type
REMARK                         _______ _______ _______ _____ _____    ______ ____
ROOT
ATOM      1  N   UNL     1       4.482   5.484  17.059  0.00  0.00    +0.000 N 
ATOM      2  C   UNL     1       4.342   5.194  18.398  0.00  0.00    +0.000 C 
ATOM      3  O   UNL     1       5.191   5.510  19.229  0.00  0.00    +0.000 OA
ATOM      4  H   UNL     1       3.946   4.956  16.381  0.00  0.00    +0.000 HD
ENDROOT
BRANCH   2   5
ATOM      5  C   UNL     1       3.129   4.429  18.822  0.00  0.00    +0.000 A 
ATOM      6  C   UNL     1       2.174   4.115  17.843  0.00  0.00    +0.000 A 
ATOM      7  C   UNL     1       1.048   3.359  18.167  0.00  0.00    +0.000 A 
ATOM      8  C   UNL     1       0.864   2.903  19.471  0.00  0.00    +0.000 A 
ATOM      9  C   UNL     1       1.798   3.213  20.465  0.00  0.00    +0.000 A 
ATOM     10  C   UNL     1       1.638   2.692  21.864  0.00  0.00    +0.000 C 
ATOM     11  C   UNL     1       2.927   3.981  20.135  0.00  0.00    +0.000 A 
ENDBRANCH   2   5
BRANCH   1  12
ATOM     12  C   UNL     1       5.688   6.101  16.522  0.00  0.00    +0.000 C 
BRANCH  12  17
ATOM     13  C   UNL     1       5.819   3.630  12.941  0.00  0.00    +0.000 C 
ATOM     14  C   UNL     1       6.502   4.302  14.083  0.00  0.00    +0.000 C 
ATOM     15  N   UNL     1       7.298   5.313  13.939  0.00  0.00    +0.000 NA
ATOM     16  O   UNL     1       7.714   5.685  15.244  0.00  0.00    +0.000 OA
ATOM     17  C   UNL     1       6.792   5.086  16.178  0.00  0.00    +0.000 C 
ATOM     18  C   UNL     1       6.326   3.831  15.479  0.00  0.00    +0.000 C 
ENDBRANCH  12  17
ENDBRANCH   1  12
TORSDOF 3
ENDMDL
MODEL 2
REMARK VINA RESULT:      -7.5      1.182      1.707
REMARK  Name = 
REMARK  5 active torsions:
REMARK  status: ('A' for Active; 'I' for Inactive)
REMARK    1  A    between atoms: C_1  and  C_2
REMARK    2  A    between atoms: C_5  and  C_6
REMARK    3  A    between atoms: C_6  and  N_7
REMARK    4  A    between atoms: C_8  and  C_10
REMARK    5  A    between atoms: C_14  and  C_15
REMARK                            x       y       z     vdW  Elec       q    Type
REMARK                         _______ _______ _______ _____ _____    ______ ____
ROOT
ATOM      1  N   UNL     1       4.741   5.435  17.222  0.00  0.00    +0.000 N 
ATOM      2  C   UNL     1       3.717   6.146  17.806  0.00  0.00    +0.000 C 
ATOM      3  O   UNL     1       3.579   7.356  17.636  0.00  0.00    +0.000 OA
ATOM      4  H   UNL     1       5.008   4.541  17.616  0.00  0.00    +0.000 HD
ENDROOT
BRANCH   2   5
ATOM      5  C   UNL     1       2.781   5.407  18.709  0.00  0.00    +0.000 A 
ATOM      6  C   UNL     1       2.445   6.000  19.935  0.00  0.00    +0.000 A 
ATOM      7  C   UNL     1       1.537   5.384  20.795  0.00  0.00    +0.000 A 
ATOM      8  C   UNL     1       0.951   4.170  20.440  0.00  0.00    +0.000 A 
ATOM      9  C   UNL     1       1.280   3.556  19.228  0.00  0.00    +0.000 A 
ATOM     10  C   UNL     1       0.624   2.272  18.810  0.00  0.00    +0.000 C 
ATOM     11  C   UNL     1       2.200   4.177  18.368  0.00  0.00    +0.000 A 
ENDBRANCH   2   5
BRANCH   1  12
ATOM     12  C   UNL     1       5.785   6.082  16.439  0.00  0.00    +0.000 C 
BRANCH  12  17
ATOM     13  C   UNL     1       5.876   3.578  12.879  0.00  0.00    +0.000 C 
ATOM     14  C   UNL     1       6.577   4.305  13.976  0.00  0.00    +0.000 C 
ATOM     15  N   UNL     1       7.300   5.362  13.778  0.00  0.00    +0.000 NA
ATOM     16  O   UNL     1       7.761   5.775  15.056  0.00  0.00    +0.000 OA
ATOM     17  C   UNL     1       6.930   5.132  16.044  0.00  0.00    +0.000 C 
ATOM     18  C   UNL     1       6.506   3.842  15.384  0.00  0.00    +0.000 C 
ENDBRANCH  12  17
ENDBRANCH   1  12
TORSDOF 3
ENDMDL
MODEL 3
REMARK VINA RESULT:      -7.3      1.887      2.800
REMARK  Name = 
REMARK  5 active torsions:
REMARK  status: ('A' for Active; 'I' for Inactive)
REMARK    1  A    between atoms: C_1  and  C_2
REMARK    2  A    between atoms: C_5  and  C_6
REMARK    3  A    between atoms: C_6  and  N_7
REMARK    4  A    between atoms: C_8  and  C_10
REMARK    5  A    between atoms: C_14  and  C_15
REMARK                            x       y       z     vdW  Elec       q    Type
REMARK                         _______ _______ _______ _____ _____    ______ ____
ROOT
ATOM      1  N   UNL     1       4.704   5.375  16.926  0.00  0.00    +0.000 N 
ATOM      2  C   UNL     1       4.203   4.290  17.610  0.00  0.00    +0.000 C 
ATOM      3  O   UNL     1       4.438   3.133  17.267  0.00  0.00    +0.000 OA
ATOM      4  H   UNL     1       4.256   6.277  17.033  0.00  0.00    +0.000 HD
ENDROOT
BRANCH   2   5
ATOM      5  C   UNL     1       3.309   4.556  18.779  0.00  0.00    +0.000 A 
ATOM      6  C   UNL     1       2.923   5.883  19.022  0.00  0.00    +0.000 A 
ATOM      7  C   UNL     1       2.049   6.187  20.065  0.00  0.00    +0.000 A 
ATOM      8  C   UNL     1       1.545   5.170  20.874  0.00  0.00    +0.000 A 
ATOM      9  C   UNL     1       1.924   3.842  20.655  0.00  0.00    +0.000 A 
ATOM     10  C   UNL     1       1.356   2.730  21.489  0.00  0.00    +0.000 C 
ATOM     11  C   UNL     1       2.810   3.541  19.608  0.00  0.00    +0.000 A 
ENDBRANCH   2   5
BRANCH   1  12
ATOM     12  C   UNL     1       5.470   5.228  15.695  0.00  0.00    +0.000 C 
BRANCH  12  17
ATOM     13  C   UNL     1       7.642   5.648  19.444  0.00  0.00    +0.000 C 
ATOM     14  C   UNL     1       7.624   5.439  17.968  0.00  0.00    +0.000 C 
ATOM     15  N   UNL     1       7.947   4.318  17.405  0.00  0.00    +0.000 NA
ATOM     16  O   UNL     1       7.770   4.505  16.009  0.00  0.00    +0.000 OA
ATOM     17  C   UNL     1       6.938   5.670  15.832  0.00  0.00    +0.000 C 
ATOM     18  C   UNL     1       7.248   6.529  17.034  0.00  0.00    +0.000 C 
ENDBRANCH  12  17
ENDBRANCH   1  12
TORSDOF 3
ENDMDL
MODEL 4
REMARK VINA RESULT:      -7.2      2.488      6.354
REMARK  Name = 
REMARK  5 active torsions:
REMARK  status: ('A' for Active; 'I' for Inactive)
REMARK    1  A    between atoms: C_1  and  C_2
REMARK    2  A    between atoms: C_5  and  C_6
REMARK    3  A    between atoms: C_6  and  N_7
REMARK    4  A    between atoms: C_8  and  C_10
REMARK    5  A    between atoms: C_14  and  C_15
REMARK                            x       y       z     vdW  Elec       q    Type
REMARK                         _______ _______ _______ _____ _____    ______ ____
ROOT
ATOM      1  N   UNL     1       3.827   2.392  17.915  0.00  0.00    +0.000 N 
ATOM      2  C   UNL     1       4.797   3.292  18.297  0.00  0.00    +0.000 C 
ATOM      3  O   UNL     1       5.054   3.516  19.478  0.00  0.00    +0.000 OA
ATOM      4  H   UNL     1       3.431   2.457  16.985  0.00  0.00    +0.000 HD
ENDROOT
BRANCH   2   5
ATOM      5  C   UNL     1       5.515   4.041  17.220  0.00  0.00    +0.000 A 
ATOM      6  C   UNL     1       6.294   5.145  17.594  0.00  0.00    +0.000 A 
ATOM      7  C   UNL     1       7.028   5.851  16.642  0.00  0.00    +0.000 A 
ATOM      8  C   UNL     1       6.996   5.460  15.304  0.00  0.00    +0.000 A 
ATOM      9  C   UNL     1       6.218   4.368  14.907  0.00  0.00    +0.000 A 
ATOM     10  C   UNL     1       6.208   3.907  13.479  0.00  0.00    +0.000 C 
ATOM     11  C   UNL     1       5.475   3.665  15.869  0.00  0.00    +0.000 A 
ENDBRANCH   2   5
BRANCH   1  12
ATOM     12  C   UNL     1       2.975   1.714  18.884  0.00  0.00    +0.000 C 
BRANCH  12  17
ATOM     13  C   UNL     1       1.716   5.506  20.610  0.00  0.00    +0.000 C 
ATOM     14  C   UNL     1       1.502   4.372  19.666  0.00  0.00    +0.000 C 
ATOM     15  N   UNL     1       1.594   4.493  18.379  0.00  0.00    +0.000 NA
ATOM     16  O   UNL     1       1.361   3.201  17.838  0.00  0.00    +0.000 OA
ATOM     17  C   UNL     1       1.533   2.248  18.908  0.00  0.00    +0.000 C 
ATOM     18  C   UNL     1       1.144   3.015  20.149  0.00  0.00    +0.000 C 
ENDBRANCH  12  17
ENDBRANCH   1  12
TORSDOF 3
ENDMDL
MODEL 5
REMARK VINA RESULT:      -7.2      2.828      6.050
REMARK  Name = 
REMARK  5 active torsions:
REMARK  status: ('A' for Active; 'I' for Inactive)
REMARK    1  A    between atoms: C_1  and  C_2
REMARK    2  A    between atoms: C_5  and  C_6
REMARK    3  A    between atoms: C_6  and  N_7
REMARK    4  A    between atoms: C_8  and  C_10
REMARK    5  A    between atoms: C_14  and  C_15
REMARK                            x       y       z     vdW  Elec       q    Type
REMARK                         _______ _______ _______ _____ _____    ______ ____
ROOT
ATOM      1  N   UNL     1       3.981   2.767  17.860  0.00  0.00    +0.000 N 
ATOM      2  C   UNL     1       4.850   3.534  18.604  0.00  0.00    +0.000 C 
ATOM      3  O   UNL     1       5.103   3.284  19.781  0.00  0.00    +0.000 OA
ATOM      4  H   UNL     1       3.562   3.162  17.027  0.00  0.00    +0.000 HD
ENDROOT
BRANCH   2   5
ATOM      5  C   UNL     1       5.458   4.733  17.947  0.00  0.00    +0.000 A 
ATOM      6  C   UNL     1       4.857   5.215  16.775  0.00  0.00    +0.000 A 
ATOM      7  C   UNL     1       5.345   6.360  16.147  0.00  0.00    +0.000 A 
ATOM      8  C   UNL     1       6.438   7.040  16.684  0.00  0.00    +0.000 A 
ATOM      9  C   UNL     1       7.058   6.571  17.846  0.00  0.00    +0.000 A 
ATOM     10  C   UNL     1       8.207   7.316  18.462  0.00  0.00    +0.000 C 
ATOM     11  C   UNL     1       6.566   5.413  18.471  0.00  0.00    +0.000 A 
ENDBRANCH   2   5
BRANCH   1  12
ATOM     12  C   UNL     1       3.231   1.662  18.443  0.00  0.00    +0.000 C 
BRANCH  12  17
ATOM     13  C   UNL     1       1.677   5.032  20.719  0.00  0.00    +0.000 C 
ATOM     14  C   UNL     1       1.515   3.987  19.667  0.00  0.00    +0.000 C 
ATOM     15  N   UNL     1       1.456   4.257  18.402  0.00  0.00    +0.000 NA
ATOM     16  O   UNL     1       1.338   3.011  17.732  0.00  0.00    +0.000 OA
ATOM     17  C   UNL     1       1.742   1.982  18.660  0.00  0.00    +0.000 C 
ATOM     18  C   UNL     1       1.389   2.550  20.014  0.00  0.00    +0.000 C 
ENDBRANCH  12  17
ENDBRANCH   1  12
TORSDOF 3
ENDMDL
MODEL 6
REMARK VINA RESULT:      -7.2      1.338      1.557
REMARK  Name = 
REMARK  5 active torsions:
REMARK  status: ('A' for Active; 'I' for Inactive)
REMARK    1  A    between atoms: C_1  and  C_2
REMARK    2  A    between atoms: C_5  and  C_6
REMARK    3  A    between atoms: C_6  and  N_7
REMARK    4  A    between atoms: C_8  and  C_10
REMARK    5  A    between atoms: C_14  and  C_15
REMARK                            x       y       z     vdW  Elec       q    Type
REMARK                         _______ _______ _______ _____ _____    ______ ____
ROOT
ATOM      1  N   UNL     1       5.525   5.041  19.037  0.00  0.00    +0.000 N 
ATOM      2  C   UNL     1       4.272   5.521  18.727  0.00  0.00    +0.000 C 
ATOM      3  O   UNL     1       4.094   6.660  18.300  0.00  0.00    +0.000 OA
ATOM      4  H   UNL     1       5.610   4.248  19.660  0.00  0.00    +0.000 HD
ENDROOT
BRANCH   2   5
ATOM      5  C   UNL     1       3.102   4.622  18.970  0.00  0.00    +0.000 A 
ATOM      6  C   UNL     1       2.313   4.258  17.870  0.00  0.00    +0.000 A 
ATOM      7  C   UNL     1       1.240   3.380  18.025  0.00  0.00    +0.000 A 
ATOM      8  C   UNL     1       0.946   2.852  19.281  0.00  0.00    +0.000 A 
ATOM      9  C   UNL     1       1.714   3.209  20.394  0.00  0.00    +0.000 A 
ATOM     10  C   UNL     1       1.439   2.615  21.745  0.00  0.00    +0.000 C 
ATOM     11  C   UNL     1       2.789   4.099  20.233  0.00  0.00    +0.000 A 
ENDBRANCH   2   5
BRANCH   1  12
ATOM     12  C   UNL     1       6.715   5.881  18.969  0.00  0.00    +0.000 C 
BRANCH  12  17
ATOM     13  C   UNL     1       5.354   4.240  15.173  0.00  0.00    +0.000 C 
ATOM     14  C   UNL     1       6.346   5.011  15.976  0.00  0.00    +0.000 C 
ATOM     15  N   UNL     1       6.516   6.289  15.857  0.00  0.00    +0.000 NA
ATOM     16  O   UNL     1       7.510   6.650  16.804  0.00  0.00    +0.000 OA
ATOM     17  C   UNL     1       7.611   5.572  17.757  0.00  0.00    +0.000 C 
ATOM     18  C   UNL     1       7.231   4.345  16.964  0.00  0.00    +0.000 C 
ENDBRANCH  12  17
ENDBRANCH   1  12
TORSDOF 3
ENDMDL
MODEL 7
REMARK VINA RESULT:      -7.2      2.066      6.883
REMARK  Name = 
REMARK  5 active torsions:
REMARK  status: ('A' for Active; 'I' for Inactive)
REMARK    1  A    between atoms: C_1  and  C_2
REMARK    2  A    between atoms: C_5  and  C_6
REMARK    3  A    between atoms: C_6  and  N_7
REMARK    4  A    between atoms: C_8  and  C_10
REMARK    5  A    between atoms: C_14  and  C_15
REMARK                            x       y       z     vdW  Elec       q    Type
REMARK                         _______ _______ _______ _____ _____    ______ ____
ROOT
ATOM      1  N   UNL     1       5.061   3.450  16.612  0.00  0.00    +0.000 N 
ATOM      2  C   UNL     1       5.610   4.558  16.008  0.00  0.00    +0.000 C 
ATOM      3  O   UNL     1       5.682   5.646  16.576  0.00  0.00    +0.000 OA
ATOM      4  H   UNL     1       4.737   2.682  16.036  0.00  0.00    +0.000 HD
ENDROOT
BRANCH   2   5
ATOM      5  C   UNL     1       6.086   4.419  14.597  0.00  0.00    +0.000 A 
ATOM      6  C   UNL     1       7.212   5.159  14.207  0.00  0.00    +0.000 A 
ATOM      7  C   UNL     1       7.734   5.030  12.920  0.00  0.00    +0.000 A 
ATOM      8  C   UNL     1       7.140   4.158  12.009  0.00  0.00    +0.000 A 
ATOM      9  C   UNL     1       6.011   3.418  12.374  0.00  0.00    +0.000 A 
ATOM     10  C   UNL     1       5.387   2.442  11.419  0.00  0.00    +0.000 C 
ATOM     11  C   UNL     1       5.485   3.557  13.668  0.00  0.00    +0.000 A 
ENDBRANCH   2   5
BRANCH   1  12
ATOM     12  C   UNL     1       4.443   3.512  17.931  0.00  0.00    +0.000 C 
BRANCH  12  17
ATOM     13  C   UNL     1       0.812   4.026  20.276  0.00  0.00    +0.000 C 
ATOM     14  C   UNL     1       1.579   3.334  19.201  0.00  0.00    +0.000 C 
ATOM     15  N   UNL     1       1.299   3.450  17.942  0.00  0.00    +0.000 NA
ATOM     16  O   UNL     1       2.265   2.678  17.244  0.00  0.00    +0.000 OA
ATOM     17  C   UNL     1       3.362   2.439  18.150  0.00  0.00    +0.000 C 
ATOM     18  C   UNL     1       2.717   2.435  19.515  0.00  0.00    +0.000 C 
ENDBRANCH  12  17
ENDBRANCH   1  12
TORSDOF 3
ENDMDL
MODEL 8
REMARK VINA RESULT:      -7.2      3.483      5.630
REMARK  Name = 
REMARK  5 active torsions:
REMARK  status: ('A' for Active; 'I' for Inactive)
REMARK    1  A    between atoms: C_1  and  C_2
REMARK    2  A    between atoms: C_5  and  C_6
REMARK    3  A    between atoms: C_6  and  N_7
REMARK    4  A    between atoms: C_8  and  C_10
REMARK    5  A    between atoms: C_14  and  C_15
REMARK                            x       y       z     vdW  Elec       q    Type
REMARK                         _______ _______ _______ _____ _____    ______ ____
ROOT
ATOM      1  N   UNL     1       2.978   5.142  17.705  0.00  0.00    +0.000 N 
ATOM      2  C   UNL     1       3.289   5.924  18.794  0.00  0.00    +0.000 C 
ATOM      3  O   UNL     1       4.116   5.577  19.636  0.00  0.00    +0.000 OA
ATOM      4  H   UNL     1       2.102   5.295  17.220  0.00  0.00    +0.000 HD
ENDROOT
BRANCH   2   5
ATOM      5  C   UNL     1       2.548   7.213  18.961  0.00  0.00    +0.000 A 
ATOM      6  C   UNL     1       2.444   8.059  17.847  0.00  0.00    +0.000 A 
ATOM      7  C   UNL     1       1.721   9.249  17.926  0.00  0.00    +0.000 A 
ATOM      8  C   UNL     1       1.090   9.606  19.117  0.00  0.00    +0.000 A 
ATOM      9  C   UNL     1       1.190   8.782  20.242  0.00  0.00    +0.000 A 
ATOM     10  C   UNL     1       0.479   9.129  21.518  0.00  0.00    +0.000 C 
ATOM     11  C   UNL     1       1.924   7.588  20.159  0.00  0.00    +0.000 A 
ENDBRANCH   2   5
BRANCH   1  12
ATOM     12  C   UNL     1       3.538   3.808  17.523  0.00  0.00    +0.000 C 
BRANCH  12  17
ATOM     13  C   UNL     1       1.859   2.655  21.370  0.00  0.00    +0.000 C 
ATOM     14  C   UNL     1       1.783   2.710  19.882  0.00  0.00    +0.000 C 
ATOM     15  N   UNL     1       0.929   3.443  19.241  0.00  0.00    +0.000 NA
ATOM     16  O   UNL     1       1.195   3.252  17.860  0.00  0.00    +0.000 OA
ATOM     17  C   UNL     1       2.515   2.681  17.749  0.00  0.00    +0.000 C 
ATOM     18  C   UNL     1       2.684   1.897  19.028  0.00  0.00    +0.000 C 
ENDBRANCH  12  17
ENDBRANCH   1  12
TORSDOF 3
ENDMDL
MODEL 9
REMARK VINA RESULT:      -7.1      2.733      6.159
REMARK  Name = 
REMARK  5 active torsions:
REMARK  status: ('A' for Active; 'I' for Inactive)
REMARK    1  A    between atoms: C_1  and  C_2
REMARK    2  A    between atoms: C_5  and  C_6
REMARK    3  A    between atoms: C_6  and  N_7
REMARK    4  A    between atoms: C_8  and  C_10
REMARK    5  A    between atoms: C_14  and  C_15
REMARK                            x       y       z     vdW  Elec       q    Type
REMARK                         _______ _______ _______ _____ _____    ______ ____
ROOT
ATOM      1  N   UNL     1       3.365   5.394  19.917  0.00  0.00    +0.000 N 
ATOM      2  C   UNL     1       3.510   5.701  18.582  0.00  0.00    +0.000 C 
ATOM      3  O   UNL     1       2.604   6.207  17.924  0.00  0.00    +0.000 OA
ATOM      4  H   UNL     1       3.987   4.715  20.339  0.00  0.00    +0.000 HD
ENDROOT
BRANCH   2   5
ATOM      5  C   UNL     1       4.808   5.353  17.926  0.00  0.00    +0.000 A 
ATOM      6  C   UNL     1       5.978   5.442  18.694  0.00  0.00    +0.000 A 
ATOM      7  C   UNL     1       7.211   5.080  18.153  0.00  0.00    +0.000 A 
ATOM      8  C   UNL     1       7.291   4.622  16.839  0.00  0.00    +0.000 A 
ATOM      9  C   UNL     1       6.138   4.535  16.051  0.00  0.00    +0.000 A 
ATOM     10  C   UNL     1       6.199   4.001  14.650  0.00  0.00    +0.000 C 
ATOM     11  C   UNL     1       4.900   4.907  16.599  0.00  0.00    +0.000 A 
ENDBRANCH   2   5
BRANCH   1  12
ATOM     12  C   UNL     1       2.097   5.563  20.617  0.00  0.00    +0.000 C 
BRANCH  12  17
ATOM     13  C   UNL     1       2.925   1.742  18.703  0.00  0.00    +0.000 C 
ATOM     14  C   UNL     1       2.412   2.534  19.856  0.00  0.00    +0.000 C 
ATOM     15  N   UNL     1       3.004   2.577  21.007  0.00  0.00    +0.000 NA
ATOM     16  O   UNL     1       2.237   3.455  21.819  0.00  0.00    +0.000 OA
ATOM     17  C   UNL     1       1.397   4.232  20.941  0.00  0.00    +0.000 C 
ATOM     18  C   UNL     1       1.156   3.320  19.762  0.00  0.00    +0.000 C 
ENDBRANCH  12  17
ENDBRANCH   1  12
TORSDOF 3
ENDMDL
