MODEL 1
REMARK VINA RESULT:      -8.1      0.000      0.000
REMARK  Name = 
REMARK  6 active torsions:
REMARK  status: ('A' for Active; 'I' for Inactive)
REMARK    1  A    between atoms: S_2  and  N_4
REMARK    2  A    between atoms: S_2  and  C_14
REMARK    3  A    between atoms: N_4  and  C_5
REMARK    4  A    between atoms: C_5  and  C_6
REMARK    5  A    between atoms: C_6  and  C_7
REMARK    6  A    between atoms: C_7  and  N_8
REMARK                            x       y       z     vdW  Elec       q    Type
REMARK                         _______ _______ _______ _____ _____    ______ ____
ROOT
ATOM      1  O   UNL     1       7.359   5.244  16.029  0.00  0.00    +0.000 OA
ATOM      2  S   UNL     1       7.127   5.250  17.458  0.00  0.00    +0.000 S 
ATOM      3  O   UNL     1       7.981   4.512  18.356  0.00  0.00    +0.000 OA
ENDROOT
BRANCH   2   4
ATOM      4  C   UNL     1       5.450   4.738  17.736  0.00  0.00    +0.000 A 
ATOM      5  C   UNL     1       4.751   4.071  16.727  0.00  0.00    +0.000 A 
ATOM      6  C   UNL     1       3.456   3.620  16.963  0.00  0.00    +0.000 A 
ATOM      7  C   UNL     1       2.825   3.890  18.184  0.00  0.00    +0.000 A 
ATOM      8  C   UNL     1       1.506   3.480  18.415  0.00  0.00    +0.000 A 
ATOM      9  C   UNL     1       0.870   3.785  19.616  0.00  0.00    +0.000 A 
ATOM     10  C   UNL     1       1.551   4.490  20.606  0.00  0.00    +0.000 A 
ATOM     11  C   UNL     1       2.870   4.893  20.400  0.00  0.00    +0.000 A 
ATOM     12  C   UNL     1       3.521   4.604  19.190  0.00  0.00    +0.000 A 
ATOM     13  C   UNL     1       4.839   5.018  18.960  0.00  0.00    +0.000 A 
ENDBRANCH   2   4
BRANCH   2  14
ATOM     14  N   UNL     1       7.089   6.880  17.897  0.00  0.00    +0.000 NA
ATOM     15  H   UNL     1       6.204   7.123  18.333  0.00  0.00    +0.000 HD
BRANCH  14  16
ATOM     16  C   UNL     1       8.284   7.596  18.376  0.00  0.00    +0.000 C 
BRANCH  16  17
ATOM     17  C   UNL     1       8.230   9.087  18.084  0.00  0.00    +0.000 C 
BRANCH  17  18
ATOM     18  C   UNL     1       9.111   9.901  19.034  0.00  0.00    +0.000 C 
BRANCH  18  19
ATOM     19  N   UNL     1       9.284  11.288  18.570  0.00  0.00    +0.000 NA
ATOM     20  C   UNL     1      10.547  11.547  17.834  0.00  0.00    +0.000 C 
ATOM     21  C   UNL     1      11.805  11.623  18.718  0.00  0.00    +0.000 C 
ATOM     22  O   UNL     1      11.647  12.556  19.793  0.00  0.00    +0.000 OA
ATOM     23  C   UNL     1      10.485  12.245  20.570  0.00  0.00    +0.000 C 
ATOM     24  C   UNL     1       9.220  12.244  19.697  0.00  0.00    +0.000 C 
ENDBRANCH  18  19
ENDBRANCH  17  18
ENDBRANCH  16  17
ENDBRANCH  14  16
ENDBRANCH   2  14
TORSDOF 6
ENDMDL
MODEL 2
REMARK VINA RESULT:      -8.0      1.237      1.807
REMARK  Name = 
REMARK  6 active torsions:
REMARK  status: ('A' for Active; 'I' for Inactive)
REMARK    1  A    between atoms: S_2  and  N_4
REMARK    2  A    between atoms: S_2  and  C_14
REMARK    3  A    between atoms: N_4  and  C_5
REMARK    4  A    between atoms: C_5  and  C_6
REMARK    5  A    between atoms: C_6  and  C_7
REMARK    6  A    between atoms: C_7  and  N_8
REMARK                            x       y       z     vdW  Elec       q    Type
REMARK                         _______ _______ _______ _____ _____    ______ ____
ROOT
ATOM      1  O   UNL     1       6.912   5.915  15.310  0.00  0.00    +0.000 OA
ATOM      2  S   UNL     1       6.889   5.899  16.758  0.00  0.00    +0.000 S 
ATOM      3  O   UNL     1       7.846   5.127  17.511  0.00  0.00    +0.000 OA
ENDROOT
BRANCH   2   4
ATOM      4  C   UNL     1       5.258   5.420  17.268  0.00  0.00    +0.000 A 
ATOM      5  C   UNL     1       4.311   6.399  17.577  0.00  0.00    +0.000 A 
ATOM      6  C   UNL     1       3.015   6.025  17.923  0.00  0.00    +0.000 A 
ATOM      7  C   UNL     1       2.675   4.671  18.029  0.00  0.00    +0.000 A 
ATOM      8  C   UNL     1       1.387   4.285  18.421  0.00  0.00    +0.000 A 
ATOM      9  C   UNL     1       1.065   2.937  18.563  0.00  0.00    +0.000 A 
ATOM     10  C   UNL     1       2.023   1.960  18.299  0.00  0.00    +0.000 A 
ATOM     11  C   UNL     1       3.305   2.326  17.894  0.00  0.00    +0.000 A 
ATOM     12  C   UNL     1       3.650   3.679  17.758  0.00  0.00    +0.000 A 
ATOM     13  C   UNL     1       4.939   4.064  17.369  0.00  0.00    +0.000 A 
ENDBRANCH   2   4
BRANCH   2  14
ATOM     14  N   UNL     1       6.954   7.522  17.221  0.00  0.00    +0.000 NA
ATOM     15  H   UNL     1       6.025   7.890  17.406  0.00  0.00    +0.000 HD
BRANCH  14  16
ATOM     16  C   UNL     1       8.056   8.067  18.033  0.00  0.00    +0.000 C 
BRANCH  16  17
ATOM     17  C   UNL     1       8.166   9.579  17.932  0.00  0.00    +0.000 C 
BRANCH  17  18
ATOM     18  C   UNL     1       9.139  10.165  18.957  0.00  0.00    +0.000 C 
BRANCH  18  19
ATOM     19  N   UNL     1      10.060  11.139  18.348  0.00  0.00    +0.000 NA
ATOM     20  C   UNL     1      11.140  11.623  19.243  0.00  0.00    +0.000 C 
ATOM     21  C   UNL     1      10.686  12.633  20.313  0.00  0.00    +0.000 C 
ATOM     22  O   UNL     1       9.974  13.736  19.740  0.00  0.00    +0.000 OA
ATOM     23  C   UNL     1       8.866  13.274  18.960  0.00  0.00    +0.000 C 
ATOM     24  C   UNL     1       9.333  12.325  17.844  0.00  0.00    +0.000 C 
ENDBRANCH  18  19
ENDBRANCH  17  18
ENDBRANCH  16  17
ENDBRANCH  14  16
ENDBRANCH   2  14
TORSDOF 6
ENDMDL
MODEL 3
REMARK VINA RESULT:      -8.0      0.825      1.337
REMARK  Name = 
REMARK  6 active torsions:
REMARK  status: ('A' for Active; 'I' for Inactive)
REMARK    1  A    between atoms: S_2  and  N_4
REMARK    2  A    between atoms: S_2  and  C_14
REMARK    3  A    between atoms: N_4  and  C_5
REMARK    4  A    between atoms: C_5  and  C_6
REMARK    5  A    between atoms: C_6  and  C_7
REMARK    6  A    between atoms: C_7  and  N_8
REMARK                            x       y       z     vdW  Elec       q    Type
REMARK                         _______ _______ _______ _____ _____    ______ ____
ROOT
ATOM      1  O   UNL     1       6.817   5.959  15.688  0.00  0.00    +0.000 OA
ATOM      2  S   UNL     1       6.945   5.406  17.020  0.00  0.00    +0.000 S 
ATOM      3  O   UNL     1       7.919   4.384  17.314  0.00  0.00    +0.000 OA
ENDROOT
BRANCH   2   4
ATOM      4  C   UNL     1       5.346   4.814  17.516  0.00  0.00    +0.000 A 
ATOM      5  C   UNL     1       4.628   3.964  16.671  0.00  0.00    +0.000 A 
ATOM      6  C   UNL     1       3.400   3.454  17.083  0.00  0.00    +0.000 A 
ATOM      7  C   UNL     1       2.850   3.841  18.311  0.00  0.00    +0.000 A 
ATOM      8  C   UNL     1       1.594   3.370  18.714  0.00  0.00    +0.000 A 
ATOM      9  C   UNL     1       1.034   3.789  19.919  0.00  0.00    +0.000 A 
ATOM     10  C   UNL     1       1.730   4.672  20.741  0.00  0.00    +0.000 A 
ATOM     11  C   UNL     1       2.987   5.140  20.363  0.00  0.00    +0.000 A 
ATOM     12  C   UNL     1       3.561   4.738  19.147  0.00  0.00    +0.000 A 
ATOM     13  C   UNL     1       4.815   5.213  18.744  0.00  0.00    +0.000 A 
ENDBRANCH   2   4
BRANCH   2  14
ATOM     14  N   UNL     1       7.172   6.737  18.035  0.00  0.00    +0.000 NA
ATOM     15  H   UNL     1       7.499   6.448  18.953  0.00  0.00    +0.000 HD
BRANCH  14  16
ATOM     16  C   UNL     1       7.656   8.036  17.536  0.00  0.00    +0.000 C 
BRANCH  16  17
ATOM     17  C   UNL     1       8.578   8.735  18.522  0.00  0.00    +0.000 C 
BRANCH  17  18
ATOM     18  C   UNL     1       8.764  10.218  18.198  0.00  0.00    +0.000 C 
BRANCH  18  19
ATOM     19  N   UNL     1      10.016  10.751  18.761  0.00  0.00    +0.000 NA
ATOM     20  C   UNL     1       9.873  11.432  20.071  0.00  0.00    +0.000 C 
ATOM     21  C   UNL     1       9.237  12.833  20.005  0.00  0.00    +0.000 C 
ATOM     22  O   UNL     1       9.911  13.681  19.067  0.00  0.00    +0.000 OA
ATOM     23  C   UNL     1       9.958  13.071  17.773  0.00  0.00    +0.000 C 
ATOM     24  C   UNL     1      10.661  11.704  17.831  0.00  0.00    +0.000 C 
ENDBRANCH  18  19
ENDBRANCH  17  18
ENDBRANCH  16  17
ENDBRANCH  14  16
ENDBRANCH   2  14
TORSDOF 6
ENDMDL
MODEL 4
REMARK VINA RESULT:      -7.9      1.222      1.543
REMARK  Name = 
REMARK  6 active torsions:
REMARK  status: ('A' for Active; 'I' for Inactive)
REMARK    1  A    between atoms: S_2  and  N_4
REMARK    2  A    between atoms: S_2  and  C_14
REMARK    3  A    between atoms: N_4  and  C_5
REMARK    4  A    between atoms: C_5  and  C_6
REMARK    5  A    between atoms: C_6  and  C_7
REMARK    6  A    between atoms: C_7  and  N_8
REMARK                            x       y       z     vdW  Elec       q    Type
REMARK                         _______ _______ _______ _____ _____    ______ ____
ROOT
ATOM      1  O   UNL     1       7.153   6.175  15.988  0.00  0.00    +0.000 OA
ATOM      2  S   UNL     1       7.253   5.647  17.333  0.00  0.00    +0.000 S 
ATOM      3  O   UNL     1       8.033   4.468  17.616  0.00  0.00    +0.000 OA
ENDROOT
BRANCH   2   4
ATOM      4  C   UNL     1       5.604   5.384  17.936  0.00  0.00    +0.000 A 
ATOM      5  C   UNL     1       4.609   6.329  17.673  0.00  0.00    +0.000 A 
ATOM      6  C   UNL     1       3.304   6.097  18.096  0.00  0.00    +0.000 A 
ATOM      7  C   UNL     1       2.996   4.952  18.843  0.00  0.00    +0.000 A 
ATOM      8  C   UNL     1       1.695   4.732  19.312  0.00  0.00    +0.000 A 
ATOM      9  C   UNL     1       1.403   3.613  20.088  0.00  0.00    +0.000 A 
ATOM     10  C   UNL     1       2.405   2.693  20.390  0.00  0.00    +0.000 A 
ATOM     11  C   UNL     1       3.702   2.888  19.918  0.00  0.00    +0.000 A 
ATOM     12  C   UNL     1       4.016   4.017  19.145  0.00  0.00    +0.000 A 
ATOM     13  C   UNL     1       5.318   4.237  18.680  0.00  0.00    +0.000 A 
ENDBRANCH   2   4
BRANCH   2  14
ATOM     14  N   UNL     1       7.786   6.940  18.280  0.00  0.00    +0.000 NA
ATOM     15  H   UNL     1       8.527   6.652  18.914  0.00  0.00    +0.000 HD
BRANCH  14  16
ATOM     16  C   UNL     1       7.852   8.319  17.767  0.00  0.00    +0.000 C 
BRANCH  16  17
ATOM     17  C   UNL     1       8.687   9.233  18.649  0.00  0.00    +0.000 C 
BRANCH  17  18
ATOM     18  C   UNL     1       9.049  10.547  17.953  0.00  0.00    +0.000 C 
BRANCH  18  19
ATOM     19  N   UNL     1       9.295  11.631  18.918  0.00  0.00    +0.000 NA
ATOM     20  C   UNL     1       9.306  12.996  18.335  0.00  0.00    +0.000 C 
ATOM     21  C   UNL     1      10.573  13.344  17.532  0.00  0.00    +0.000 C 
ATOM     22  O   UNL     1      11.766  13.108  18.288  0.00  0.00    +0.000 OA
ATOM     23  C   UNL     1      11.808  11.759  18.764  0.00  0.00    +0.000 C 
ATOM     24  C   UNL     1      10.578  11.438  19.629  0.00  0.00    +0.000 C 
ENDBRANCH  18  19
ENDBRANCH  17  18
ENDBRANCH  16  17
ENDBRANCH  14  16
ENDBRANCH   2  14
TORSDOF 6
ENDMDL
MODEL 5
REMARK VINA RESULT:      -7.8      1.360      1.883
REMARK  Name = 
REMARK  6 active torsions:
REMARK  status: ('A' for Active; 'I' for Inactive)
REMARK    1  A    between atoms: S_2  and  N_4
REMARK    2  A    between atoms: S_2  and  C_14
REMARK    3  A    between atoms: N_4  and  C_5
REMARK    4  A    between atoms: C_5  and  C_6
REMARK    5  A    between atoms: C_6  and  C_7
REMARK    6  A    between atoms: C_7  and  N_8
REMARK                            x       y       z     vdW  Elec       q    Type
REMARK                         _______ _______ _______ _____ _____    ______ ____
ROOT
ATOM      1  O   UNL     1       8.074   4.370  17.368  0.00  0.00    +0.000 OA
ATOM      2  S   UNL     1       7.406   5.442  18.075  0.00  0.00    +0.000 S 
ATOM      3  O   UNL     1       7.792   5.807  19.416  0.00  0.00    +0.000 OA
ENDROOT
BRANCH   2   4
ATOM      4  C   UNL     1       5.666   5.090  18.072  0.00  0.00    +0.000 A 
ATOM      5  C   UNL     1       4.762   6.057  17.624  0.00  0.00    +0.000 A 
ATOM      6  C   UNL     1       3.403   5.762  17.569  0.00  0.00    +0.000 A 
ATOM      7  C   UNL     1       2.929   4.525  18.022  0.00  0.00    +0.000 A 
ATOM      8  C   UNL     1       1.559   4.236  18.013  0.00  0.00    +0.000 A 
ATOM      9  C   UNL     1       1.089   3.019  18.502  0.00  0.00    +0.000 A 
ATOM     10  C   UNL     1       1.985   2.071  18.991  0.00  0.00    +0.000 A 
ATOM     11  C   UNL     1       3.354   2.336  18.994  0.00  0.00    +0.000 A 
ATOM     12  C   UNL     1       3.843   3.562  18.517  0.00  0.00    +0.000 A 
ATOM     13  C   UNL     1       5.213   3.851  18.530  0.00  0.00    +0.000 A 
ENDBRANCH   2   4
BRANCH   2  14
ATOM     14  N   UNL     1       7.508   6.782  17.053  0.00  0.00    +0.000 NA
ATOM     15  H   UNL     1       7.135   6.572  16.131  0.00  0.00    +0.000 HD
BRANCH  14  16
ATOM     16  C   UNL     1       7.334   8.162  17.540  0.00  0.00    +0.000 C 
BRANCH  16  17
ATOM     17  C   UNL     1       8.585   8.710  18.207  0.00  0.00    +0.000 C 
BRANCH  17  18
ATOM     18  C   UNL     1       8.578  10.237  18.299  0.00  0.00    +0.000 C 
BRANCH  18  19
ATOM     19  N   UNL     1       9.823  10.759  18.887  0.00  0.00    +0.000 NA
ATOM     20  C   UNL     1       9.638  11.612  20.087  0.00  0.00    +0.000 C 
ATOM     21  C   UNL     1       9.112  13.029  19.796  0.00  0.00    +0.000 C 
ATOM     22  O   UNL     1       9.909  13.704  18.815  0.00  0.00    +0.000 OA
ATOM     23  C   UNL     1      10.002  12.929  17.615  0.00  0.00    +0.000 C 
ATOM     24  C   UNL     1      10.598  11.540  17.898  0.00  0.00    +0.000 C 
ENDBRANCH  18  19
ENDBRANCH  17  18
ENDBRANCH  16  17
ENDBRANCH  14  16
ENDBRANCH   2  14
TORSDOF 6
ENDMDL
MODEL 6
REMARK VINA RESULT:      -7.6      1.142      2.141
REMARK  Name = 
REMARK  6 active torsions:
REMARK  status: ('A' for Active; 'I' for Inactive)
REMARK    1  A    between atoms: S_2  and  N_4
REMARK    2  A    between atoms: S_2  and  C_14
REMARK    3  A    between atoms: N_4  and  C_5
REMARK    4  A    between atoms: C_5  and  C_6
REMARK    5  A    between atoms: C_6  and  C_7
REMARK    6  A    between atoms: C_7  and  N_8
REMARK                            x       y       z     vdW  Elec       q    Type
REMARK                         _______ _______ _______ _____ _____    ______ ____
ROOT
ATOM      1  O   UNL     1       5.626   6.523  15.570  0.00  0.00    +0.000 OA
ATOM      2  S   UNL     1       6.133   5.574  16.538  0.00  0.00    +0.000 S 
ATOM      3  O   UNL     1       6.781   4.355  16.120  0.00  0.00    +0.000 OA
ENDROOT
BRANCH   2   4
ATOM      4  C   UNL     1       4.801   5.151  17.632  0.00  0.00    +0.000 A 
ATOM      5  C   UNL     1       4.607   5.883  18.806  0.00  0.00    +0.000 A 
ATOM      6  C   UNL     1       3.530   5.589  19.637  0.00  0.00    +0.000 A 
ATOM      7  C   UNL     1       2.676   4.520  19.335  0.00  0.00    +0.000 A 
ATOM      8  C   UNL     1       1.616   4.187  20.188  0.00  0.00    +0.000 A 
ATOM      9  C   UNL     1       0.795   3.099  19.904  0.00  0.00    +0.000 A 
ATOM     10  C   UNL     1       1.014   2.340  18.757  0.00  0.00    +0.000 A 
ATOM     11  C   UNL     1       2.055   2.666  17.889  0.00  0.00    +0.000 A 
ATOM     12  C   UNL     1       2.900   3.752  18.166  0.00  0.00    +0.000 A 
ATOM     13  C   UNL     1       3.962   4.081  17.315  0.00  0.00    +0.000 A 
ENDBRANCH   2   4
BRANCH   2  14
ATOM     14  N   UNL     1       7.160   6.464  17.541  0.00  0.00    +0.000 NA
ATOM     15  H   UNL     1       7.993   5.933  17.780  0.00  0.00    +0.000 HD
BRANCH  14  16
ATOM     16  C   UNL     1       7.318   7.923  17.411  0.00  0.00    +0.000 C 
BRANCH  16  17
ATOM     17  C   UNL     1       8.458   8.466  18.257  0.00  0.00    +0.000 C 
BRANCH  17  18
ATOM     18  C   UNL     1       8.500   9.995  18.271  0.00  0.00    +0.000 C 
BRANCH  18  19
ATOM     19  N   UNL     1       9.760  10.506  18.836  0.00  0.00    +0.000 NA
ATOM     20  C   UNL     1       9.620  11.217  20.132  0.00  0.00    +0.000 C 
ATOM     21  C   UNL     1       9.024  12.633  20.029  0.00  0.00    +0.000 C 
ATOM     22  O   UNL     1       9.729  13.443  19.083  0.00  0.00    +0.000 OA
ATOM     23  C   UNL     1       9.774  12.806  17.802  0.00  0.00    +0.000 C 
ATOM     24  C   UNL     1      10.440  11.423  17.895  0.00  0.00    +0.000 C 
ENDBRANCH  18  19
ENDBRANCH  17  18
ENDBRANCH  16  17
ENDBRANCH  14  16
ENDBRANCH   2  14
TORSDOF 6
ENDMDL
MODEL 7
REMARK VINA RESULT:      -7.4      1.138      1.774
REMARK  Name = 
REMARK  6 active torsions:
REMARK  status: ('A' for Active; 'I' for Inactive)
REMARK    1  A    between atoms: S_2  and  N_4
REMARK    2  A    between atoms: S_2  and  C_14
REMARK    3  A    between atoms: N_4  and  C_5
REMARK    4  A    between atoms: C_5  and  C_6
REMARK    5  A    between atoms: C_6  and  C_7
REMARK    6  A    between atoms: C_7  and  N_8
REMARK                            x       y       z     vdW  Elec       q    Type
REMARK                         _______ _______ _______ _____ _____    ______ ____
ROOT
ATOM      1  O   UNL     1       7.573   4.368  17.887  0.00  0.00    +0.000 OA
ATOM      2  S   UNL     1       6.985   5.342  18.781  0.00  0.00    +0.000 S 
ATOM      3  O   UNL     1       7.546   5.593  20.086  0.00  0.00    +0.000 OA
ENDROOT
BRANCH   2   4
ATOM      4  C   UNL     1       5.270   4.928  18.981  0.00  0.00    +0.000 A 
ATOM      5  C   UNL     1       4.365   5.904  19.405  0.00  0.00    +0.000 A 
ATOM      6  C   UNL     1       3.011   5.595  19.508  0.00  0.00    +0.000 A 
ATOM      7  C   UNL     1       2.562   4.293  19.253  0.00  0.00    +0.000 A 
ATOM      8  C   UNL     1       1.209   3.961  19.398  0.00  0.00    +0.000 A 
ATOM      9  C   UNL     1       0.774   2.656  19.182  0.00  0.00    +0.000 A 
ATOM     10  C   UNL     1       1.683   1.671  18.803  0.00  0.00    +0.000 A 
ATOM     11  C   UNL     1       3.031   1.987  18.640  0.00  0.00    +0.000 A 
ATOM     12  C   UNL     1       3.489   3.294  18.865  0.00  0.00    +0.000 A 
ATOM     13  C   UNL     1       4.842   3.624  18.724  0.00  0.00    +0.000 A 
ENDBRANCH   2   4
BRANCH   2  14
ATOM     14  N   UNL     1       6.912   6.776  17.892  0.00  0.00    +0.000 NA
ATOM     15  H   UNL     1       6.042   7.273  18.064  0.00  0.00    +0.000 HD
BRANCH  14  16
ATOM     16  C   UNL     1       8.104   7.600  17.625  0.00  0.00    +0.000 C 
BRANCH  16  17
ATOM     17  C   UNL     1       7.895   9.064  17.976  0.00  0.00    +0.000 C 
BRANCH  17  18
ATOM     18  C   UNL     1       9.026   9.627  18.837  0.00  0.00    +0.000 C 
BRANCH  18  19
ATOM     19  N   UNL     1       8.902  11.082  19.026  0.00  0.00    +0.000 NA
ATOM     20  C   UNL     1       9.319  11.901  17.861  0.00  0.00    +0.000 C 
ATOM     21  C   UNL     1      10.842  11.999  17.653  0.00  0.00    +0.000 C 
ATOM     22  O   UNL     1      11.517  12.430  18.840  0.00  0.00    +0.000 OA
ATOM     23  C   UNL     1      11.198  11.576  19.944  0.00  0.00    +0.000 C 
ATOM     24  C   UNL     1       9.682  11.542  20.197  0.00  0.00    +0.000 C 
ENDBRANCH  18  19
ENDBRANCH  17  18
ENDBRANCH  16  17
ENDBRANCH  14  16
ENDBRANCH   2  14
TORSDOF 6
ENDMDL
MODEL 8
REMARK VINA RESULT:      -7.4      4.548      6.883
REMARK  Name = 
REMARK  6 active torsions:
REMARK  status: ('A' for Active; 'I' for Inactive)
REMARK    1  A    between atoms: S_2  and  N_4
REMARK    2  A    between atoms: S_2  and  C_14
REMARK    3  A    between atoms: N_4  and  C_5
REMARK    4  A    between atoms: C_5  and  C_6
REMARK    5  A    between atoms: C_6  and  C_7
REMARK    6  A    between atoms: C_7  and  N_8
REMARK                            x       y       z     vdW  Elec       q    Type
REMARK                         _______ _______ _______ _____ _____    ______ ____
ROOT
ATOM      1  O   UNL     1       1.925   4.997  20.749  0.00  0.00    +0.000 OA
ATOM      2  S   UNL     1       2.731   5.601  19.708  0.00  0.00    +0.000 S 
ATOM      3  O   UNL     1       4.168   5.653  19.812  0.00  0.00    +0.000 OA
ENDROOT
BRANCH   2   4
ATOM      4  C   UNL     1       2.129   7.250  19.446  0.00  0.00    +0.000 A 
ATOM      5  C   UNL     1       2.274   7.851  18.193  0.00  0.00    +0.000 A 
ATOM      6  C   UNL     1       1.753   9.122  17.969  0.00  0.00    +0.000 A 
ATOM      7  C   UNL     1       1.142   9.829  19.013  0.00  0.00    +0.000 A 
ATOM      8  C   UNL     1       0.656  11.126  18.811  0.00  0.00    +0.000 A 
ATOM      9  C   UNL     1       0.085  11.840  19.862  0.00  0.00    +0.000 A 
ATOM     10  C   UNL     1      -0.019  11.259  21.124  0.00  0.00    +0.000 A 
ATOM     11  C   UNL     1       0.447   9.963  21.340  0.00  0.00    +0.000 A 
ATOM     12  C   UNL     1       1.035   9.234  20.295  0.00  0.00    +0.000 A 
ATOM     13  C   UNL     1       1.525   7.939  20.499  0.00  0.00    +0.000 A 
ENDBRANCH   2   4
BRANCH   2  14
ATOM     14  N   UNL     1       2.277   4.816  18.283  0.00  0.00    +0.000 NA
ATOM     15  H   UNL     1       2.375   5.429  17.478  0.00  0.00    +0.000 HD
BRANCH  14  16
ATOM     16  C   UNL     1       2.528   3.381  18.059  0.00  0.00    +0.000 C 
BRANCH  16  17
ATOM     17  C   UNL     1       3.510   3.128  16.927  0.00  0.00    +0.000 C 
BRANCH  17  18
ATOM     18  C   UNL     1       4.798   3.940  17.078  0.00  0.00    +0.000 C 
BRANCH  18  19
ATOM     19  N   UNL     1       4.845   5.075  16.142  0.00  0.00    +0.000 NA
ATOM     20  C   UNL     1       5.540   4.800  14.860  0.00  0.00    +0.000 C 
ATOM     21  C   UNL     1       7.075   4.740  14.957  0.00  0.00    +0.000 C 
ATOM     22  O   UNL     1       7.617   5.909  15.583  0.00  0.00    +0.000 OA
ATOM     23  C   UNL     1       7.023   6.118  16.869  0.00  0.00    +0.000 C 
ATOM     24  C   UNL     1       5.496   6.253  16.758  0.00  0.00    +0.000 C 
ENDBRANCH  18  19
ENDBRANCH  17  18
ENDBRANCH  16  17
ENDBRANCH  14  16
ENDBRANCH   2  14
TORSDOF 6
ENDMDL
MODEL 9
REMARK VINA RESULT:      -7.3      1.133      1.795
REMARK  Name = 
REMARK  6 active torsions:
REMARK  status: ('A' for Active; 'I' for Inactive)
REMARK    1  A    between atoms: S_2  and  N_4
REMARK    2  A    between atoms: S_2  and  C_14
REMARK    3  A    between atoms: N_4  and  C_5
REMARK    4  A    between atoms: C_5  and  C_6
REMARK    5  A    between atoms: C_6  and  C_7
REMARK    6  A    between atoms: C_7  and  N_8
REMARK                            x       y       z     vdW  Elec       q    Type
REMARK                         _______ _______ _______ _____ _____    ______ ____
ROOT
ATOM      1  O   UNL     1       5.434   7.160  15.668  0.00  0.00    +0.000 OA
ATOM      2  S   UNL     1       5.907   6.160  16.602  0.00  0.00    +0.000 S 
ATOM      3  O   UNL     1       6.705   5.043  16.160  0.00  0.00    +0.000 OA
ENDROOT
BRANCH   2   4
ATOM      4  C   UNL     1       4.498   5.528  17.478  0.00  0.00    +0.000 A 
ATOM      5  C   UNL     1       3.766   6.372  18.318  0.00  0.00    +0.000 A 
ATOM      6  C   UNL     1       2.629   5.893  18.961  0.00  0.00    +0.000 A 
ATOM      7  C   UNL     1       2.251   4.551  18.823  0.00  0.00    +0.000 A 
ATOM      8  C   UNL     1       1.135   4.048  19.502  0.00  0.00    +0.000 A 
ATOM      9  C   UNL     1       0.787   2.703  19.393  0.00  0.00    +0.000 A 
ATOM     10  C   UNL     1       1.542   1.851  18.592  0.00  0.00    +0.000 A 
ATOM     11  C   UNL     1       2.648   2.338  17.897  0.00  0.00    +0.000 A 
ATOM     12  C   UNL     1       3.020   3.687  18.005  0.00  0.00    +0.000 A 
ATOM     13  C   UNL     1       4.139   4.187  17.328  0.00  0.00    +0.000 A 
ENDBRANCH   2   4
BRANCH   2  14
ATOM     14  N   UNL     1       6.725   7.023  17.802  0.00  0.00    +0.000 NA
ATOM     15  H   UNL     1       6.677   6.544  18.697  0.00  0.00    +0.000 HD
BRANCH  14  16
ATOM     16  C   UNL     1       7.952   7.789  17.524  0.00  0.00    +0.000 C 
BRANCH  16  17
ATOM     17  C   UNL     1       7.800   9.270  17.828  0.00  0.00    +0.000 C 
BRANCH  17  18
ATOM     18  C   UNL     1       8.952   9.816  18.673  0.00  0.00    +0.000 C 
BRANCH  18  19
ATOM     19  N   UNL     1       9.091  11.275  18.538  0.00  0.00    +0.000 NA
ATOM     20  C   UNL     1      10.235  11.720  17.704  0.00  0.00    +0.000 C 
ATOM     21  C   UNL     1      11.613  11.593  18.379  0.00  0.00    +0.000 C 
ATOM     22  O   UNL     1      11.642  12.234  19.659  0.00  0.00    +0.000 OA
ATOM     23  C   UNL     1      10.603  11.730  20.504  0.00  0.00    +0.000 C 
ATOM     24  C   UNL     1       9.221  11.928  19.859  0.00  0.00    +0.000 C 
ENDBRANCH  18  19
ENDBRANCH  17  18
ENDBRANCH  16  17
ENDBRANCH  14  16
ENDBRANCH   2  14
TORSDOF 6
ENDMDL
