MODEL 1
REMARK VINA RESULT:      -6.8      0.000      0.000
REMARK  Name = 
REMARK  9 active torsions:
REMARK  status: ('A' for Active; 'I' for Inactive)
REMARK    1  A    between atoms: C_1  and  C_2
REMARK    2  A    between atoms: C_2  and  S_3
REMARK    3  A    between atoms: S_3  and  C_5
REMARK    4  A    between atoms: C_5  and  C_6
REMARK    5  A    between atoms: C_6  and  N_7
REMARK    6  A    between atoms: C_13  and  C_14
REMARK    7  A    between atoms: C_14  and  C_15
REMARK    8  A    between atoms: C_14  and  C_16
REMARK    9  A    between atoms: C_14  and  C_17
REMARK                            x       y       z     vdW  Elec       q    Type
REMARK                         _______ _______ _______ _____ _____    ______ ____
ROOT
ATOM      1  N   UNL     1       3.854   4.275  18.538  0.00  0.00    +0.000 N 
ATOM      2  C   UNL     1       3.661   3.153  19.327  0.00  0.00    +0.000 A 
ATOM      3  N   UNL     1       4.114   1.956  19.218  0.00  0.00    +0.000 NA
ATOM      4  S   UNL     1       2.583   3.497  20.702  0.00  0.00    +0.000 S 
ATOM      5  C   UNL     1       2.410   5.179  20.161  0.00  0.00    +0.000 A 
ATOM      6  C   UNL     1       1.674   6.178  20.785  0.00  0.00    +0.000 A 
ATOM      7  C   UNL     1       1.656   7.476  20.239  0.00  0.00    +0.000 A 
ATOM      8  C   UNL     1       2.363   7.686  19.039  0.00  0.00    +0.000 A 
ATOM      9  C   UNL     1       3.079   6.658  18.407  0.00  0.00    +0.000 A 
ATOM     10  C   UNL     1       3.136   5.397  18.981  0.00  0.00    +0.000 A 
ATOM     11  H   UNL     1       4.715   1.861  18.403  0.00  0.00    +0.000 HD
ENDROOT
BRANCH   7  12
ATOM     12  C   UNL     1       0.883   8.602  20.948  0.00  0.00    +0.000 C 
ATOM     13  C   UNL     1      -0.509   8.091  21.376  0.00  0.00    +0.000 C 
ATOM     14  C   UNL     1       1.583   9.130  22.221  0.00  0.00    +0.000 C 
ATOM     15  C   UNL     1       0.714   9.799  19.988  0.00  0.00    +0.000 C 
ENDBRANCH   7  12
BRANCH   1  16
ATOM     16  C   UNL     1       4.651   4.312  17.318  0.00  0.00    +0.000 C 
BRANCH  16  17
ATOM     17  C   UNL     1       6.111   4.688  17.581  0.00  0.00    +0.000 C 
BRANCH  17  18
ATOM     18  S   UNL     1       7.023   4.652  16.003  0.00  0.00    +0.000 S 
ATOM     19  O   UNL     1       7.577   6.100  15.766  0.00  0.00    +0.000 OA
BRANCH  18  21
ATOM     20  C   UNL     1       5.990   3.853  13.588  0.00  0.00    +0.000 C 
ATOM     21  C   UNL     1       5.570   4.413  14.933  0.00  0.00    +0.000 C 
ENDBRANCH  18  21
ENDBRANCH  17  18
ENDBRANCH  16  17
ENDBRANCH   1  16
TORSDOF 5
ENDMDL
MODEL 2
REMARK VINA RESULT:      -6.7      2.945      4.369
REMARK  Name = 
REMARK  9 active torsions:
REMARK  status: ('A' for Active; 'I' for Inactive)
REMARK    1  A    between atoms: C_1  and  C_2
REMARK    2  A    between atoms: C_2  and  S_3
REMARK    3  A    between atoms: S_3  and  C_5
REMARK    4  A    between atoms: C_5  and  C_6
REMARK    5  A    between atoms: C_6  and  N_7
REMARK    6  A    between atoms: C_13  and  C_14
REMARK    7  A    between atoms: C_14  and  C_15
REMARK    8  A    between atoms: C_14  and  C_16
REMARK    9  A    between atoms: C_14  and  C_17
REMARK                            x       y       z     vdW  Elec       q    Type
REMARK                         _______ _______ _______ _____ _____    ______ ____
ROOT
ATOM      1  N   UNL     1       5.983   4.446  16.274  0.00  0.00    +0.000 N 
ATOM      2  C   UNL     1       6.670   5.613  16.567  0.00  0.00    +0.000 A 
ATOM      3  N   UNL     1       7.657   6.183  15.975  0.00  0.00    +0.000 NA
ATOM      4  S   UNL     1       6.029   6.400  18.030  0.00  0.00    +0.000 S 
ATOM      5  C   UNL     1       4.832   5.103  18.218  0.00  0.00    +0.000 A 
ATOM      6  C   UNL     1       3.862   5.009  19.208  0.00  0.00    +0.000 A 
ATOM      7  C   UNL     1       2.967   3.923  19.206  0.00  0.00    +0.000 A 
ATOM      8  C   UNL     1       3.134   2.944  18.207  0.00  0.00    +0.000 A 
ATOM      9  C   UNL     1       4.137   3.041  17.231  0.00  0.00    +0.000 A 
ATOM     10  C   UNL     1       4.979   4.143  17.207  0.00  0.00    +0.000 A 
ATOM     11  H   UNL     1       7.950   5.656  15.156  0.00  0.00    +0.000 HD
ENDROOT
BRANCH   7  12
ATOM     12  C   UNL     1       1.858   3.832  20.270  0.00  0.00    +0.000 C 
ATOM     13  C   UNL     1       2.389   3.094  21.517  0.00  0.00    +0.000 C 
ATOM     14  C   UNL     1       1.340   5.209  20.746  0.00  0.00    +0.000 C 
ATOM     15  C   UNL     1       0.650   3.061  19.697  0.00  0.00    +0.000 C 
ENDBRANCH   7  12
BRANCH   1  16
ATOM     16  C   UNL     1       6.289   3.552  15.165  0.00  0.00    +0.000 C 
BRANCH  16  17
ATOM     17  C   UNL     1       5.698   4.037  13.839  0.00  0.00    +0.000 C 
BRANCH  17  18
ATOM     18  S   UNL     1       6.724   3.405  12.470  0.00  0.00    +0.000 S 
ATOM     19  O   UNL     1       7.128   4.644  11.598  0.00  0.00    +0.000 OA
BRANCH  18  21
ATOM     20  C   UNL     1       4.184   3.412  11.430  0.00  0.00    +0.000 C 
ATOM     21  C   UNL     1       5.390   2.512  11.612  0.00  0.00    +0.000 C 
ENDBRANCH  18  21
ENDBRANCH  17  18
ENDBRANCH  16  17
ENDBRANCH   1  16
TORSDOF 5
ENDMDL
MODEL 3
REMARK VINA RESULT:      -6.7      1.463      2.118
REMARK  Name = 
REMARK  9 active torsions:
REMARK  status: ('A' for Active; 'I' for Inactive)
REMARK    1  A    between atoms: C_1  and  C_2
REMARK    2  A    between atoms: C_2  and  S_3
REMARK    3  A    between atoms: S_3  and  C_5
REMARK    4  A    between atoms: C_5  and  C_6
REMARK    5  A    between atoms: C_6  and  N_7
REMARK    6  A    between atoms: C_13  and  C_14
REMARK    7  A    between atoms: C_14  and  C_15
REMARK    8  A    between atoms: C_14  and  C_16
REMARK    9  A    between atoms: C_14  and  C_17
REMARK                            x       y       z     vdW  Elec       q    Type
REMARK                         _______ _______ _______ _____ _____    ______ ____
ROOT
ATOM      1  N   UNL     1       3.822   5.344  17.861  0.00  0.00    +0.000 N 
ATOM      2  C   UNL     1       3.874   4.126  18.520  0.00  0.00    +0.000 A 
ATOM      3  N   UNL     1       4.445   3.020  18.205  0.00  0.00    +0.000 NA
ATOM      4  S   UNL     1       2.969   4.172  20.052  0.00  0.00    +0.000 S 
ATOM      5  C   UNL     1       2.526   5.865  19.754  0.00  0.00    +0.000 A 
ATOM      6  C   UNL     1       1.773   6.683  20.588  0.00  0.00    +0.000 A 
ATOM      7  C   UNL     1       1.527   8.018  20.216  0.00  0.00    +0.000 A 
ATOM      8  C   UNL     1       2.027   8.451  18.973  0.00  0.00    +0.000 A 
ATOM      9  C   UNL     1       2.762   7.602  18.130  0.00  0.00    +0.000 A 
ATOM     10  C   UNL     1       3.047   6.306  18.529  0.00  0.00    +0.000 A 
ATOM     11  H   UNL     1       4.932   3.095  17.315  0.00  0.00    +0.000 HD
ENDROOT
BRANCH   7  12
ATOM     12  C   UNL     1       0.735   8.948  21.153  0.00  0.00    +0.000 C 
ATOM     13  C   UNL     1       1.579   9.270  22.405  0.00  0.00    +0.000 C 
ATOM     14  C   UNL     1       0.349  10.299  20.507  0.00  0.00    +0.000 C 
ATOM     15  C   UNL     1      -0.575   8.256  21.586  0.00  0.00    +0.000 C 
ENDBRANCH   7  12
BRANCH   1  16
ATOM     16  C   UNL     1       4.428   5.620  16.565  0.00  0.00    +0.000 C 
BRANCH  16  17
ATOM     17  C   UNL     1       5.832   6.217  16.688  0.00  0.00    +0.000 C 
BRANCH  17  18
ATOM     18  S   UNL     1       7.056   4.952  16.209  0.00  0.00    +0.000 S 
ATOM     19  O   UNL     1       6.247   3.699  15.724  0.00  0.00    +0.000 OA
BRANCH  18  21
ATOM     20  C   UNL     1       7.684   5.895  18.710  0.00  0.00    +0.000 C 
ATOM     21  C   UNL     1       7.672   4.620  17.889  0.00  0.00    +0.000 C 
ENDBRANCH  18  21
ENDBRANCH  17  18
ENDBRANCH  16  17
ENDBRANCH   1  16
TORSDOF 5
ENDMDL
MODEL 4
REMARK VINA RESULT:      -6.7      3.221      4.177
REMARK  Name = 
REMARK  9 active torsions:
REMARK  status: ('A' for Active; 'I' for Inactive)
REMARK    1  A    between atoms: C_1  and  C_2
REMARK    2  A    between atoms: C_2  and  S_3
REMARK    3  A    between atoms: S_3  and  C_5
REMARK    4  A    between atoms: C_5  and  C_6
REMARK    5  A    between atoms: C_6  and  N_7
REMARK    6  A    between atoms: C_13  and  C_14
REMARK    7  A    between atoms: C_14  and  C_15
REMARK    8  A    between atoms: C_14  and  C_16
REMARK    9  A    between atoms: C_14  and  C_17
REMARK                            x       y       z     vdW  Elec       q    Type
REMARK                         _______ _______ _______ _____ _____    ______ ____
ROOT
ATOM      1  N   UNL     1       5.544   5.575  16.500  0.00  0.00    +0.000 N 
ATOM      2  C   UNL     1       6.660   5.969  17.220  0.00  0.00    +0.000 A 
ATOM      3  N   UNL     1       7.741   6.555  16.848  0.00  0.00    +0.000 NA
ATOM      4  S   UNL     1       6.506   5.556  18.945  0.00  0.00    +0.000 S 
ATOM      5  C   UNL     1       4.910   4.838  18.643  0.00  0.00    +0.000 A 
ATOM      6  C   UNL     1       4.067   4.268  19.588  0.00  0.00    +0.000 A 
ATOM      7  C   UNL     1       2.816   3.760  19.189  0.00  0.00    +0.000 A 
ATOM      8  C   UNL     1       2.498   3.816  17.818  0.00  0.00    +0.000 A 
ATOM      9  C   UNL     1       3.375   4.370  16.873  0.00  0.00    +0.000 A 
ATOM     10  C   UNL     1       4.581   4.918  17.283  0.00  0.00    +0.000 A 
ATOM     11  H   UNL     1       7.733   6.745  15.849  0.00  0.00    +0.000 HD
ENDROOT
BRANCH   7  12
ATOM     12  C   UNL     1       1.852   3.170  20.234  0.00  0.00    +0.000 C 
ATOM     13  C   UNL     1       1.160   1.917  19.657  0.00  0.00    +0.000 C 
ATOM     14  C   UNL     1       2.547   2.739  21.547  0.00  0.00    +0.000 C 
ATOM     15  C   UNL     1       0.782   4.218  20.605  0.00  0.00    +0.000 C 
ENDBRANCH   7  12
BRANCH   1  16
ATOM     16  C   UNL     1       5.378   5.735  15.061  0.00  0.00    +0.000 C 
BRANCH  16  17
ATOM     17  C   UNL     1       5.500   4.410  14.305  0.00  0.00    +0.000 C 
BRANCH  17  18
ATOM     18  S   UNL     1       7.221   4.213  13.733  0.00  0.00    +0.000 S 
ATOM     19  O   UNL     1       7.860   5.645  13.720  0.00  0.00    +0.000 OA
BRANCH  18  21
ATOM     20  C   UNL     1       5.414   3.174  11.947  0.00  0.00    +0.000 C 
ATOM     21  C   UNL     1       6.813   3.753  12.020  0.00  0.00    +0.000 C 
ENDBRANCH  18  21
ENDBRANCH  17  18
ENDBRANCH  16  17
ENDBRANCH   1  16
TORSDOF 5
ENDMDL
MODEL 5
REMARK VINA RESULT:      -6.6      1.170      1.641
REMARK  Name = 
REMARK  9 active torsions:
REMARK  status: ('A' for Active; 'I' for Inactive)
REMARK    1  A    between atoms: C_1  and  C_2
REMARK    2  A    between atoms: C_2  and  S_3
REMARK    3  A    between atoms: S_3  and  C_5
REMARK    4  A    between atoms: C_5  and  C_6
REMARK    5  A    between atoms: C_6  and  N_7
REMARK    6  A    between atoms: C_13  and  C_14
REMARK    7  A    between atoms: C_14  and  C_15
REMARK    8  A    between atoms: C_14  and  C_16
REMARK    9  A    between atoms: C_14  and  C_17
REMARK                            x       y       z     vdW  Elec       q    Type
REMARK                         _______ _______ _______ _____ _____    ______ ____
ROOT
ATOM      1  N   UNL     1       3.640   4.294  18.574  0.00  0.00    +0.000 N 
ATOM      2  C   UNL     1       3.404   3.173  19.353  0.00  0.00    +0.000 A 
ATOM      3  N   UNL     1       3.806   1.960  19.230  0.00  0.00    +0.000 NA
ATOM      4  S   UNL     1       2.352   3.549  20.739  0.00  0.00    +0.000 S 
ATOM      5  C   UNL     1       2.247   5.243  20.215  0.00  0.00    +0.000 A 
ATOM      6  C   UNL     1       1.558   6.266  20.854  0.00  0.00    +0.000 A 
ATOM      7  C   UNL     1       1.591   7.568  20.321  0.00  0.00    +0.000 A 
ATOM      8  C   UNL     1       2.298   7.760  19.118  0.00  0.00    +0.000 A 
ATOM      9  C   UNL     1       2.966   6.709  18.470  0.00  0.00    +0.000 A 
ATOM     10  C   UNL     1       2.973   5.441  19.033  0.00  0.00    +0.000 A 
ATOM     11  H   UNL     1       4.397   1.847  18.410  0.00  0.00    +0.000 HD
ENDROOT
BRANCH   7  12
ATOM     12  C   UNL     1       0.871   8.719  21.046  0.00  0.00    +0.000 C 
ATOM     13  C   UNL     1      -0.532   8.258  21.493  0.00  0.00    +0.000 C 
ATOM     14  C   UNL     1       1.609   9.215  22.311  0.00  0.00    +0.000 C 
ATOM     15  C   UNL     1       0.732   9.926  20.094  0.00  0.00    +0.000 C 
ENDBRANCH   7  12
BRANCH   1  16
ATOM     16  C   UNL     1       4.429   4.310  17.349  0.00  0.00    +0.000 C 
BRANCH  16  17
ATOM     17  C   UNL     1       5.917   4.553  17.611  0.00  0.00    +0.000 C 
BRANCH  17  18
ATOM     18  S   UNL     1       6.575   5.647  16.309  0.00  0.00    +0.000 S 
ATOM     19  O   UNL     1       7.697   4.842  15.565  0.00  0.00    +0.000 OA
BRANCH  18  21
ATOM     20  C   UNL     1       7.755   6.165  18.733  0.00  0.00    +0.000 C 
ATOM     21  C   UNL     1       7.373   6.839  17.429  0.00  0.00    +0.000 C 
ENDBRANCH  18  21
ENDBRANCH  17  18
ENDBRANCH  16  17
ENDBRANCH   1  16
TORSDOF 5
ENDMDL
MODEL 6
REMARK VINA RESULT:      -6.6      2.456      4.324
REMARK  Name = 
REMARK  9 active torsions:
REMARK  status: ('A' for Active; 'I' for Inactive)
REMARK    1  A    between atoms: C_1  and  C_2
REMARK    2  A    between atoms: C_2  and  S_3
REMARK    3  A    between atoms: S_3  and  C_5
REMARK    4  A    between atoms: C_5  and  C_6
REMARK    5  A    between atoms: C_6  and  N_7
REMARK    6  A    between atoms: C_13  and  C_14
REMARK    7  A    between atoms: C_14  and  C_15
REMARK    8  A    between atoms: C_14  and  C_16
REMARK    9  A    between atoms: C_14  and  C_17
REMARK                            x       y       z     vdW  Elec       q    Type
REMARK                         _______ _______ _______ _____ _____    ______ ____
ROOT
ATOM      1  N   UNL     1       4.451   4.638  18.064  0.00  0.00    +0.000 N 
ATOM      2  C   UNL     1       5.316   4.821  16.998  0.00  0.00    +0.000 A 
ATOM      3  N   UNL     1       6.183   4.035  16.470  0.00  0.00    +0.000 NA
ATOM      4  S   UNL     1       5.148   6.446  16.290  0.00  0.00    +0.000 S 
ATOM      5  C   UNL     1       3.896   6.849  17.483  0.00  0.00    +0.000 A 
ATOM      6  C   UNL     1       3.197   8.046  17.577  0.00  0.00    +0.000 A 
ATOM      7  C   UNL     1       2.212   8.202  18.571  0.00  0.00    +0.000 A 
ATOM      8  C   UNL     1       2.017   7.132  19.466  0.00  0.00    +0.000 A 
ATOM      9  C   UNL     1       2.753   5.940  19.374  0.00  0.00    +0.000 A 
ATOM     10  C   UNL     1       3.681   5.775  18.357  0.00  0.00    +0.000 A 
ATOM     11  H   UNL     1       6.205   3.136  16.945  0.00  0.00    +0.000 HD
ENDROOT
BRANCH   7  12
ATOM     12  C   UNL     1       1.397   9.505  18.655  0.00  0.00    +0.000 C 
ATOM     13  C   UNL     1       0.971   9.761  20.116  0.00  0.00    +0.000 C 
ATOM     14  C   UNL     1       2.175  10.755  18.184  0.00  0.00    +0.000 C 
ATOM     15  C   UNL     1       0.138   9.388  17.770  0.00  0.00    +0.000 C 
ENDBRANCH   7  12
BRANCH   1  16
ATOM     16  C   UNL     1       4.371   3.432  18.879  0.00  0.00    +0.000 C 
BRANCH  16  17
ATOM     17  C   UNL     1       3.702   2.269  18.143  0.00  0.00    +0.000 C 
BRANCH  17  18
ATOM     18  S   UNL     1       2.046   1.995  18.856  0.00  0.00    +0.000 S 
ATOM     19  O   UNL     1       1.089   3.049  18.198  0.00  0.00    +0.000 OA
BRANCH  18  21
ATOM     20  C   UNL     1       1.215   3.104  21.226  0.00  0.00    +0.000 C 
ATOM     21  C   UNL     1       2.452   2.561  20.537  0.00  0.00    +0.000 C 
ENDBRANCH  18  21
ENDBRANCH  17  18
ENDBRANCH  16  17
ENDBRANCH   1  16
TORSDOF 5
ENDMDL
MODEL 7
REMARK VINA RESULT:      -6.6      0.296      1.010
REMARK  Name = 
REMARK  9 active torsions:
REMARK  status: ('A' for Active; 'I' for Inactive)
REMARK    1  A    between atoms: C_1  and  C_2
REMARK    2  A    between atoms: C_2  and  S_3
REMARK    3  A    between atoms: S_3  and  C_5
REMARK    4  A    between atoms: C_5  and  C_6
REMARK    5  A    between atoms: C_6  and  N_7
REMARK    6  A    between atoms: C_13  and  C_14
REMARK    7  A    between atoms: C_14  and  C_15
REMARK    8  A    between atoms: C_14  and  C_16
REMARK    9  A    between atoms: C_14  and  C_17
REMARK                            x       y       z     vdW  Elec       q    Type
REMARK                         _______ _______ _______ _____ _____    ______ ____
ROOT
ATOM      1  N   UNL     1       3.872   4.320  18.720  0.00  0.00    +0.000 N 
ATOM      2  C   UNL     1       3.629   3.196  19.492  0.00  0.00    +0.000 A 
ATOM      3  N   UNL     1       4.081   1.998  19.403  0.00  0.00    +0.000 NA
ATOM      4  S   UNL     1       2.482   3.542  20.809  0.00  0.00    +0.000 S 
ATOM      5  C   UNL     1       2.348   5.227  20.266  0.00  0.00    +0.000 A 
ATOM      6  C   UNL     1       1.585   6.228  20.854  0.00  0.00    +0.000 A 
ATOM      7  C   UNL     1       1.604   7.528  20.314  0.00  0.00    +0.000 A 
ATOM      8  C   UNL     1       2.375   7.738  19.154  0.00  0.00    +0.000 A 
ATOM      9  C   UNL     1       3.118   6.709  18.557  0.00  0.00    +0.000 A 
ATOM     10  C   UNL     1       3.137   5.446  19.128  0.00  0.00    +0.000 A 
ATOM     11  H   UNL     1       4.724   1.902  18.621  0.00  0.00    +0.000 HD
ENDROOT
BRANCH   7  12
ATOM     12  C   UNL     1       0.800   8.656  20.985  0.00  0.00    +0.000 C 
ATOM     13  C   UNL     1       1.542   9.147  22.246  0.00  0.00    +0.000 C 
ATOM     14  C   UNL     1       0.585   9.889  20.077  0.00  0.00    +0.000 C 
ATOM     15  C   UNL     1      -0.595   8.132  21.385  0.00  0.00    +0.000 C 
ENDBRANCH   7  12
BRANCH   1  16
ATOM     16  C   UNL     1       4.733   4.358  17.545  0.00  0.00    +0.000 C 
BRANCH  16  17
ATOM     17  C   UNL     1       6.187   4.685  17.892  0.00  0.00    +0.000 C 
BRANCH  17  18
ATOM     18  S   UNL     1       7.197   4.563  16.378  0.00  0.00    +0.000 S 
ATOM     19  O   UNL     1       7.341   6.018  15.811  0.00  0.00    +0.000 OA
BRANCH  18  21
ATOM     20  C   UNL     1       6.082   4.069  13.919  0.00  0.00    +0.000 C 
ATOM     21  C   UNL     1       5.959   3.679  15.379  0.00  0.00    +0.000 C 
ENDBRANCH  18  21
ENDBRANCH  17  18
ENDBRANCH  16  17
ENDBRANCH   1  16
TORSDOF 5
ENDMDL
MODEL 8
REMARK VINA RESULT:      -6.6      2.897      4.278
REMARK  Name = 
REMARK  9 active torsions:
REMARK  status: ('A' for Active; 'I' for Inactive)
REMARK    1  A    between atoms: C_1  and  C_2
REMARK    2  A    between atoms: C_2  and  S_3
REMARK    3  A    between atoms: S_3  and  C_5
REMARK    4  A    between atoms: C_5  and  C_6
REMARK    5  A    between atoms: C_6  and  N_7
REMARK    6  A    between atoms: C_13  and  C_14
REMARK    7  A    between atoms: C_14  and  C_15
REMARK    8  A    between atoms: C_14  and  C_16
REMARK    9  A    between atoms: C_14  and  C_17
REMARK                            x       y       z     vdW  Elec       q    Type
REMARK                         _______ _______ _______ _____ _____    ______ ____
ROOT
ATOM      1  N   UNL     1       5.986   4.533  16.351  0.00  0.00    +0.000 N 
ATOM      2  C   UNL     1       6.687   5.689  16.652  0.00  0.00    +0.000 A 
ATOM      3  N   UNL     1       7.678   6.254  16.061  0.00  0.00    +0.000 NA
ATOM      4  S   UNL     1       6.060   6.471  18.124  0.00  0.00    +0.000 S 
ATOM      5  C   UNL     1       4.850   5.185  18.306  0.00  0.00    +0.000 A 
ATOM      6  C   UNL     1       3.883   5.093  19.299  0.00  0.00    +0.000 A 
ATOM      7  C   UNL     1       2.975   4.017  19.291  0.00  0.00    +0.000 A 
ATOM      8  C   UNL     1       3.128   3.045  18.282  0.00  0.00    +0.000 A 
ATOM      9  C   UNL     1       4.128   3.139  17.303  0.00  0.00    +0.000 A 
ATOM     10  C   UNL     1       4.982   4.232  17.286  0.00  0.00    +0.000 A 
ATOM     11  H   UNL     1       7.962   5.731  15.236  0.00  0.00    +0.000 HD
ENDROOT
BRANCH   7  12
ATOM     12  C   UNL     1       1.870   3.929  20.358  0.00  0.00    +0.000 C 
ATOM     13  C   UNL     1       0.646   3.184  19.783  0.00  0.00    +0.000 C 
ATOM     14  C   UNL     1       2.300   3.173  21.637  0.00  0.00    +0.000 C 
ATOM     15  C   UNL     1       1.447   5.350  20.786  0.00  0.00    +0.000 C 
ENDBRANCH   7  12
BRANCH   1  16
ATOM     16  C   UNL     1       6.278   3.645  15.233  0.00  0.00    +0.000 C 
BRANCH  16  17
ATOM     17  C   UNL     1       5.768   4.194  13.899  0.00  0.00    +0.000 C 
BRANCH  17  18
ATOM     18  S   UNL     1       6.810   3.537  12.554  0.00  0.00    +0.000 S 
ATOM     19  O   UNL     1       7.214   4.757  11.656  0.00  0.00    +0.000 OA
BRANCH  18  21
ATOM     20  C   UNL     1       6.024   1.306  11.159  0.00  0.00    +0.000 C 
ATOM     21  C   UNL     1       5.488   2.616  11.705  0.00  0.00    +0.000 C 
ENDBRANCH  18  21
ENDBRANCH  17  18
ENDBRANCH  16  17
ENDBRANCH   1  16
TORSDOF 5
ENDMDL
MODEL 9
REMARK VINA RESULT:      -6.5      1.197      1.677
REMARK  Name = 
REMARK  9 active torsions:
REMARK  status: ('A' for Active; 'I' for Inactive)
REMARK    1  A    between atoms: C_1  and  C_2
REMARK    2  A    between atoms: C_2  and  S_3
REMARK    3  A    between atoms: S_3  and  C_5
REMARK    4  A    between atoms: C_5  and  C_6
REMARK    5  A    between atoms: C_6  and  N_7
REMARK    6  A    between atoms: C_13  and  C_14
REMARK    7  A    between atoms: C_14  and  C_15
REMARK    8  A    between atoms: C_14  and  C_16
REMARK    9  A    between atoms: C_14  and  C_17
REMARK                            x       y       z     vdW  Elec       q    Type
REMARK                         _______ _______ _______ _____ _____    ______ ____
ROOT
ATOM      1  N   UNL     1       3.685   5.010  18.604  0.00  0.00    +0.000 N 
ATOM      2  C   UNL     1       3.329   4.253  19.708  0.00  0.00    +0.000 A 
ATOM      3  N   UNL     1       3.659   3.062  20.058  0.00  0.00    +0.000 NA
ATOM      4  S   UNL     1       2.216   5.140  20.779  0.00  0.00    +0.000 S 
ATOM      5  C   UNL     1       2.253   6.535  19.680  0.00  0.00    +0.000 A 
ATOM      6  C   UNL     1       1.591   7.744  19.855  0.00  0.00    +0.000 A 
ATOM      7  C   UNL     1       1.742   8.766  18.899  0.00  0.00    +0.000 A 
ATOM      8  C   UNL     1       2.535   8.487  17.769  0.00  0.00    +0.000 A 
ATOM      9  C   UNL     1       3.174   7.250  17.595  0.00  0.00    +0.000 A 
ATOM     10  C   UNL     1       3.065   6.269  18.569  0.00  0.00    +0.000 A 
ATOM     11  H   UNL     1       4.293   2.642  19.383  0.00  0.00    +0.000 HD
ENDROOT
BRANCH   7  12
ATOM     12  C   UNL     1       1.051  10.126  19.105  0.00  0.00    +0.000 C 
ATOM     13  C   UNL     1       0.831  10.377  20.612  0.00  0.00    +0.000 C 
ATOM     14  C   UNL     1       1.864  11.324  18.561  0.00  0.00    +0.000 C 
ATOM     15  C   UNL     1      -0.312  10.131  18.383  0.00  0.00    +0.000 C 
ENDBRANCH   7  12
BRANCH   1  16
ATOM     16  C   UNL     1       4.550   4.556  17.523  0.00  0.00    +0.000 C 
BRANCH  16  17
ATOM     17  C   UNL     1       6.036   4.664  17.875  0.00  0.00    +0.000 C 
BRANCH  17  18
ATOM     18  S   UNL     1       7.002   4.764  16.331  0.00  0.00    +0.000 S 
ATOM     19  O   UNL     1       7.517   6.241  16.213  0.00  0.00    +0.000 OA
BRANCH  18  21
ATOM     20  C   UNL     1       6.055   3.945  13.888  0.00  0.00    +0.000 C 
ATOM     21  C   UNL     1       5.594   4.557  15.197  0.00  0.00    +0.000 C 
ENDBRANCH  18  21
ENDBRANCH  17  18
ENDBRANCH  16  17
ENDBRANCH   1  16
TORSDOF 5
ENDMDL
