MODEL 1
REMARK VINA RESULT:      -6.0      0.000      0.000
REMARK  Name = 
REMARK  10 active torsions:
REMARK  status: ('A' for Active; 'I' for Inactive)
REMARK    1  A    between atoms: C_1  and  O_2
REMARK    2  A    between atoms: O_2  and  C_3
REMARK    3  A    between atoms: C_3  and  C_4
REMARK    4  A    between atoms: N_8  and  S_9
REMARK    5  A    between atoms: S_9  and  N_12
REMARK    6  A    between atoms: N_12  and  C_13
REMARK    7  A    between atoms: C_13  and  C_14
REMARK    8  A    between atoms: C_13  and  C_15
REMARK    9  A    between atoms: C_13  and  C_16
REMARK   10  A    between atoms: C_16  and  N_17
REMARK                            x       y       z     vdW  Elec       q    Type
REMARK                         _______ _______ _______ _____ _____    ______ ____
ROOT
ATOM      1  N   UNL     1       3.655   5.109  18.947  0.00  0.00    +0.000 NA
ATOM      2  H   UNL     1       3.804   5.842  18.256  0.00  0.00    +0.000 HD
ENDROOT
BRANCH   1   3
ATOM      3  S   UNL     1       4.571   3.794  18.458  0.00  0.00    +0.000 S 
ATOM      4  O   UNL     1       3.831   3.117  17.422  0.00  0.00    +0.000 OA
ATOM      5  O   UNL     1       5.064   3.096  19.624  0.00  0.00    +0.000 OA
BRANCH   3  10
ATOM      6  C   UNL     1       5.964   6.025  17.600  0.00  0.00    +0.000 C 
ATOM      7  C   UNL     1       5.228   6.321  16.299  0.00  0.00    +0.000 C 
ATOM      8  C   UNL     1       5.631   5.179  15.382  0.00  0.00    +0.000 C 
ATOM      9  C   UNL     1       6.055   4.028  16.298  0.00  0.00    +0.000 C 
ATOM     10  N   UNL     1       5.914   4.528  17.717  0.00  0.00    +0.000 NA
BRANCH   6  11
ATOM     11  C   UNL     1       7.440   6.495  17.558  0.00  0.00    +0.000 C 
BRANCH  11  13
ATOM     12  C   UNL     1       8.070   8.759  17.822  0.00  0.00    +0.000 C 
ATOM     13  O   UNL     1       7.523   7.783  16.942  0.00  0.00    +0.000 OA
ENDBRANCH  11  13
ENDBRANCH   6  11
ENDBRANCH   3  10
ENDBRANCH   1   3
BRANCH   1  14
ATOM     14  C   UNL     1       2.139   4.956  19.121  0.00  0.00    +0.000 C 
ATOM     15  C   UNL     1       1.692   4.379  17.759  0.00  0.00    +0.000 C 
ATOM     16  C   UNL     1       1.819   3.927  20.216  0.00  0.00    +0.000 C 
BRANCH  14  17
ATOM     17  C   UNL     1       1.451   6.333  19.447  0.00  0.00    +0.000 C 
BRANCH  17  18
ATOM     18  N   UNL     1       2.291   7.550  19.619  0.00  0.00    +0.000 NA
ATOM     19  C   UNL     1       1.821   8.533  20.614  0.00  0.00    +0.000 C 
ATOM     20  C   UNL     1       0.491   9.189  20.229  0.00  0.00    +0.000 C 
ATOM     21  O   UNL     1       0.639   9.914  19.002  0.00  0.00    +0.000 OA
ATOM     22  C   UNL     1       1.111   9.063  17.948  0.00  0.00    +0.000 C 
ATOM     23  C   UNL     1       2.394   8.295  18.334  0.00  0.00    +0.000 C 
ENDBRANCH  17  18
ENDBRANCH  14  17
ENDBRANCH   1  14
TORSDOF 7
ENDMDL
MODEL 2
REMARK VINA RESULT:      -5.8      1.229      1.752
REMARK  Name = 
REMARK  10 active torsions:
REMARK  status: ('A' for Active; 'I' for Inactive)
REMARK    1  A    between atoms: C_1  and  O_2
REMARK    2  A    between atoms: O_2  and  C_3
REMARK    3  A    between atoms: C_3  and  C_4
REMARK    4  A    between atoms: N_8  and  S_9
REMARK    5  A    between atoms: S_9  and  N_12
REMARK    6  A    between atoms: N_12  and  C_13
REMARK    7  A    between atoms: C_13  and  C_14
REMARK    8  A    between atoms: C_13  and  C_15
REMARK    9  A    between atoms: C_13  and  C_16
REMARK   10  A    between atoms: C_16  and  N_17
REMARK                            x       y       z     vdW  Elec       q    Type
REMARK                         _______ _______ _______ _____ _____    ______ ____
ROOT
ATOM      1  N   UNL     1       3.890   5.709  19.710  0.00  0.00    +0.000 NA
ATOM      2  H   UNL     1       4.393   6.490  19.290  0.00  0.00    +0.000 HD
ENDROOT
BRANCH   1   3
ATOM      3  S   UNL     1       4.400   4.327  18.914  0.00  0.00    +0.000 S 
ATOM      4  O   UNL     1       3.395   4.000  17.933  0.00  0.00    +0.000 OA
ATOM      5  O   UNL     1       4.861   3.359  19.885  0.00  0.00    +0.000 OA
BRANCH   3  10
ATOM      6  C   UNL     1       5.957   6.337  17.825  0.00  0.00    +0.000 C 
ATOM      7  C   UNL     1       5.194   6.602  16.533  0.00  0.00    +0.000 C 
ATOM      8  C   UNL     1       5.445   5.358  15.697  0.00  0.00    +0.000 C 
ATOM      9  C   UNL     1       5.800   4.246  16.687  0.00  0.00    +0.000 C 
ATOM     10  N   UNL     1       5.771   4.866  18.065  0.00  0.00    +0.000 NA
BRANCH   6  11
ATOM     11  C   UNL     1       7.467   6.657  17.690  0.00  0.00    +0.000 C 
BRANCH  11  13
ATOM     12  C   UNL     1       8.139   8.913  17.914  0.00  0.00    +0.000 C 
ATOM     13  O   UNL     1       7.642   7.915  17.031  0.00  0.00    +0.000 OA
ENDBRANCH  11  13
ENDBRANCH   6  11
ENDBRANCH   3  10
ENDBRANCH   1   3
BRANCH   1  14
ATOM     14  C   UNL     1       2.403   6.081  19.710  0.00  0.00    +0.000 C 
ATOM     15  C   UNL     1       2.049   6.089  18.206  0.00  0.00    +0.000 C 
ATOM     16  C   UNL     1       1.571   4.990  20.401  0.00  0.00    +0.000 C 
BRANCH  14  17
ATOM     17  C   UNL     1       2.154   7.475  20.395  0.00  0.00    +0.000 C 
BRANCH  17  18
ATOM     18  N   UNL     1       0.811   8.111  20.299  0.00  0.00    +0.000 NA
ATOM     19  C   UNL     1       0.772   9.476  19.742  0.00  0.00    +0.000 C 
ATOM     20  C   UNL     1       1.482  10.506  20.627  0.00  0.00    +0.000 C 
ATOM     21  O   UNL     1       0.836  10.586  21.903  0.00  0.00    +0.000 OA
ATOM     22  C   UNL     1       0.795   9.303  22.547  0.00  0.00    +0.000 C 
ATOM     23  C   UNL     1       0.185   8.206  21.647  0.00  0.00    +0.000 C 
ENDBRANCH  17  18
ENDBRANCH  14  17
ENDBRANCH   1  14
TORSDOF 7
ENDMDL
MODEL 3
REMARK VINA RESULT:      -5.7      2.826      6.455
REMARK  Name = 
REMARK  10 active torsions:
REMARK  status: ('A' for Active; 'I' for Inactive)
REMARK    1  A    between atoms: C_1  and  O_2
REMARK    2  A    between atoms: O_2  and  C_3
REMARK    3  A    between atoms: C_3  and  C_4
REMARK    4  A    between atoms: N_8  and  S_9
REMARK    5  A    between atoms: S_9  and  N_12
REMARK    6  A    between atoms: N_12  and  C_13
REMARK    7  A    between atoms: C_13  and  C_14
REMARK    8  A    between atoms: C_13  and  C_15
REMARK    9  A    between atoms: C_13  and  C_16
REMARK   10  A    between atoms: C_16  and  N_17
REMARK                            x       y       z     vdW  Elec       q    Type
REMARK                         _______ _______ _______ _____ _____    ______ ____
ROOT
ATOM      1  N   UNL     1       5.509   5.682  18.177  0.00  0.00    +0.000 NA
ATOM      2  H   UNL     1       5.511   6.205  19.050  0.00  0.00    +0.000 HD
ENDROOT
BRANCH   1   3
ATOM      3  S   UNL     1       4.813   4.195  18.510  0.00  0.00    +0.000 S 
ATOM      4  O   UNL     1       5.527   3.628  19.627  0.00  0.00    +0.000 OA
ATOM      5  O   UNL     1       4.628   3.466  17.275  0.00  0.00    +0.000 OA
BRANCH   3  10
ATOM      6  C   UNL     1       2.309   3.542  19.486  0.00  0.00    +0.000 C 
ATOM      7  C   UNL     1       1.608   3.145  18.192  0.00  0.00    +0.000 C 
ATOM      8  C   UNL     1       1.453   4.457  17.442  0.00  0.00    +0.000 C 
ATOM      9  C   UNL     1       2.528   5.394  17.999  0.00  0.00    +0.000 C 
ATOM     10  N   UNL     1       3.265   4.622  19.069  0.00  0.00    +0.000 NA
BRANCH   6  11
ATOM     11  C   UNL     1       1.320   4.100  20.540  0.00  0.00    +0.000 C 
BRANCH  11  13
ATOM     12  C   UNL     1       2.365   2.425  21.843  0.00  0.00    +0.000 C 
ATOM     13  O   UNL     1       1.170   3.163  21.611  0.00  0.00    +0.000 OA
ENDBRANCH  11  13
ENDBRANCH   6  11
ENDBRANCH   3  10
ENDBRANCH   1   3
BRANCH   1  14
ATOM     14  C   UNL     1       6.932   5.744  17.611  0.00  0.00    +0.000 C 
ATOM     15  C   UNL     1       7.186   7.263  17.483  0.00  0.00    +0.000 C 
ATOM     16  C   UNL     1       7.941   5.163  18.613  0.00  0.00    +0.000 C 
BRANCH  14  17
ATOM     17  C   UNL     1       7.041   4.998  16.230  0.00  0.00    +0.000 C 
BRANCH  17  18
ATOM     18  N   UNL     1       6.676   5.714  14.977  0.00  0.00    +0.000 NA
ATOM     19  C   UNL     1       5.282   5.564  14.520  0.00  0.00    +0.000 C 
ATOM     20  C   UNL     1       4.936   4.130  14.106  0.00  0.00    +0.000 C 
ATOM     21  O   UNL     1       5.756   3.726  13.002  0.00  0.00    +0.000 OA
ATOM     22  C   UNL     1       7.151   3.843  13.320  0.00  0.00    +0.000 C 
ATOM     23  C   UNL     1       7.525   5.246  13.847  0.00  0.00    +0.000 C 
ENDBRANCH  17  18
ENDBRANCH  14  17
ENDBRANCH   1  14
TORSDOF 7
ENDMDL
MODEL 4
REMARK VINA RESULT:      -5.7      2.408      4.258
REMARK  Name = 
REMARK  10 active torsions:
REMARK  status: ('A' for Active; 'I' for Inactive)
REMARK    1  A    between atoms: C_1  and  O_2
REMARK    2  A    between atoms: O_2  and  C_3
REMARK    3  A    between atoms: C_3  and  C_4
REMARK    4  A    between atoms: N_8  and  S_9
REMARK    5  A    between atoms: S_9  and  N_12
REMARK    6  A    between atoms: N_12  and  C_13
REMARK    7  A    between atoms: C_13  and  C_14
REMARK    8  A    between atoms: C_13  and  C_15
REMARK    9  A    between atoms: C_13  and  C_16
REMARK   10  A    between atoms: C_16  and  N_17
REMARK                            x       y       z     vdW  Elec       q    Type
REMARK                         _______ _______ _______ _____ _____    ______ ____
ROOT
ATOM      1  N   UNL     1       4.221   5.979  19.865  0.00  0.00    +0.000 NA
ATOM      2  H   UNL     1       4.637   6.903  19.966  0.00  0.00    +0.000 HD
ENDROOT
BRANCH   1   3
ATOM      3  S   UNL     1       5.432   4.967  19.304  0.00  0.00    +0.000 S 
ATOM      4  O   UNL     1       4.963   3.612  19.453  0.00  0.00    +0.000 OA
ATOM      5  O   UNL     1       6.703   5.397  19.844  0.00  0.00    +0.000 OA
BRANCH   3  10
ATOM      6  C   UNL     1       6.050   4.300  16.691  0.00  0.00    +0.000 C 
ATOM      7  C   UNL     1       7.537   4.634  16.670  0.00  0.00    +0.000 C 
ATOM      8  C   UNL     1       7.574   6.150  16.751  0.00  0.00    +0.000 C 
ATOM      9  C   UNL     1       6.247   6.574  17.386  0.00  0.00    +0.000 C 
ATOM     10  N   UNL     1       5.462   5.307  17.638  0.00  0.00    +0.000 NA
BRANCH   6  11
ATOM     11  C   UNL     1       5.396   4.454  15.295  0.00  0.00    +0.000 C 
BRANCH  11  13
ATOM     12  C   UNL     1       5.627   3.701  13.065  0.00  0.00    +0.000 C 
ATOM     13  O   UNL     1       6.300   4.004  14.281  0.00  0.00    +0.000 OA
ENDBRANCH  11  13
ENDBRANCH   6  11
ENDBRANCH   3  10
ENDBRANCH   1   3
BRANCH   1  14
ATOM     14  C   UNL     1       2.936   6.152  19.047  0.00  0.00    +0.000 C 
ATOM     15  C   UNL     1       1.978   6.834  20.049  0.00  0.00    +0.000 C 
ATOM     16  C   UNL     1       3.168   7.107  17.867  0.00  0.00    +0.000 C 
BRANCH  14  17
ATOM     17  C   UNL     1       2.386   4.771  18.533  0.00  0.00    +0.000 C 
BRANCH  17  18
ATOM     18  N   UNL     1       1.144   4.207  19.129  0.00  0.00    +0.000 NA
ATOM     19  C   UNL     1       1.073   4.195  20.602  0.00  0.00    +0.000 C 
ATOM     20  C   UNL     1       2.111   3.272  21.248  0.00  0.00    +0.000 C 
ATOM     21  O   UNL     1       1.887   1.918  20.835  0.00  0.00    +0.000 OA
ATOM     22  C   UNL     1       1.917   1.798  19.405  0.00  0.00    +0.000 C 
ATOM     23  C   UNL     1       0.962   2.791  18.705  0.00  0.00    +0.000 C 
ENDBRANCH  17  18
ENDBRANCH  14  17
ENDBRANCH   1  14
TORSDOF 7
ENDMDL
MODEL 5
REMARK VINA RESULT:      -5.7      2.178      6.436
REMARK  Name = 
REMARK  10 active torsions:
REMARK  status: ('A' for Active; 'I' for Inactive)
REMARK    1  A    between atoms: C_1  and  O_2
REMARK    2  A    between atoms: O_2  and  C_3
REMARK    3  A    between atoms: C_3  and  C_4
REMARK    4  A    between atoms: N_8  and  S_9
REMARK    5  A    between atoms: S_9  and  N_12
REMARK    6  A    between atoms: N_12  and  C_13
REMARK    7  A    between atoms: C_13  and  C_14
REMARK    8  A    between atoms: C_13  and  C_15
REMARK    9  A    between atoms: C_13  and  C_16
REMARK   10  A    between atoms: C_16  and  N_17
REMARK                            x       y       z     vdW  Elec       q    Type
REMARK                         _______ _______ _______ _____ _____    ______ ____
ROOT
ATOM      1  N   UNL     1       5.497   5.455  17.764  0.00  0.00    +0.000 NA
ATOM      2  H   UNL     1       5.485   6.066  18.580  0.00  0.00    +0.000 HD
ENDROOT
BRANCH   1   3
ATOM      3  S   UNL     1       4.696   4.052  18.205  0.00  0.00    +0.000 S 
ATOM      4  O   UNL     1       5.351   3.533  19.380  0.00  0.00    +0.000 OA
ATOM      5  O   UNL     1       4.481   3.236  17.030  0.00  0.00    +0.000 OA
BRANCH   3  10
ATOM      6  C   UNL     1       2.720   4.409  20.108  0.00  0.00    +0.000 C 
ATOM      7  C   UNL     1       2.064   3.034  20.081  0.00  0.00    +0.000 C 
ATOM      8  C   UNL     1       1.366   2.987  18.733  0.00  0.00    +0.000 C 
ATOM      9  C   UNL     1       2.090   4.001  17.843  0.00  0.00    +0.000 C 
ATOM     10  N   UNL     1       3.172   4.628  18.692  0.00  0.00    +0.000 NA
BRANCH   6  11
ATOM     11  C   UNL     1       1.725   5.524  20.515  0.00  0.00    +0.000 C 
BRANCH  11  13
ATOM     12  C   UNL     1       1.571   7.872  20.749  0.00  0.00    +0.000 C 
ATOM     13  O   UNL     1       2.209   6.795  20.072  0.00  0.00    +0.000 OA
ENDBRANCH  11  13
ENDBRANCH   6  11
ENDBRANCH   3  10
ENDBRANCH   1   3
BRANCH   1  14
ATOM     14  C   UNL     1       6.951   5.380  17.281  0.00  0.00    +0.000 C 
ATOM     15  C   UNL     1       7.399   6.858  17.303  0.00  0.00    +0.000 C 
ATOM     16  C   UNL     1       7.814   4.593  18.278  0.00  0.00    +0.000 C 
BRANCH  14  17
ATOM     17  C   UNL     1       7.052   4.741  15.847  0.00  0.00    +0.000 C 
BRANCH  17  18
ATOM     18  N   UNL     1       6.458   5.453  14.682  0.00  0.00    +0.000 NA
ATOM     19  C   UNL     1       5.327   4.783  14.013  0.00  0.00    +0.000 C 
ATOM     20  C   UNL     1       5.724   3.467  13.336  0.00  0.00    +0.000 C 
ATOM     21  O   UNL     1       6.693   3.716  12.310  0.00  0.00    +0.000 OA
ATOM     22  C   UNL     1       7.848   4.386  12.837  0.00  0.00    +0.000 C 
ATOM     23  C   UNL     1       7.485   5.665  13.625  0.00  0.00    +0.000 C 
ENDBRANCH  17  18
ENDBRANCH  14  17
ENDBRANCH   1  14
TORSDOF 7
ENDMDL
MODEL 6
REMARK VINA RESULT:      -5.6      1.873      5.670
REMARK  Name = 
REMARK  10 active torsions:
REMARK  status: ('A' for Active; 'I' for Inactive)
REMARK    1  A    between atoms: C_1  and  O_2
REMARK    2  A    between atoms: O_2  and  C_3
REMARK    3  A    between atoms: C_3  and  C_4
REMARK    4  A    between atoms: N_8  and  S_9
REMARK    5  A    between atoms: S_9  and  N_12
REMARK    6  A    between atoms: N_12  and  C_13
REMARK    7  A    between atoms: C_13  and  C_14
REMARK    8  A    between atoms: C_13  and  C_15
REMARK    9  A    between atoms: C_13  and  C_16
REMARK   10  A    between atoms: C_16  and  N_17
REMARK                            x       y       z     vdW  Elec       q    Type
REMARK                         _______ _______ _______ _____ _____    ______ ____
ROOT
ATOM      1  N   UNL     1       3.411   3.846  16.936  0.00  0.00    +0.000 NA
ATOM      2  H   UNL     1       2.507   4.277  16.748  0.00  0.00    +0.000 HD
ENDROOT
BRANCH   1   3
ATOM      3  S   UNL     1       3.248   2.996  18.369  0.00  0.00    +0.000 S 
ATOM      4  O   UNL     1       4.503   3.092  19.072  0.00  0.00    +0.000 OA
ATOM      5  O   UNL     1       2.622   1.720  18.099  0.00  0.00    +0.000 OA
BRANCH   3  10
ATOM      6  C   UNL     1       2.545   4.624  20.492  0.00  0.00    +0.000 C 
ATOM      7  C   UNL     1       2.343   3.579  21.582  0.00  0.00    +0.000 C 
ATOM      8  C   UNL     1       1.081   2.847  21.159  0.00  0.00    +0.000 C 
ATOM      9  C   UNL     1       0.950   3.063  19.649  0.00  0.00    +0.000 C 
ATOM     10  N   UNL     1       2.117   3.928  19.232  0.00  0.00    +0.000 NA
BRANCH   6  11
ATOM     11  C   UNL     1       1.667   5.881  20.716  0.00  0.00    +0.000 C 
BRANCH  11  13
ATOM     12  C   UNL     1       1.605   8.220  20.373  0.00  0.00    +0.000 C 
ATOM     13  O   UNL     1       2.207   6.989  19.990  0.00  0.00    +0.000 OA
ENDBRANCH  11  13
ENDBRANCH   6  11
ENDBRANCH   3  10
ENDBRANCH   1   3
BRANCH   1  14
ATOM     14  C   UNL     1       4.467   4.953  16.825  0.00  0.00    +0.000 C 
ATOM     15  C   UNL     1       4.933   4.839  15.357  0.00  0.00    +0.000 C 
ATOM     16  C   UNL     1       3.829   6.335  17.030  0.00  0.00    +0.000 C 
BRANCH  14  17
ATOM     17  C   UNL     1       5.642   4.736  17.848  0.00  0.00    +0.000 C 
BRANCH  17  18
ATOM     18  N   UNL     1       7.052   4.826  17.377  0.00  0.00    +0.000 NA
ATOM     19  C   UNL     1       8.096   4.698  18.411  0.00  0.00    +0.000 C 
ATOM     20  C   UNL     1       8.088   5.851  19.420  0.00  0.00    +0.000 C 
ATOM     21  O   UNL     1       8.350   7.091  18.751  0.00  0.00    +0.000 OA
ATOM     22  C   UNL     1       7.400   7.326  17.701  0.00  0.00    +0.000 C 
ATOM     23  C   UNL     1       7.296   6.139  16.718  0.00  0.00    +0.000 C 
ENDBRANCH  17  18
ENDBRANCH  14  17
ENDBRANCH   1  14
TORSDOF 7
ENDMDL
MODEL 7
REMARK VINA RESULT:      -5.6      1.897      5.526
REMARK  Name = 
REMARK  10 active torsions:
REMARK  status: ('A' for Active; 'I' for Inactive)
REMARK    1  A    between atoms: C_1  and  O_2
REMARK    2  A    between atoms: O_2  and  C_3
REMARK    3  A    between atoms: C_3  and  C_4
REMARK    4  A    between atoms: N_8  and  S_9
REMARK    5  A    between atoms: S_9  and  N_12
REMARK    6  A    between atoms: N_12  and  C_13
REMARK    7  A    between atoms: C_13  and  C_14
REMARK    8  A    between atoms: C_13  and  C_15
REMARK    9  A    between atoms: C_13  and  C_16
REMARK   10  A    between atoms: C_16  and  N_17
REMARK                            x       y       z     vdW  Elec       q    Type
REMARK                         _______ _______ _______ _____ _____    ______ ____
ROOT
ATOM      1  N   UNL     1       3.626   4.222  16.831  0.00  0.00    +0.000 NA
ATOM      2  H   UNL     1       3.572   5.140  17.269  0.00  0.00    +0.000 HD
ENDROOT
BRANCH   1   3
ATOM      3  S   UNL     1       3.116   3.113  17.979  0.00  0.00    +0.000 S 
ATOM      4  O   UNL     1       4.253   2.797  18.806  0.00  0.00    +0.000 OA
ATOM      5  O   UNL     1       2.333   2.083  17.332  0.00  0.00    +0.000 OA
BRANCH   3  10
ATOM      6  C   UNL     1       2.560   4.742  20.145  0.00  0.00    +0.000 C 
ATOM      7  C   UNL     1       2.477   3.701  21.254  0.00  0.00    +0.000 C 
ATOM      8  C   UNL     1       1.201   2.937  20.946  0.00  0.00    +0.000 C 
ATOM      9  C   UNL     1       0.936   3.138  19.452  0.00  0.00    +0.000 C 
ATOM     10  N   UNL     1       2.042   4.026  18.930  0.00  0.00    +0.000 NA
BRANCH   6  11
ATOM     11  C   UNL     1       1.675   5.980  20.436  0.00  0.00    +0.000 C 
BRANCH  11  13
ATOM     12  C   UNL     1       2.445   7.404  18.713  0.00  0.00    +0.000 C 
ATOM     13  O   UNL     1       2.391   7.177  20.117  0.00  0.00    +0.000 OA
ENDBRANCH  11  13
ENDBRANCH   6  11
ENDBRANCH   3  10
ENDBRANCH   1   3
BRANCH   1  14
ATOM     14  C   UNL     1       5.028   4.095  16.224  0.00  0.00    +0.000 C 
ATOM     15  C   UNL     1       5.151   2.579  15.952  0.00  0.00    +0.000 C 
ATOM     16  C   UNL     1       5.108   4.839  14.882  0.00  0.00    +0.000 C 
BRANCH  14  17
ATOM     17  C   UNL     1       6.136   4.622  17.208  0.00  0.00    +0.000 C 
BRANCH  17  18
ATOM     18  N   UNL     1       5.817   5.734  18.145  0.00  0.00    +0.000 NA
ATOM     19  C   UNL     1       6.111   7.098  17.666  0.00  0.00    +0.000 C 
ATOM     20  C   UNL     1       7.607   7.354  17.463  0.00  0.00    +0.000 C 
ATOM     21  O   UNL     1       8.302   7.219  18.709  0.00  0.00    +0.000 OA
ATOM     22  C   UNL     1       8.081   5.926  19.290  0.00  0.00    +0.000 C 
ATOM     23  C   UNL     1       6.581   5.578  19.414  0.00  0.00    +0.000 C 
ENDBRANCH  17  18
ENDBRANCH  14  17
ENDBRANCH   1  14
TORSDOF 7
ENDMDL
MODEL 8
REMARK VINA RESULT:      -5.6      1.314      2.218
REMARK  Name = 
REMARK  10 active torsions:
REMARK  status: ('A' for Active; 'I' for Inactive)
REMARK    1  A    between atoms: C_1  and  O_2
REMARK    2  A    between atoms: O_2  and  C_3
REMARK    3  A    between atoms: C_3  and  C_4
REMARK    4  A    between atoms: N_8  and  S_9
REMARK    5  A    between atoms: S_9  and  N_12
REMARK    6  A    between atoms: N_12  and  C_13
REMARK    7  A    between atoms: C_13  and  C_14
REMARK    8  A    between atoms: C_13  and  C_15
REMARK    9  A    between atoms: C_13  and  C_16
REMARK   10  A    between atoms: C_16  and  N_17
REMARK                            x       y       z     vdW  Elec       q    Type
REMARK                         _______ _______ _______ _____ _____    ______ ____
ROOT
ATOM      1  N   UNL     1       3.768   5.304  19.106  0.00  0.00    +0.000 NA
ATOM      2  H   UNL     1       3.836   6.095  18.467  0.00  0.00    +0.000 HD
ENDROOT
BRANCH   1   3
ATOM      3  S   UNL     1       4.741   4.095  18.477  0.00  0.00    +0.000 S 
ATOM      4  O   UNL     1       3.881   2.995  18.117  0.00  0.00    +0.000 OA
ATOM      5  O   UNL     1       5.892   3.914  19.334  0.00  0.00    +0.000 OA
BRANCH   3  10
ATOM      6  C   UNL     1       6.773   4.726  16.709  0.00  0.00    +0.000 C 
ATOM      7  C   UNL     1       7.352   5.961  17.389  0.00  0.00    +0.000 C 
ATOM      8  C   UNL     1       6.275   7.017  17.209  0.00  0.00    +0.000 C 
ATOM      9  C   UNL     1       4.965   6.256  16.993  0.00  0.00    +0.000 C 
ATOM     10  N   UNL     1       5.307   4.784  17.029  0.00  0.00    +0.000 NA
BRANCH   6  11
ATOM     11  C   UNL     1       6.973   4.756  15.173  0.00  0.00    +0.000 C 
BRANCH  11  13
ATOM     12  C   UNL     1       6.232   3.685  13.199  0.00  0.00    +0.000 C 
ATOM     13  O   UNL     1       5.897   4.068  14.528  0.00  0.00    +0.000 OA
ENDBRANCH  11  13
ENDBRANCH   6  11
ENDBRANCH   3  10
ENDBRANCH   1   3
BRANCH   1  14
ATOM     14  C   UNL     1       2.275   5.037  19.334  0.00  0.00    +0.000 C 
ATOM     15  C   UNL     1       1.810   4.490  17.966  0.00  0.00    +0.000 C 
ATOM     16  C   UNL     1       2.076   3.941  20.391  0.00  0.00    +0.000 C 
BRANCH  14  17
ATOM     17  C   UNL     1       1.509   6.346  19.752  0.00  0.00    +0.000 C 
BRANCH  17  18
ATOM     18  N   UNL     1       2.257   7.628  19.871  0.00  0.00    +0.000 NA
ATOM     19  C   UNL     1       1.718   8.612  20.828  0.00  0.00    +0.000 C 
ATOM     20  C   UNL     1       0.343   9.153  20.424  0.00  0.00    +0.000 C 
ATOM     21  O   UNL     1       0.434   9.837  19.168  0.00  0.00    +0.000 OA
ATOM     22  C   UNL     1       0.965   8.981  18.146  0.00  0.00    +0.000 C 
ATOM     23  C   UNL     1       2.303   8.326  18.556  0.00  0.00    +0.000 C 
ENDBRANCH  17  18
ENDBRANCH  14  17
ENDBRANCH   1  14
TORSDOF 7
ENDMDL
MODEL 9
REMARK VINA RESULT:      -5.6      2.593      3.979
REMARK  Name = 
REMARK  10 active torsions:
REMARK  status: ('A' for Active; 'I' for Inactive)
REMARK    1  A    between atoms: C_1  and  O_2
REMARK    2  A    between atoms: O_2  and  C_3
REMARK    3  A    between atoms: C_3  and  C_4
REMARK    4  A    between atoms: N_8  and  S_9
REMARK    5  A    between atoms: S_9  and  N_12
REMARK    6  A    between atoms: N_12  and  C_13
REMARK    7  A    between atoms: C_13  and  C_14
REMARK    8  A    between atoms: C_13  and  C_15
REMARK    9  A    between atoms: C_13  and  C_16
REMARK   10  A    between atoms: C_16  and  N_17
REMARK                            x       y       z     vdW  Elec       q    Type
REMARK                         _______ _______ _______ _____ _____    ______ ____
ROOT
ATOM      1  N   UNL     1       2.752   8.527  18.103  0.00  0.00    +0.000 NA
ATOM      2  H   UNL     1       2.866   8.574  17.091  0.00  0.00    +0.000 HD
ENDROOT
BRANCH   1   3
ATOM      3  S   UNL     1       2.665   6.903  18.501  0.00  0.00    +0.000 S 
ATOM      4  O   UNL     1       1.786   6.273  17.546  0.00  0.00    +0.000 OA
ATOM      5  O   UNL     1       2.461   6.771  19.927  0.00  0.00    +0.000 OA
BRANCH   3  10
ATOM      6  C   UNL     1       4.501   5.573  16.916  0.00  0.00    +0.000 C 
ATOM      7  C   UNL     1       4.200   4.130  17.303  0.00  0.00    +0.000 C 
ATOM      8  C   UNL     1       4.701   4.021  18.733  0.00  0.00    +0.000 C 
ATOM      9  C   UNL     1       4.709   5.447  19.290  0.00  0.00    +0.000 C 
ATOM     10  N   UNL     1       4.240   6.352  18.174  0.00  0.00    +0.000 NA
BRANCH   6  11
ATOM     11  C   UNL     1       5.975   5.766  16.481  0.00  0.00    +0.000 C 
BRANCH  11  13
ATOM     12  C   UNL     1       6.765   4.757  14.493  0.00  0.00    +0.000 C 
ATOM     13  O   UNL     1       6.054   5.854  15.055  0.00  0.00    +0.000 OA
ENDBRANCH  11  13
ENDBRANCH   6  11
ENDBRANCH   3  10
ENDBRANCH   1   3
BRANCH   1  14
ATOM     14  C   UNL     1       1.592   9.462  18.468  0.00  0.00    +0.000 C 
ATOM     15  C   UNL     1       2.127  10.852  18.056  0.00  0.00    +0.000 C 
ATOM     16  C   UNL     1       0.352   9.145  17.620  0.00  0.00    +0.000 C 
BRANCH  14  17
ATOM     17  C   UNL     1       1.243   9.381  20.000  0.00  0.00    +0.000 C 
BRANCH  17  18
ATOM     18  N   UNL     1      -0.177   9.482  20.435  0.00  0.00    +0.000 NA
ATOM     19  C   UNL     1      -0.695  10.844  20.664  0.00  0.00    +0.000 C 
ATOM     20  C   UNL     1      -0.015  11.558  21.836  0.00  0.00    +0.000 C 
ATOM     21  O   UNL     1      -0.253  10.839  23.053  0.00  0.00    +0.000 OA
ATOM     22  C   UNL     1       0.199   9.480  22.952  0.00  0.00    +0.000 C 
ATOM     23  C   UNL     1      -0.379   8.753  21.718  0.00  0.00    +0.000 C 
ENDBRANCH  17  18
ENDBRANCH  14  17
ENDBRANCH   1  14
TORSDOF 7
ENDMDL
