MODEL 1
REMARK VINA RESULT:      -7.8      0.000      0.000
REMARK  Name = 
REMARK  7 active torsions:
REMARK  status: ('A' for Active; 'I' for Inactive)
REMARK    1  A    between atoms: C_1  and  N_2
REMARK    2  A    between atoms: N_2  and  C_3
REMARK    3  A    between atoms: N_2  and  C_4
REMARK    4  A    between atoms: C_7  and  C_8
REMARK    5  A    between atoms: C_11  and  C_12
REMARK    6  A    between atoms: C_12  and  O_13
REMARK    7  A    between atoms: C_12  and  C_14
REMARK                            x       y       z     vdW  Elec       q    Type
REMARK                         _______ _______ _______ _____ _____    ______ ____
ROOT
ATOM      1  C   UNL     1       2.484   6.311  19.718  0.00  0.00    +0.000 A 
ATOM      2  C   UNL     1       1.747   5.296  20.297  0.00  0.00    +0.000 A 
ATOM      3  S   UNL     1       2.645   3.838  20.297  0.00  0.00    +0.000 S 
ATOM      4  C   UNL     1       3.945   4.656  19.525  0.00  0.00    +0.000 A 
ATOM      5  N   UNL     1       3.740   5.933  19.264  0.00  0.00    +0.000 NA
ENDROOT
BRANCH   1   9
ATOM      6  C   UNL     1       0.938  10.284  19.029  0.00  0.00    +0.000 A 
ATOM      7  C   UNL     1       0.849   9.672  20.290  0.00  0.00    +0.000 A 
ATOM      8  C   UNL     1       1.355   8.385  20.536  0.00  0.00    +0.000 A 
ATOM      9  C   UNL     1       1.991   7.668  19.523  0.00  0.00    +0.000 A 
ATOM     10  C   UNL     1       2.152   8.283  18.280  0.00  0.00    +0.000 A 
ATOM     11  C   UNL     1       1.633   9.562  18.043  0.00  0.00    +0.000 A 
BRANCH   6  13
ATOM     12  C   UNL     1       0.999  12.735  19.342  0.00  0.00    +0.000 C 
ATOM     13  N   UNL     1       0.389  11.541  18.764  0.00  0.00    +0.000 N 
ATOM     14  C   UNL     1      -1.028  11.627  18.420  0.00  0.00    +0.000 C 
ENDBRANCH   6  13
ENDBRANCH   1   9
BRANCH   4  15
ATOM     15  C   UNL     1       5.225   3.924  19.200  0.00  0.00    +0.000 C 
BRANCH  15  16
ATOM     16  C   UNL     1       5.768   4.260  17.829  0.00  0.00    +0.000 A 
ATOM     17  C   UNL     1       7.037   4.854  17.668  0.00  0.00    +0.000 A 
ATOM     18  C   UNL     1       7.528   5.156  16.401  0.00  0.00    +0.000 A 
ATOM     19  C   UNL     1       6.756   4.872  15.279  0.00  0.00    +0.000 A 
ATOM     20  F   UNL     1       7.232   5.162  14.060  0.00  0.00    +0.000 F 
ATOM     21  C   UNL     1       5.505   4.289  15.419  0.00  0.00    +0.000 A 
ATOM     22  F   UNL     1       4.761   4.012  14.341  0.00  0.00    +0.000 F 
ATOM     23  C   UNL     1       5.005   3.983  16.683  0.00  0.00    +0.000 A 
ENDBRANCH  15  16
BRANCH  15  24
ATOM     24  O   UNL     1       4.966   2.516  19.238  0.00  0.00    +0.000 OA
ATOM     25  H   UNL     1       4.086   2.422  19.652  0.00  0.00    +0.000 HD
ENDBRANCH  15  24
ENDBRANCH   4  15
TORSDOF 5
ENDMDL
MODEL 2
REMARK VINA RESULT:      -7.8      0.284      1.220
REMARK  Name = 
REMARK  7 active torsions:
REMARK  status: ('A' for Active; 'I' for Inactive)
REMARK    1  A    between atoms: C_1  and  N_2
REMARK    2  A    between atoms: N_2  and  C_3
REMARK    3  A    between atoms: N_2  and  C_4
REMARK    4  A    between atoms: C_7  and  C_8
REMARK    5  A    between atoms: C_11  and  C_12
REMARK    6  A    between atoms: C_12  and  O_13
REMARK    7  A    between atoms: C_12  and  C_14
REMARK                            x       y       z     vdW  Elec       q    Type
REMARK                         _______ _______ _______ _____ _____    ______ ____
ROOT
ATOM      1  C   UNL     1       2.471   6.337  19.720  0.00  0.00    +0.000 A 
ATOM      2  C   UNL     1       1.740   5.359  20.367  0.00  0.00    +0.000 A 
ATOM      3  S   UNL     1       2.626   3.894  20.420  0.00  0.00    +0.000 S 
ATOM      4  C   UNL     1       3.914   4.661  19.579  0.00  0.00    +0.000 A 
ATOM      5  N   UNL     1       3.713   5.925  19.258  0.00  0.00    +0.000 NA
ENDROOT
BRANCH   1   9
ATOM      6  C   UNL     1       1.118  10.388  19.085  0.00  0.00    +0.000 A 
ATOM      7  C   UNL     1       1.703   9.641  18.050  0.00  0.00    +0.000 A 
ATOM      8  C   UNL     1       2.139   8.318  18.234  0.00  0.00    +0.000 A 
ATOM      9  C   UNL     1       1.985   7.687  19.469  0.00  0.00    +0.000 A 
ATOM     10  C   UNL     1       1.345   8.386  20.492  0.00  0.00    +0.000 A 
ATOM     11  C   UNL     1       0.924   9.708  20.300  0.00  0.00    +0.000 A 
BRANCH   6  13
ATOM     12  C   UNL     1      -0.659  12.040  18.608  0.00  0.00    +0.000 C 
ATOM     13  N   UNL     1       0.731  11.720  18.923  0.00  0.00    +0.000 N 
ATOM     14  C   UNL     1       1.739  12.696  18.514  0.00  0.00    +0.000 C 
ENDBRANCH   6  13
ENDBRANCH   1   9
BRANCH   4  15
ATOM     15  C   UNL     1       5.181   3.902  19.262  0.00  0.00    +0.000 C 
BRANCH  15  16
ATOM     16  C   UNL     1       5.749   4.240  17.901  0.00  0.00    +0.000 A 
ATOM     17  C   UNL     1       7.030   4.813  17.764  0.00  0.00    +0.000 A 
ATOM     18  C   UNL     1       7.545   5.117  16.507  0.00  0.00    +0.000 A 
ATOM     19  C   UNL     1       6.785   4.854  15.372  0.00  0.00    +0.000 A 
ATOM     20  F   UNL     1       7.284   5.146  14.162  0.00  0.00    +0.000 F 
ATOM     21  C   UNL     1       5.522   4.292  15.488  0.00  0.00    +0.000 A 
ATOM     22  F   UNL     1       4.790   4.037  14.397  0.00  0.00    +0.000 F 
ATOM     23  C   UNL     1       4.998   3.985  16.742  0.00  0.00    +0.000 A 
ENDBRANCH  15  16
BRANCH  15  24
ATOM     24  O   UNL     1       4.887   2.500  19.281  0.00  0.00    +0.000 OA
ATOM     25  H   UNL     1       5.041   2.213  20.202  0.00  0.00    +0.000 HD
ENDBRANCH  15  24
ENDBRANCH   4  15
TORSDOF 5
ENDMDL
MODEL 3
REMARK VINA RESULT:      -7.7      5.299      6.684
REMARK  Name = 
REMARK  7 active torsions:
REMARK  status: ('A' for Active; 'I' for Inactive)
REMARK    1  A    between atoms: C_1  and  N_2
REMARK    2  A    between atoms: N_2  and  C_3
REMARK    3  A    between atoms: N_2  and  C_4
REMARK    4  A    between atoms: C_7  and  C_8
REMARK    5  A    between atoms: C_11  and  C_12
REMARK    6  A    between atoms: C_12  and  O_13
REMARK    7  A    between atoms: C_12  and  C_14
REMARK                            x       y       z     vdW  Elec       q    Type
REMARK                         _______ _______ _______ _____ _____    ______ ____
ROOT
ATOM      1  C   UNL     1       7.981   8.139  18.085  0.00  0.00    +0.000 A 
ATOM      2  C   UNL     1       8.344   7.057  18.862  0.00  0.00    +0.000 A 
ATOM      3  S   UNL     1       7.516   5.650  18.343  0.00  0.00    +0.000 S 
ATOM      4  C   UNL     1       6.733   6.578  17.126  0.00  0.00    +0.000 A 
ATOM      5  N   UNL     1       7.046   7.860  17.098  0.00  0.00    +0.000 NA
ENDROOT
BRANCH   1   9
ATOM      6  C   UNL     1       9.575  12.107  18.683  0.00  0.00    +0.000 A 
ATOM      7  C   UNL     1       8.622  11.844  17.686  0.00  0.00    +0.000 A 
ATOM      8  C   UNL     1       8.084  10.562  17.483  0.00  0.00    +0.000 A 
ATOM      9  C   UNL     1       8.472   9.495  18.293  0.00  0.00    +0.000 A 
ATOM     10  C   UNL     1       9.366   9.747  19.333  0.00  0.00    +0.000 A 
ATOM     11  C   UNL     1       9.904  11.026  19.520  0.00  0.00    +0.000 A 
BRANCH   6  13
ATOM     12  C   UNL     1       9.512  14.545  18.277  0.00  0.00    +0.000 C 
ATOM     13  N   UNL     1      10.152  13.368  18.855  0.00  0.00    +0.000 N 
ATOM     14  C   UNL     1      11.592  13.451  19.089  0.00  0.00    +0.000 C 
ENDBRANCH   6  13
ENDBRANCH   1   9
BRANCH   4  15
ATOM     15  C   UNL     1       5.771   5.923  16.165  0.00  0.00    +0.000 C 
BRANCH  15  16
ATOM     16  C   UNL     1       4.509   5.427  16.835  0.00  0.00    +0.000 A 
ATOM     17  C   UNL     1       3.668   6.302  17.553  0.00  0.00    +0.000 A 
ATOM     18  C   UNL     1       2.507   5.835  18.163  0.00  0.00    +0.000 A 
ATOM     19  C   UNL     1       2.174   4.488  18.066  0.00  0.00    +0.000 A 
ATOM     20  F   UNL     1       1.054   4.042  18.653  0.00  0.00    +0.000 F 
ATOM     21  C   UNL     1       2.990   3.613  17.365  0.00  0.00    +0.000 A 
ATOM     22  F   UNL     1       2.671   2.317  17.268  0.00  0.00    +0.000 F 
ATOM     23  C   UNL     1       4.154   4.071  16.751  0.00  0.00    +0.000 A 
ENDBRANCH  15  16
BRANCH  15  24
ATOM     24  O   UNL     1       6.423   4.798  15.564  0.00  0.00    +0.000 OA
ATOM     25  H   UNL     1       6.831   5.138  14.745  0.00  0.00    +0.000 HD
ENDBRANCH  15  24
ENDBRANCH   4  15
TORSDOF 5
ENDMDL
MODEL 4
REMARK VINA RESULT:      -7.6      1.490      2.387
REMARK  Name = 
REMARK  7 active torsions:
REMARK  status: ('A' for Active; 'I' for Inactive)
REMARK    1  A    between atoms: C_1  and  N_2
REMARK    2  A    between atoms: N_2  and  C_3
REMARK    3  A    between atoms: N_2  and  C_4
REMARK    4  A    between atoms: C_7  and  C_8
REMARK    5  A    between atoms: C_11  and  C_12
REMARK    6  A    between atoms: C_12  and  O_13
REMARK    7  A    between atoms: C_12  and  C_14
REMARK                            x       y       z     vdW  Elec       q    Type
REMARK                         _______ _______ _______ _____ _____    ______ ____
ROOT
ATOM      1  C   UNL     1       3.391   6.309  18.765  0.00  0.00    +0.000 A 
ATOM      2  C   UNL     1       3.137   5.027  19.211  0.00  0.00    +0.000 A 
ATOM      3  S   UNL     1       4.433   3.987  18.793  0.00  0.00    +0.000 S 
ATOM      4  C   UNL     1       5.236   5.312  18.047  0.00  0.00    +0.000 A 
ATOM      5  N   UNL     1       4.591   6.463  18.086  0.00  0.00    +0.000 NA
ENDROOT
BRANCH   1   9
ATOM      6  C   UNL     1       0.746   9.676  19.327  0.00  0.00    +0.000 A 
ATOM      7  C   UNL     1       1.254   9.347  18.060  0.00  0.00    +0.000 A 
ATOM      8  C   UNL     1       2.106   8.250  17.855  0.00  0.00    +0.000 A 
ATOM      9  C   UNL     1       2.467   7.425  18.920  0.00  0.00    +0.000 A 
ATOM     10  C   UNL     1       1.921   7.692  20.176  0.00  0.00    +0.000 A 
ATOM     11  C   UNL     1       1.081   8.795  20.371  0.00  0.00    +0.000 A 
BRANCH   6  13
ATOM     12  C   UNL     1      -0.454  11.153  20.905  0.00  0.00    +0.000 C 
ATOM     13  N   UNL     1      -0.059  10.796  19.546  0.00  0.00    +0.000 N 
ATOM     14  C   UNL     1      -0.934  11.249  18.467  0.00  0.00    +0.000 C 
ENDBRANCH   6  13
ENDBRANCH   1   9
BRANCH   4  15
ATOM     15  C   UNL     1       6.595   5.126  17.416  0.00  0.00    +0.000 C 
BRANCH  15  16
ATOM     16  C   UNL     1       6.522   4.771  15.947  0.00  0.00    +0.000 A 
ATOM     17  C   UNL     1       5.506   3.932  15.445  0.00  0.00    +0.000 A 
ATOM     18  C   UNL     1       5.447   3.614  14.091  0.00  0.00    +0.000 A 
ATOM     19  C   UNL     1       6.406   4.127  13.223  0.00  0.00    +0.000 A 
ATOM     20  F   UNL     1       6.346   3.820  11.919  0.00  0.00    +0.000 F 
ATOM     21  C   UNL     1       7.414   4.951  13.700  0.00  0.00    +0.000 A 
ATOM     22  F   UNL     1       8.336   5.448  12.867  0.00  0.00    +0.000 F 
ATOM     23  C   UNL     1       7.481   5.276  15.054  0.00  0.00    +0.000 A 
ENDBRANCH  15  16
BRANCH  15  24
ATOM     24  O   UNL     1       7.270   4.061  18.095  0.00  0.00    +0.000 OA
ATOM     25  H   UNL     1       7.449   4.396  18.995  0.00  0.00    +0.000 HD
ENDBRANCH  15  24
ENDBRANCH   4  15
TORSDOF 5
ENDMDL
MODEL 5
REMARK VINA RESULT:      -7.6      0.697      1.374
REMARK  Name = 
REMARK  7 active torsions:
REMARK  status: ('A' for Active; 'I' for Inactive)
REMARK    1  A    between atoms: C_1  and  N_2
REMARK    2  A    between atoms: N_2  and  C_3
REMARK    3  A    between atoms: N_2  and  C_4
REMARK    4  A    between atoms: C_7  and  C_8
REMARK    5  A    between atoms: C_11  and  C_12
REMARK    6  A    between atoms: C_12  and  O_13
REMARK    7  A    between atoms: C_12  and  C_14
REMARK                            x       y       z     vdW  Elec       q    Type
REMARK                         _______ _______ _______ _____ _____    ______ ____
ROOT
ATOM      1  C   UNL     1       2.351   6.353  19.881  0.00  0.00    +0.000 A 
ATOM      2  C   UNL     1       1.647   5.413  20.609  0.00  0.00    +0.000 A 
ATOM      3  S   UNL     1       2.476   3.914  20.600  0.00  0.00    +0.000 S 
ATOM      4  C   UNL     1       3.707   4.617  19.629  0.00  0.00    +0.000 A 
ATOM      5  N   UNL     1       3.526   5.885  19.310  0.00  0.00    +0.000 NA
ENDROOT
BRANCH   1   9
ATOM      6  C   UNL     1       0.919  10.351  19.103  0.00  0.00    +0.000 A 
ATOM      7  C   UNL     1       0.805   9.767  20.375  0.00  0.00    +0.000 A 
ATOM      8  C   UNL     1       1.275   8.472  20.651  0.00  0.00    +0.000 A 
ATOM      9  C   UNL     1       1.898   7.718  19.656  0.00  0.00    +0.000 A 
ATOM     10  C   UNL     1       2.082   8.303  18.403  0.00  0.00    +0.000 A 
ATOM     11  C   UNL     1       1.601   9.591  18.137  0.00  0.00    +0.000 A 
BRANCH   6  13
ATOM     12  C   UNL     1       1.027  12.804  19.391  0.00  0.00    +0.000 C 
ATOM     13  N   UNL     1       0.407  11.617  18.810  0.00  0.00    +0.000 N 
ATOM     14  C   UNL     1      -0.998  11.731  18.426  0.00  0.00    +0.000 C 
ENDBRANCH   6  13
ENDBRANCH   1   9
BRANCH   4  15
ATOM     15  C   UNL     1       4.906   3.804  19.204  0.00  0.00    +0.000 C 
BRANCH  15  16
ATOM     16  C   UNL     1       5.477   4.239  17.873  0.00  0.00    +0.000 A 
ATOM     17  C   UNL     1       5.083   3.620  16.669  0.00  0.00    +0.000 A 
ATOM     18  C   UNL     1       5.612   4.031  15.449  0.00  0.00    +0.000 A 
ATOM     19  C   UNL     1       6.544   5.063  15.417  0.00  0.00    +0.000 A 
ATOM     20  F   UNL     1       7.051   5.458  14.241  0.00  0.00    +0.000 F 
ATOM     21  C   UNL     1       6.944   5.682  16.592  0.00  0.00    +0.000 A 
ATOM     22  F   UNL     1       7.839   6.678  16.564  0.00  0.00    +0.000 F 
ATOM     23  C   UNL     1       6.420   5.278  17.818  0.00  0.00    +0.000 A 
ENDBRANCH  15  16
BRANCH  15  24
ATOM     24  O   UNL     1       4.506   2.433  19.086  0.00  0.00    +0.000 OA
ATOM     25  H   UNL     1       4.520   2.238  18.129  0.00  0.00    +0.000 HD
ENDBRANCH  15  24
ENDBRANCH   4  15
TORSDOF 5
ENDMDL
MODEL 6
REMARK VINA RESULT:      -7.6      0.790      1.850
REMARK  Name = 
REMARK  7 active torsions:
REMARK  status: ('A' for Active; 'I' for Inactive)
REMARK    1  A    between atoms: C_1  and  N_2
REMARK    2  A    between atoms: N_2  and  C_3
REMARK    3  A    between atoms: N_2  and  C_4
REMARK    4  A    between atoms: C_7  and  C_8
REMARK    5  A    between atoms: C_11  and  C_12
REMARK    6  A    between atoms: C_12  and  O_13
REMARK    7  A    between atoms: C_12  and  C_14
REMARK                            x       y       z     vdW  Elec       q    Type
REMARK                         _______ _______ _______ _____ _____    ______ ____
ROOT
ATOM      1  C   UNL     1       2.345   6.434  19.797  0.00  0.00    +0.000 A 
ATOM      2  C   UNL     1       1.656   5.548  20.602  0.00  0.00    +0.000 A 
ATOM      3  S   UNL     1       2.463   4.038  20.647  0.00  0.00    +0.000 S 
ATOM      4  C   UNL     1       3.666   4.666  19.593  0.00  0.00    +0.000 A 
ATOM      5  N   UNL     1       3.491   5.917  19.210  0.00  0.00    +0.000 NA
ENDROOT
BRANCH   1   9
ATOM      6  C   UNL     1       1.116  10.509  19.068  0.00  0.00    +0.000 A 
ATOM      7  C   UNL     1       1.724   9.737  18.065  0.00  0.00    +0.000 A 
ATOM      8  C   UNL     1       2.121   8.407  18.279  0.00  0.00    +0.000 A 
ATOM      9  C   UNL     1       1.902   7.792  19.513  0.00  0.00    +0.000 A 
ATOM     10  C   UNL     1       1.238   8.518  20.503  0.00  0.00    +0.000 A 
ATOM     11  C   UNL     1       0.857   9.847  20.281  0.00  0.00    +0.000 A 
BRANCH   6  13
ATOM     12  C   UNL     1      -0.613  12.201  18.557  0.00  0.00    +0.000 C 
ATOM     13  N   UNL     1       0.767  11.848  18.876  0.00  0.00    +0.000 N 
ATOM     14  C   UNL     1       1.802  12.785  18.445  0.00  0.00    +0.000 C 
ENDBRANCH   6  13
ENDBRANCH   1   9
BRANCH   4  15
ATOM     15  C   UNL     1       4.837   3.811  19.171  0.00  0.00    +0.000 C 
BRANCH  15  16
ATOM     16  C   UNL     1       5.454   4.254  17.863  0.00  0.00    +0.000 A 
ATOM     17  C   UNL     1       5.111   3.634  16.644  0.00  0.00    +0.000 A 
ATOM     18  C   UNL     1       5.682   4.052  15.445  0.00  0.00    +0.000 A 
ATOM     19  C   UNL     1       6.605   5.093  15.450  0.00  0.00    +0.000 A 
ATOM     20  F   UNL     1       7.152   5.495  14.294  0.00  0.00    +0.000 F 
ATOM     21  C   UNL     1       6.955   5.713  16.640  0.00  0.00    +0.000 A 
ATOM     22  F   UNL     1       7.842   6.716  16.647  0.00  0.00    +0.000 F 
ATOM     23  C   UNL     1       6.389   5.302  17.845  0.00  0.00    +0.000 A 
ENDBRANCH  15  16
BRANCH  15  24
ATOM     24  O   UNL     1       4.381   2.463  19.009  0.00  0.00    +0.000 OA
ATOM     25  H   UNL     1       3.730   2.492  18.282  0.00  0.00    +0.000 HD
ENDBRANCH  15  24
ENDBRANCH   4  15
TORSDOF 5
ENDMDL
MODEL 7
REMARK VINA RESULT:      -7.5      5.473      6.806
REMARK  Name = 
REMARK  7 active torsions:
REMARK  status: ('A' for Active; 'I' for Inactive)
REMARK    1  A    between atoms: C_1  and  N_2
REMARK    2  A    between atoms: N_2  and  C_3
REMARK    3  A    between atoms: N_2  and  C_4
REMARK    4  A    between atoms: C_7  and  C_8
REMARK    5  A    between atoms: C_11  and  C_12
REMARK    6  A    between atoms: C_12  and  O_13
REMARK    7  A    between atoms: C_12  and  C_14
REMARK                            x       y       z     vdW  Elec       q    Type
REMARK                         _______ _______ _______ _____ _____    ______ ____
ROOT
ATOM      1  C   UNL     1       8.101   8.270  18.167  0.00  0.00    +0.000 A 
ATOM      2  C   UNL     1       8.411   7.212  18.998  0.00  0.00    +0.000 A 
ATOM      3  S   UNL     1       7.619   5.789  18.466  0.00  0.00    +0.000 S 
ATOM      4  C   UNL     1       6.920   6.679  17.173  0.00  0.00    +0.000 A 
ATOM      5  N   UNL     1       7.234   7.961  17.129  0.00  0.00    +0.000 NA
ENDROOT
BRANCH   1   9
ATOM      6  C   UNL     1       9.653  12.258  18.748  0.00  0.00    +0.000 A 
ATOM      7  C   UNL     1       8.732  11.972  17.726  0.00  0.00    +0.000 A 
ATOM      8  C   UNL     1       8.208  10.684  17.528  0.00  0.00    +0.000 A 
ATOM      9  C   UNL     1       8.577   9.632  18.367  0.00  0.00    +0.000 A 
ATOM     10  C   UNL     1       9.437   9.907  19.431  0.00  0.00    +0.000 A 
ATOM     11  C   UNL     1       9.962  11.193  19.612  0.00  0.00    +0.000 A 
BRANCH   6  13
ATOM     12  C   UNL     1       9.660  14.669  18.202  0.00  0.00    +0.000 C 
ATOM     13  N   UNL     1      10.217  13.525  18.917  0.00  0.00    +0.000 N 
ATOM     14  C   UNL     1      11.620  13.617  19.314  0.00  0.00    +0.000 C 
ENDBRANCH   6  13
ENDBRANCH   1   9
BRANCH   4  15
ATOM     15  C   UNL     1       6.024   5.995  16.169  0.00  0.00    +0.000 C 
BRANCH  15  16
ATOM     16  C   UNL     1       4.748   5.461  16.780  0.00  0.00    +0.000 A 
ATOM     17  C   UNL     1       4.360   4.116  16.610  0.00  0.00    +0.000 A 
ATOM     18  C   UNL     1       3.186   3.633  17.181  0.00  0.00    +0.000 A 
ATOM     19  C   UNL     1       2.382   4.491  17.925  0.00  0.00    +0.000 A 
ATOM     20  F   UNL     1       1.252   4.023  18.475  0.00  0.00    +0.000 F 
ATOM     21  C   UNL     1       2.747   5.817  18.101  0.00  0.00    +0.000 A 
ATOM     22  F   UNL     1       1.976   6.643  18.820  0.00  0.00    +0.000 F 
ATOM     23  C   UNL     1       3.920   6.309  17.535  0.00  0.00    +0.000 A 
ENDBRANCH  15  16
BRANCH  15  24
ATOM     24  O   UNL     1       6.737   4.890  15.601  0.00  0.00    +0.000 OA
ATOM     25  H   UNL     1       6.198   4.101  15.799  0.00  0.00    +0.000 HD
ENDBRANCH  15  24
ENDBRANCH   4  15
TORSDOF 5
ENDMDL
MODEL 8
REMARK VINA RESULT:      -7.4      4.297      8.466
REMARK  Name = 
REMARK  7 active torsions:
REMARK  status: ('A' for Active; 'I' for Inactive)
REMARK    1  A    between atoms: C_1  and  N_2
REMARK    2  A    between atoms: N_2  and  C_3
REMARK    3  A    between atoms: N_2  and  C_4
REMARK    4  A    between atoms: C_7  and  C_8
REMARK    5  A    between atoms: C_11  and  C_12
REMARK    6  A    between atoms: C_12  and  O_13
REMARK    7  A    between atoms: C_12  and  C_14
REMARK                            x       y       z     vdW  Elec       q    Type
REMARK                         _______ _______ _______ _____ _____    ______ ____
ROOT
ATOM      1  C   UNL     1       1.956   8.001  19.467  0.00  0.00    +0.000 A 
ATOM      2  C   UNL     1       1.357   7.834  20.700  0.00  0.00    +0.000 A 
ATOM      3  S   UNL     1       0.352   9.174  21.057  0.00  0.00    +0.000 S 
ATOM      4  C   UNL     1       0.787   9.882  19.552  0.00  0.00    +0.000 A 
ATOM      5  N   UNL     1       1.635   9.186  18.819  0.00  0.00    +0.000 NA
ENDROOT
BRANCH   1   9
ATOM      6  C   UNL     1       4.873   5.320  17.749  0.00  0.00    +0.000 A 
ATOM      7  C   UNL     1       4.185   4.995  18.930  0.00  0.00    +0.000 A 
ATOM      8  C   UNL     1       3.226   5.849  19.498  0.00  0.00    +0.000 A 
ATOM      9  C   UNL     1       2.905   7.061  18.886  0.00  0.00    +0.000 A 
ATOM     10  C   UNL     1       3.525   7.373  17.676  0.00  0.00    +0.000 A 
ATOM     11  C   UNL     1       4.488   6.519  17.124  0.00  0.00    +0.000 A 
BRANCH   6  13
ATOM     12  C   UNL     1       7.254   4.667  17.627  0.00  0.00    +0.000 C 
ATOM     13  N   UNL     1       5.866   4.499  17.209  0.00  0.00    +0.000 N 
ATOM     14  C   UNL     1       5.642   3.908  15.891  0.00  0.00    +0.000 C 
ENDBRANCH   6  13
ENDBRANCH   1   9
BRANCH   4  15
ATOM     15  C   UNL     1       0.200  11.208  19.132  0.00  0.00    +0.000 C 
BRANCH  15  16
ATOM     16  C   UNL     1      -1.219  11.092  18.619  0.00  0.00    +0.000 A 
ATOM     17  C   UNL     1      -2.265  11.855  19.177  0.00  0.00    +0.000 A 
ATOM     18  C   UNL     1      -3.566  11.744  18.694  0.00  0.00    +0.000 A 
ATOM     19  C   UNL     1      -3.838  10.865  17.651  0.00  0.00    +0.000 A 
ATOM     20  F   UNL     1      -5.091  10.760  17.186  0.00  0.00    +0.000 F 
ATOM     21  C   UNL     1      -2.821  10.105  17.091  0.00  0.00    +0.000 A 
ATOM     22  F   UNL     1      -3.080   9.261  16.085  0.00  0.00    +0.000 F 
ATOM     23  C   UNL     1      -1.516  10.210  17.567  0.00  0.00    +0.000 A 
ENDBRANCH  15  16
BRANCH  15  24
ATOM     24  O   UNL     1       1.007  11.749  18.079  0.00  0.00    +0.000 OA
ATOM     25  H   UNL     1       0.377  12.081  17.410  0.00  0.00    +0.000 HD
ENDBRANCH  15  24
ENDBRANCH   4  15
TORSDOF 5
ENDMDL
MODEL 9
REMARK VINA RESULT:      -7.4      1.620      2.259
REMARK  Name = 
REMARK  7 active torsions:
REMARK  status: ('A' for Active; 'I' for Inactive)
REMARK    1  A    between atoms: C_1  and  N_2
REMARK    2  A    between atoms: N_2  and  C_3
REMARK    3  A    between atoms: N_2  and  C_4
REMARK    4  A    between atoms: C_7  and  C_8
REMARK    5  A    between atoms: C_11  and  C_12
REMARK    6  A    between atoms: C_12  and  O_13
REMARK    7  A    between atoms: C_12  and  C_14
REMARK                            x       y       z     vdW  Elec       q    Type
REMARK                         _______ _______ _______ _____ _____    ______ ____
ROOT
ATOM      1  C   UNL     1       3.039   6.409  18.387  0.00  0.00    +0.000 A 
ATOM      2  C   UNL     1       2.495   5.142  18.299  0.00  0.00    +0.000 A 
ATOM      3  S   UNL     1       3.677   4.026  17.761  0.00  0.00    +0.000 S 
ATOM      4  C   UNL     1       4.825   5.302  17.680  0.00  0.00    +0.000 A 
ATOM      5  N   UNL     1       4.374   6.496  18.017  0.00  0.00    +0.000 NA
ENDROOT
BRANCH   1   9
ATOM      6  C   UNL     1       0.705   9.888  19.430  0.00  0.00    +0.000 A 
ATOM      7  C   UNL     1       1.089   8.947  20.399  0.00  0.00    +0.000 A 
ATOM      8  C   UNL     1       1.857   7.815  20.081  0.00  0.00    +0.000 A 
ATOM      9  C   UNL     1       2.287   7.595  18.772  0.00  0.00    +0.000 A 
ATOM     10  C   UNL     1       1.975   8.552  17.806  0.00  0.00    +0.000 A 
ATOM     11  C   UNL     1       1.200   9.672  18.132  0.00  0.00    +0.000 A 
BRANCH   6  13
ATOM     12  C   UNL     1      -0.352  11.347  21.124  0.00  0.00    +0.000 C 
ATOM     13  N   UNL     1      -0.103  10.988  19.731  0.00  0.00    +0.000 N 
ATOM     14  C   UNL     1      -1.107  11.405  18.754  0.00  0.00    +0.000 C 
ENDBRANCH   6  13
ENDBRANCH   1   9
BRANCH   4  15
ATOM     15  C   UNL     1       6.249   5.027  17.261  0.00  0.00    +0.000 C 
BRANCH  15  16
ATOM     16  C   UNL     1       6.388   4.752  15.780  0.00  0.00    +0.000 A 
ATOM     17  C   UNL     1       5.476   3.921  15.099  0.00  0.00    +0.000 A 
ATOM     18  C   UNL     1       5.611   3.678  13.735  0.00  0.00    +0.000 A 
ATOM     19  C   UNL     1       6.663   4.260  13.035  0.00  0.00    +0.000 A 
ATOM     20  F   UNL     1       6.790   4.026  11.721  0.00  0.00    +0.000 F 
ATOM     21  C   UNL     1       7.571   5.080  13.689  0.00  0.00    +0.000 A 
ATOM     22  F   UNL     1       8.583   5.643  13.017  0.00  0.00    +0.000 F 
ATOM     23  C   UNL     1       7.444   5.329  15.054  0.00  0.00    +0.000 A 
ENDBRANCH  15  16
BRANCH  15  24
ATOM     24  O   UNL     1       6.716   3.872  17.969  0.00  0.00    +0.000 OA
ATOM     25  H   UNL     1       6.563   4.065  18.914  0.00  0.00    +0.000 HD
ENDBRANCH  15  24
ENDBRANCH   4  15
TORSDOF 5
ENDMDL
