MODEL 1
REMARK VINA RESULT:      -7.2      0.000      0.000
REMARK  Name = 
REMARK  4 active torsions:
REMARK  status: ('A' for Active; 'I' for Inactive)
REMARK    1  A    between atoms: C_1  and  C_2
REMARK    2  A    between atoms: C_2  and  C_3
REMARK    3  A    between atoms: C_8  and  N_9
REMARK    4  A    between atoms: N_12  and  C_13
REMARK                            x       y       z     vdW  Elec       q    Type
REMARK                         _______ _______ _______ _____ _____    ______ ____
ROOT
ATOM      1  N   UNL     1       4.594   3.365  18.205  0.00  0.00    +0.000 N 
ATOM      2  C   UNL     1       4.747   3.814  16.902  0.00  0.00    +0.000 C 
ATOM      3  O   UNL     1       3.870   4.331  16.221  0.00  0.00    +0.000 OA
ATOM      4  N   UNL     1       6.015   3.563  16.393  0.00  0.00    +0.000 N 
ATOM      5  H   UNL     1       5.394   2.925  18.633  0.00  0.00    +0.000 HD
ATOM      6  H   UNL     1       6.438   2.696  16.703  0.00  0.00    +0.000 HD
ENDROOT
BRANCH   4   7
ATOM      7  C   UNL     1       6.319   3.929  15.053  0.00  0.00    +0.000 A 
ATOM      8  C   UNL     1       5.870   3.187  13.954  0.00  0.00    +0.000 A 
ATOM      9  C   UNL     1       6.285   3.530  12.671  0.00  0.00    +0.000 A 
ATOM     10  F   UNL     1       5.860   2.809  11.624  0.00  0.00    +0.000 F 
ATOM     11  C   UNL     1       7.140   4.607  12.455  0.00  0.00    +0.000 A 
ATOM     12  C   UNL     1       7.570   5.371  13.542  0.00  0.00    +0.000 A 
ATOM     13  C   UNL     1       7.139   5.041  14.827  0.00  0.00    +0.000 A 
ATOM     14  F   UNL     1       7.582   5.760  15.870  0.00  0.00    +0.000 F 
ENDBRANCH   4   7
BRANCH   1  20
ATOM     15  C   UNL     1       2.935   4.624  19.527  0.00  0.00    +0.000 A 
ATOM     16  C   UNL     1       1.776   4.607  20.338  0.00  0.00    +0.000 A 
ATOM     17  C   UNL     1       1.064   3.434  20.573  0.00  0.00    +0.000 A 
ATOM     18  C   UNL     1       1.483   2.260  19.984  0.00  0.00    +0.000 A 
ATOM     19  C   UNL     1       2.624   2.254  19.181  0.00  0.00    +0.000 A 
ATOM     20  C   UNL     1       3.391   3.414  18.961  0.00  0.00    +0.000 A 
BRANCH  15  22
ATOM     21  C   UNL     1       2.922   6.883  18.417  0.00  0.00    +0.000 C 
ATOM     22  C   UNL     1       3.633   5.958  19.398  0.00  0.00    +0.000 C 
ENDBRANCH  15  22
ENDBRANCH   1  20
TORSDOF 3
ENDMDL
MODEL 2
REMARK VINA RESULT:      -7.1      4.617      6.419
REMARK  Name = 
REMARK  4 active torsions:
REMARK  status: ('A' for Active; 'I' for Inactive)
REMARK    1  A    between atoms: C_1  and  C_2
REMARK    2  A    between atoms: C_2  and  C_3
REMARK    3  A    between atoms: C_8  and  N_9
REMARK    4  A    between atoms: N_12  and  C_13
REMARK                            x       y       z     vdW  Elec       q    Type
REMARK                         _______ _______ _______ _____ _____    ______ ____
ROOT
ATOM      1  N   UNL     1       1.979   7.873  19.880  0.00  0.00    +0.000 N 
ATOM      2  C   UNL     1       1.935   6.487  19.867  0.00  0.00    +0.000 C 
ATOM      3  O   UNL     1       1.178   5.794  20.536  0.00  0.00    +0.000 OA
ATOM      4  N   UNL     1       2.901   5.927  19.041  0.00  0.00    +0.000 N 
ATOM      5  H   UNL     1       2.680   8.312  19.304  0.00  0.00    +0.000 HD
ATOM      6  H   UNL     1       3.783   6.425  19.015  0.00  0.00    +0.000 HD
ENDROOT
BRANCH   4   7
ATOM      7  C   UNL     1       3.011   4.512  18.949  0.00  0.00    +0.000 A 
ATOM      8  C   UNL     1       3.917   3.779  19.725  0.00  0.00    +0.000 A 
ATOM      9  C   UNL     1       4.057   2.410  19.517  0.00  0.00    +0.000 A 
ATOM     10  F   UNL     1       4.934   1.716  20.255  0.00  0.00    +0.000 F 
ATOM     11  C   UNL     1       3.305   1.749  18.550  0.00  0.00    +0.000 A 
ATOM     12  C   UNL     1       2.377   2.466  17.792  0.00  0.00    +0.000 A 
ATOM     13  C   UNL     1       2.221   3.835  18.013  0.00  0.00    +0.000 A 
ATOM     14  F   UNL     1       1.351   4.523  17.257  0.00  0.00    +0.000 F 
ENDBRANCH   4   7
BRANCH   1  20
ATOM     15  C   UNL     1       0.332   9.696  20.101  0.00  0.00    +0.000 A 
ATOM     16  C   UNL     1      -0.396  10.568  20.945  0.00  0.00    +0.000 A 
ATOM     17  C   UNL     1      -0.326  10.472  22.332  0.00  0.00    +0.000 A 
ATOM     18  C   UNL     1       0.455   9.489  22.902  0.00  0.00    +0.000 A 
ATOM     19  C   UNL     1       1.182   8.619  22.089  0.00  0.00    +0.000 A 
ATOM     20  C   UNL     1       1.167   8.719  20.684  0.00  0.00    +0.000 A 
BRANCH  15  22
ATOM     21  C   UNL     1      -1.207  10.404  18.238  0.00  0.00    +0.000 C 
ATOM     22  C   UNL     1       0.197   9.946  18.616  0.00  0.00    +0.000 C 
ENDBRANCH  15  22
ENDBRANCH   1  20
TORSDOF 3
ENDMDL
MODEL 3
REMARK VINA RESULT:      -6.9      2.391      7.040
REMARK  Name = 
REMARK  4 active torsions:
REMARK  status: ('A' for Active; 'I' for Inactive)
REMARK    1  A    between atoms: C_1  and  C_2
REMARK    2  A    between atoms: C_2  and  C_3
REMARK    3  A    between atoms: C_8  and  N_9
REMARK    4  A    between atoms: N_12  and  C_13
REMARK                            x       y       z     vdW  Elec       q    Type
REMARK                         _______ _______ _______ _____ _____    ______ ____
ROOT
ATOM      1  N   UNL     1       5.983   3.220  15.330  0.00  0.00    +0.000 N 
ATOM      2  C   UNL     1       4.972   3.643  16.179  0.00  0.00    +0.000 C 
ATOM      3  O   UNL     1       4.434   4.744  16.149  0.00  0.00    +0.000 OA
ATOM      4  N   UNL     1       4.650   2.697  17.144  0.00  0.00    +0.000 N 
ATOM      5  H   UNL     1       6.361   2.299  15.493  0.00  0.00    +0.000 HD
ATOM      6  H   UNL     1       5.431   2.152  17.488  0.00  0.00    +0.000 HD
ENDROOT
BRANCH   4   7
ATOM      7  C   UNL     1       3.656   2.997  18.116  0.00  0.00    +0.000 A 
ATOM      8  C   UNL     1       2.338   2.539  18.006  0.00  0.00    +0.000 A 
ATOM      9  C   UNL     1       1.383   2.951  18.930  0.00  0.00    +0.000 A 
ATOM     10  F   UNL     1       0.120   2.519  18.811  0.00  0.00    +0.000 F 
ATOM     11  C   UNL     1       1.714   3.812  19.972  0.00  0.00    +0.000 A 
ATOM     12  C   UNL     1       3.033   4.250  20.108  0.00  0.00    +0.000 A 
ATOM     13  C   UNL     1       3.997   3.822  19.194  0.00  0.00    +0.000 A 
ATOM     14  F   UNL     1       5.255   4.274  19.312  0.00  0.00    +0.000 F 
ENDBRANCH   4   7
BRANCH   1  20
ATOM     15  C   UNL     1       6.286   3.743  12.939  0.00  0.00    +0.000 A 
ATOM     16  C   UNL     1       6.961   4.490  11.943  0.00  0.00    +0.000 A 
ATOM     17  C   UNL     1       7.884   5.478  12.270  0.00  0.00    +0.000 A 
ATOM     18  C   UNL     1       8.135   5.756  13.597  0.00  0.00    +0.000 A 
ATOM     19  C   UNL     1       7.481   5.033  14.595  0.00  0.00    +0.000 A 
ATOM     20  C   UNL     1       6.576   3.996  14.297  0.00  0.00    +0.000 A 
BRANCH  15  22
ATOM     21  C   UNL     1       4.333   3.217  11.440  0.00  0.00    +0.000 C 
ATOM     22  C   UNL     1       5.347   2.670  12.438  0.00  0.00    +0.000 C 
ENDBRANCH  15  22
ENDBRANCH   1  20
TORSDOF 3
ENDMDL
MODEL 4
REMARK VINA RESULT:      -6.9      2.569      6.976
REMARK  Name = 
REMARK  4 active torsions:
REMARK  status: ('A' for Active; 'I' for Inactive)
REMARK    1  A    between atoms: C_1  and  C_2
REMARK    2  A    between atoms: C_2  and  C_3
REMARK    3  A    between atoms: C_8  and  N_9
REMARK    4  A    between atoms: N_12  and  C_13
REMARK                            x       y       z     vdW  Elec       q    Type
REMARK                         _______ _______ _______ _____ _____    ______ ____
ROOT
ATOM      1  N   UNL     1       5.681   3.147  16.220  0.00  0.00    +0.000 N 
ATOM      2  C   UNL     1       4.555   3.593  16.895  0.00  0.00    +0.000 C 
ATOM      3  O   UNL     1       3.897   4.585  16.603  0.00  0.00    +0.000 OA
ATOM      4  N   UNL     1       4.259   2.822  18.013  0.00  0.00    +0.000 N 
ATOM      5  H   UNL     1       6.146   2.335  16.594  0.00  0.00    +0.000 HD
ATOM      6  H   UNL     1       5.065   2.465  18.512  0.00  0.00    +0.000 HD
ENDROOT
BRANCH   4   7
ATOM      7  C   UNL     1       3.155   3.175  18.836  0.00  0.00    +0.000 A 
ATOM      8  C   UNL     1       3.273   4.069  19.906  0.00  0.00    +0.000 A 
ATOM      9  C   UNL     1       2.184   4.296  20.742  0.00  0.00    +0.000 A 
ATOM     10  F   UNL     1       2.308   5.144  21.772  0.00  0.00    +0.000 F 
ATOM     11  C   UNL     1       0.969   3.650  20.532  0.00  0.00    +0.000 A 
ATOM     12  C   UNL     1       0.832   2.779  19.450  0.00  0.00    +0.000 A 
ATOM     13  C   UNL     1       1.916   2.566  18.598  0.00  0.00    +0.000 A 
ATOM     14  F   UNL     1       1.787   1.702  17.579  0.00  0.00    +0.000 F 
ENDBRANCH   4   7
BRANCH   1  20
ATOM     15  C   UNL     1       7.112   4.897  15.233  0.00  0.00    +0.000 A 
ATOM     16  C   UNL     1       7.609   5.535  14.072  0.00  0.00    +0.000 A 
ATOM     17  C   UNL     1       7.307   5.072  12.795  0.00  0.00    +0.000 A 
ATOM     18  C   UNL     1       6.519   3.950  12.653  0.00  0.00    +0.000 A 
ATOM     19  C   UNL     1       6.018   3.304  13.784  0.00  0.00    +0.000 A 
ATOM     20  C   UNL     1       6.269   3.774  15.087  0.00  0.00    +0.000 A 
BRANCH  15  22
ATOM     21  C   UNL     1       6.588   6.724  16.883  0.00  0.00    +0.000 C 
ATOM     22  C   UNL     1       7.484   5.537  16.551  0.00  0.00    +0.000 C 
ENDBRANCH  15  22
ENDBRANCH   1  20
TORSDOF 3
ENDMDL
MODEL 5
REMARK VINA RESULT:      -6.9      2.515      6.692
REMARK  Name = 
REMARK  4 active torsions:
REMARK  status: ('A' for Active; 'I' for Inactive)
REMARK    1  A    between atoms: C_1  and  C_2
REMARK    2  A    between atoms: C_2  and  C_3
REMARK    3  A    between atoms: C_8  and  N_9
REMARK    4  A    between atoms: N_12  and  C_13
REMARK                            x       y       z     vdW  Elec       q    Type
REMARK                         _______ _______ _______ _____ _____    ______ ____
ROOT
ATOM      1  N   UNL     1       5.732   3.250  16.343  0.00  0.00    +0.000 N 
ATOM      2  C   UNL     1       4.600   3.698  17.008  0.00  0.00    +0.000 C 
ATOM      3  O   UNL     1       3.895   4.637  16.657  0.00  0.00    +0.000 OA
ATOM      4  N   UNL     1       4.358   3.000  18.184  0.00  0.00    +0.000 N 
ATOM      5  H   UNL     1       6.238   2.488  16.766  0.00  0.00    +0.000 HD
ATOM      6  H   UNL     1       5.187   2.714  18.691  0.00  0.00    +0.000 HD
ENDROOT
BRANCH   4   7
ATOM      7  C   UNL     1       3.254   3.367  19.002  0.00  0.00    +0.000 A 
ATOM      8  C   UNL     1       2.035   2.681  18.966  0.00  0.00    +0.000 A 
ATOM      9  C   UNL     1       0.955   3.148  19.710  0.00  0.00    +0.000 A 
ATOM     10  F   UNL     1      -0.213   2.493  19.662  0.00  0.00    +0.000 F 
ATOM     11  C   UNL     1       1.065   4.290  20.498  0.00  0.00    +0.000 A 
ATOM     12  C   UNL     1       2.286   4.965  20.563  0.00  0.00    +0.000 A 
ATOM     13  C   UNL     1       3.375   4.486  19.835  0.00  0.00    +0.000 A 
ATOM     14  F   UNL     1       4.535   5.159  19.877  0.00  0.00    +0.000 F 
ENDBRANCH   4   7
BRANCH   1  20
ATOM     15  C   UNL     1       7.114   4.948  15.206  0.00  0.00    +0.000 A 
ATOM     16  C   UNL     1       7.562   5.523  13.993  0.00  0.00    +0.000 A 
ATOM     17  C   UNL     1       7.213   4.989  12.757  0.00  0.00    +0.000 A 
ATOM     18  C   UNL     1       6.428   3.857  12.707  0.00  0.00    +0.000 A 
ATOM     19  C   UNL     1       5.974   3.273  13.891  0.00  0.00    +0.000 A 
ATOM     20  C   UNL     1       6.272   3.816  15.156  0.00  0.00    +0.000 A 
BRANCH  15  22
ATOM     21  C   UNL     1       6.568   6.783  16.841  0.00  0.00    +0.000 C 
ATOM     22  C   UNL     1       7.532   5.661  16.472  0.00  0.00    +0.000 C 
ENDBRANCH  15  22
ENDBRANCH   1  20
TORSDOF 3
ENDMDL
MODEL 6
REMARK VINA RESULT:      -6.8      0.754      2.115
REMARK  Name = 
REMARK  4 active torsions:
REMARK  status: ('A' for Active; 'I' for Inactive)
REMARK    1  A    between atoms: C_1  and  C_2
REMARK    2  A    between atoms: C_2  and  C_3
REMARK    3  A    between atoms: C_8  and  N_9
REMARK    4  A    between atoms: N_12  and  C_13
REMARK                            x       y       z     vdW  Elec       q    Type
REMARK                         _______ _______ _______ _____ _____    ______ ____
ROOT
ATOM      1  N   UNL     1       4.335   3.987  18.240  0.00  0.00    +0.000 N 
ATOM      2  C   UNL     1       4.714   4.462  16.994  0.00  0.00    +0.000 C 
ATOM      3  O   UNL     1       4.295   5.485  16.466  0.00  0.00    +0.000 OA
ATOM      4  N   UNL     1       5.602   3.613  16.344  0.00  0.00    +0.000 N 
ATOM      5  H   UNL     1       4.734   3.109  18.535  0.00  0.00    +0.000 HD
ATOM      6  H   UNL     1       5.446   2.626  16.505  0.00  0.00    +0.000 HD
ENDROOT
BRANCH   4   7
ATOM      7  C   UNL     1       6.056   3.942  15.037  0.00  0.00    +0.000 A 
ATOM      8  C   UNL     1       5.543   3.326  13.889  0.00  0.00    +0.000 A 
ATOM      9  C   UNL     1       6.099   3.609  12.645  0.00  0.00    +0.000 A 
ATOM     10  F   UNL     1       5.611   3.008  11.551  0.00  0.00    +0.000 F 
ATOM     11  C   UNL     1       7.159   4.502  12.517  0.00  0.00    +0.000 A 
ATOM     12  C   UNL     1       7.658   5.143  13.652  0.00  0.00    +0.000 A 
ATOM     13  C   UNL     1       7.089   4.877  14.898  0.00  0.00    +0.000 A 
ATOM     14  F   UNL     1       7.595   5.472  15.988  0.00  0.00    +0.000 F 
ENDBRANCH   4   7
BRANCH   1  20
ATOM     15  C   UNL     1       2.336   3.847  19.679  0.00  0.00    +0.000 A 
ATOM     16  C   UNL     1       1.369   4.514  20.468  0.00  0.00    +0.000 A 
ATOM     17  C   UNL     1       1.438   5.883  20.708  0.00  0.00    +0.000 A 
ATOM     18  C   UNL     1       2.486   6.609  20.183  0.00  0.00    +0.000 A 
ATOM     19  C   UNL     1       3.451   5.972  19.402  0.00  0.00    +0.000 A 
ATOM     20  C   UNL     1       3.384   4.597  19.104  0.00  0.00    +0.000 A 
BRANCH  15  22
ATOM     21  C   UNL     1       0.776   2.087  18.781  0.00  0.00    +0.000 C 
ATOM     22  C   UNL     1       2.110   2.368  19.464  0.00  0.00    +0.000 C 
ENDBRANCH  15  22
ENDBRANCH   1  20
TORSDOF 3
ENDMDL
MODEL 7
REMARK VINA RESULT:      -6.8      5.617      8.964
REMARK  Name = 
REMARK  4 active torsions:
REMARK  status: ('A' for Active; 'I' for Inactive)
REMARK    1  A    between atoms: C_1  and  C_2
REMARK    2  A    between atoms: C_2  and  C_3
REMARK    3  A    between atoms: C_8  and  N_9
REMARK    4  A    between atoms: N_12  and  C_13
REMARK                            x       y       z     vdW  Elec       q    Type
REMARK                         _______ _______ _______ _____ _____    ______ ____
ROOT
ATOM      1  N   UNL     1       2.281   6.837  20.575  0.00  0.00    +0.000 N 
ATOM      2  C   UNL     1       1.526   7.997  20.491  0.00  0.00    +0.000 C 
ATOM      3  O   UNL     1       1.019   8.442  19.468  0.00  0.00    +0.000 OA
ATOM      4  N   UNL     1       1.440   8.670  21.703  0.00  0.00    +0.000 N 
ATOM      5  H   UNL     1       2.669   6.609  21.477  0.00  0.00    +0.000 HD
ATOM      6  H   UNL     1       2.272   8.625  22.278  0.00  0.00    +0.000 HD
ENDROOT
BRANCH   4   7
ATOM      7  C   UNL     1       0.731   9.901  21.772  0.00  0.00    +0.000 A 
ATOM      8  C   UNL     1       1.063  11.003  20.976  0.00  0.00    +0.000 A 
ATOM      9  C   UNL     1       0.405  12.215  21.161  0.00  0.00    +0.000 A 
ATOM     10  F   UNL     1       0.736  13.269  20.403  0.00  0.00    +0.000 F 
ATOM     11  C   UNL     1      -0.588  12.353  22.127  0.00  0.00    +0.000 A 
ATOM     12  C   UNL     1      -0.947  11.252  22.906  0.00  0.00    +0.000 A 
ATOM     13  C   UNL     1      -0.302  10.031  22.708  0.00  0.00    +0.000 A 
ATOM     14  F   UNL     1      -0.630   8.986  23.483  0.00  0.00    +0.000 F 
ENDBRANCH   4   7
BRANCH   1  20
ATOM     15  C   UNL     1       2.021   4.703  19.365  0.00  0.00    +0.000 A 
ATOM     16  C   UNL     1       2.438   3.856  18.310  0.00  0.00    +0.000 A 
ATOM     17  C   UNL     1       3.392   4.259  17.381  0.00  0.00    +0.000 A 
ATOM     18  C   UNL     1       3.933   5.524  17.474  0.00  0.00    +0.000 A 
ATOM     19  C   UNL     1       3.537   6.376  18.506  0.00  0.00    +0.000 A 
ATOM     20  C   UNL     1       2.608   5.981  19.487  0.00  0.00    +0.000 A 
BRANCH  15  22
ATOM     21  C   UNL     1       1.671   3.217  21.367  0.00  0.00    +0.000 C 
ATOM     22  C   UNL     1       1.013   4.116  20.326  0.00  0.00    +0.000 C 
ENDBRANCH  15  22
ENDBRANCH   1  20
TORSDOF 3
ENDMDL
MODEL 8
REMARK VINA RESULT:      -6.7      5.231      8.283
REMARK  Name = 
REMARK  4 active torsions:
REMARK  status: ('A' for Active; 'I' for Inactive)
REMARK    1  A    between atoms: C_1  and  C_2
REMARK    2  A    between atoms: C_2  and  C_3
REMARK    3  A    between atoms: C_8  and  N_9
REMARK    4  A    between atoms: N_12  and  C_13
REMARK                            x       y       z     vdW  Elec       q    Type
REMARK                         _______ _______ _______ _____ _____    ______ ____
ROOT
ATOM      1  N   UNL     1       2.376   7.462  18.801  0.00  0.00    +0.000 N 
ATOM      2  C   UNL     1       1.918   8.671  18.300  0.00  0.00    +0.000 C 
ATOM      3  O   UNL     1       2.103   9.084  17.161  0.00  0.00    +0.000 OA
ATOM      4  N   UNL     1       1.256   9.431  19.256  0.00  0.00    +0.000 N 
ATOM      5  H   UNL     1       2.182   7.267  19.771  0.00  0.00    +0.000 HD
ATOM      6  H   UNL     1       1.629   9.359  20.194  0.00  0.00    +0.000 HD
ENDROOT
BRANCH   4   7
ATOM      7  C   UNL     1       0.760  10.718  18.908  0.00  0.00    +0.000 A 
ATOM      8  C   UNL     1       1.560  11.865  18.946  0.00  0.00    +0.000 A 
ATOM      9  C   UNL     1       0.995  13.113  18.698  0.00  0.00    +0.000 A 
ATOM     10  F   UNL     1       1.764  14.208  18.748  0.00  0.00    +0.000 F 
ATOM     11  C   UNL     1      -0.360  13.243  18.406  0.00  0.00    +0.000 A 
ATOM     12  C   UNL     1      -1.161  12.101  18.336  0.00  0.00    +0.000 A 
ATOM     13  C   UNL     1      -0.591  10.848  18.564  0.00  0.00    +0.000 A 
ATOM     14  F   UNL     1      -1.374   9.758  18.528  0.00  0.00    +0.000 F 
ENDBRANCH   4   7
BRANCH   1  20
ATOM     15  C   UNL     1       2.754   5.156  18.009  0.00  0.00    +0.000 A 
ATOM     16  C   UNL     1       3.599   4.230  17.351  0.00  0.00    +0.000 A 
ATOM     17  C   UNL     1       4.795   4.623  16.760  0.00  0.00    +0.000 A 
ATOM     18  C   UNL     1       5.162   5.951  16.794  0.00  0.00    +0.000 A 
ATOM     19  C   UNL     1       4.345   6.882  17.437  0.00  0.00    +0.000 A 
ATOM     20  C   UNL     1       3.150   6.509  18.084  0.00  0.00    +0.000 A 
BRANCH  15  22
ATOM     21  C   UNL     1       1.770   4.084  20.063  0.00  0.00    +0.000 C 
ATOM     22  C   UNL     1       1.510   4.582  18.646  0.00  0.00    +0.000 C 
ENDBRANCH  15  22
ENDBRANCH   1  20
TORSDOF 3
ENDMDL
MODEL 9
REMARK VINA RESULT:      -6.7      4.371      6.207
REMARK  Name = 
REMARK  4 active torsions:
REMARK  status: ('A' for Active; 'I' for Inactive)
REMARK    1  A    between atoms: C_1  and  C_2
REMARK    2  A    between atoms: C_2  and  C_3
REMARK    3  A    between atoms: C_8  and  N_9
REMARK    4  A    between atoms: N_12  and  C_13
REMARK                            x       y       z     vdW  Elec       q    Type
REMARK                         _______ _______ _______ _____ _____    ______ ____
ROOT
ATOM      1  N   UNL     1       1.746   8.369  19.740  0.00  0.00    +0.000 N 
ATOM      2  C   UNL     1       1.981   7.002  19.747  0.00  0.00    +0.000 C 
ATOM      3  O   UNL     1       1.529   6.207  20.563  0.00  0.00    +0.000 OA
ATOM      4  N   UNL     1       2.854   6.603  18.744  0.00  0.00    +0.000 N 
ATOM      5  H   UNL     1       2.214   8.909  19.029  0.00  0.00    +0.000 HD
ATOM      6  H   UNL     1       3.594   7.261  18.532  0.00  0.00    +0.000 HD
ENDROOT
BRANCH   4   7
ATOM      7  C   UNL     1       3.227   5.234  18.642  0.00  0.00    +0.000 A 
ATOM      8  C   UNL     1       2.393   4.272  18.059  0.00  0.00    +0.000 A 
ATOM      9  C   UNL     1       2.762   2.931  18.081  0.00  0.00    +0.000 A 
ATOM     10  F   UNL     1       1.954   2.014  17.531  0.00  0.00    +0.000 F 
ATOM     11  C   UNL     1       3.954   2.522  18.673  0.00  0.00    +0.000 A 
ATOM     12  C   UNL     1       4.806   3.478  19.231  0.00  0.00    +0.000 A 
ATOM     13  C   UNL     1       4.448   4.825  19.191  0.00  0.00    +0.000 A 
ATOM     14  F   UNL     1       5.256   5.733  19.759  0.00  0.00    +0.000 F 
ENDBRANCH   4   7
BRANCH   1  20
ATOM     15  C   UNL     1       0.076  10.101  20.282  0.00  0.00    +0.000 A 
ATOM     16  C   UNL     1      -0.627  10.832  21.269  0.00  0.00    +0.000 A 
ATOM     17  C   UNL     1      -0.486  10.554  22.625  0.00  0.00    +0.000 A 
ATOM     18  C   UNL     1       0.343   9.525  23.021  0.00  0.00    +0.000 A 
ATOM     19  C   UNL     1       1.046   8.791  22.065  0.00  0.00    +0.000 A 
ATOM     20  C   UNL     1       0.959   9.078  20.688  0.00  0.00    +0.000 A 
BRANCH  15  22
ATOM     21  C   UNL     1      -1.544  10.221  18.358  0.00  0.00    +0.000 C 
ATOM     22  C   UNL     1      -0.138  10.544  18.852  0.00  0.00    +0.000 C 
ENDBRANCH  15  22
ENDBRANCH   1  20
TORSDOF 3
ENDMDL
