MODEL 1
REMARK VINA RESULT:      -6.7      0.000      0.000
REMARK  Name = 
REMARK  6 active torsions:
REMARK  status: ('A' for Active; 'I' for Inactive)
REMARK    1  A    between atoms: C_1  and  O_2
REMARK    2  A    between atoms: O_2  and  C_3
REMARK    3  A    between atoms: C_7  and  C_8
REMARK    4  A    between atoms: C_8  and  O_10
REMARK    5  A    between atoms: O_10  and  C_11
REMARK    6  A    between atoms: N_14  and  C_15
REMARK                            x       y       z     vdW  Elec       q    Type
REMARK                         _______ _______ _______ _____ _____    ______ ____
ROOT
ATOM      1  C   UNL     1       5.571   4.219  16.184  0.00  0.00    +0.000 C 
ATOM      2  O   UNL     1       6.099   3.486  15.357  0.00  0.00    +0.000 OA
ENDROOT
BRANCH   1   7
ATOM      3  C   UNL     1       7.267   7.369  17.496  0.00  0.00    +0.000 A 
ATOM      4  C   UNL     1       8.010   6.827  18.550  0.00  0.00    +0.000 A 
ATOM      5  C   UNL     1       7.924   5.472  18.853  0.00  0.00    +0.000 A 
ATOM      6  C   UNL     1       7.103   4.644  18.087  0.00  0.00    +0.000 A 
ATOM      7  C   UNL     1       6.362   5.167  17.014  0.00  0.00    +0.000 A 
ATOM      8  C   UNL     1       6.431   6.540  16.737  0.00  0.00    +0.000 A 
BRANCH   3  10
ATOM      9  C   UNL     1       8.383   9.360  18.153  0.00  0.00    +0.000 C 
ATOM     10  O   UNL     1       7.460   8.709  17.290  0.00  0.00    +0.000 OA
ENDBRANCH   3  10
ENDBRANCH   1   7
BRANCH   1  11
ATOM     11  O   UNL     1       4.233   4.290  16.423  0.00  0.00    +0.000 OA
BRANCH  11  12
ATOM     12  C   UNL     1       3.839   3.962  17.776  0.00  0.00    +0.000 C 
ATOM     13  C   UNL     1       3.303   2.529  17.844  0.00  0.00    +0.000 C 
ATOM     14  C   UNL     1       2.765   2.205  19.240  0.00  0.00    +0.000 C 
ATOM     15  N   UNL     1       1.746   3.176  19.667  0.00  0.00    +0.000 NA
ATOM     16  C   UNL     1       1.251   2.850  21.010  0.00  0.00    +0.000 C 
ATOM     17  C   UNL     1       2.270   4.547  19.645  0.00  0.00    +0.000 C 
ATOM     18  C   UNL     1       2.754   4.929  18.246  0.00  0.00    +0.000 C 
ENDBRANCH  11  12
ENDBRANCH   1  11
TORSDOF 4
ENDMDL
MODEL 2
REMARK VINA RESULT:      -6.5      3.312      4.462
REMARK  Name = 
REMARK  6 active torsions:
REMARK  status: ('A' for Active; 'I' for Inactive)
REMARK    1  A    between atoms: C_1  and  O_2
REMARK    2  A    between atoms: O_2  and  C_3
REMARK    3  A    between atoms: C_7  and  C_8
REMARK    4  A    between atoms: C_8  and  O_10
REMARK    5  A    between atoms: O_10  and  C_11
REMARK    6  A    between atoms: N_14  and  C_15
REMARK                            x       y       z     vdW  Elec       q    Type
REMARK                         _______ _______ _______ _____ _____    ______ ____
ROOT
ATOM      1  C   UNL     1       3.199   5.362  18.008  0.00  0.00    +0.000 C 
ATOM      2  O   UNL     1       2.218   4.698  17.701  0.00  0.00    +0.000 OA
ENDROOT
BRANCH   1   7
ATOM      3  C   UNL     1       6.693   6.017  16.636  0.00  0.00    +0.000 A 
ATOM      4  C   UNL     1       6.852   4.892  15.821  0.00  0.00    +0.000 A 
ATOM      5  C   UNL     1       5.859   3.919  15.756  0.00  0.00    +0.000 A 
ATOM      6  C   UNL     1       4.688   4.078  16.497  0.00  0.00    +0.000 A 
ATOM      7  C   UNL     1       4.504   5.210  17.309  0.00  0.00    +0.000 A 
ATOM      8  C   UNL     1       5.524   6.168  17.392  0.00  0.00    +0.000 A 
BRANCH   3  10
ATOM      9  C   UNL     1       7.767   7.899  17.610  0.00  0.00    +0.000 C 
ATOM     10  O   UNL     1       7.732   6.907  16.591  0.00  0.00    +0.000 OA
ENDBRANCH   3  10
ENDBRANCH   1   7
BRANCH   1  11
ATOM     11  O   UNL     1       3.222   6.322  18.974  0.00  0.00    +0.000 OA
BRANCH  11  12
ATOM     12  C   UNL     1       2.150   7.289  18.894  0.00  0.00    +0.000 C 
ATOM     13  C   UNL     1       2.516   8.413  17.919  0.00  0.00    +0.000 C 
ATOM     14  C   UNL     1       1.451   9.511  17.914  0.00  0.00    +0.000 C 
ATOM     15  N   UNL     1       1.207  10.037  19.266  0.00  0.00    +0.000 NA
ATOM     16  C   UNL     1       0.178  11.082  19.238  0.00  0.00    +0.000 C 
ATOM     17  C   UNL     1       0.813   8.970  20.193  0.00  0.00    +0.000 C 
ATOM     18  C   UNL     1       1.890   7.887  20.275  0.00  0.00    +0.000 C 
ENDBRANCH  11  12
ENDBRANCH   1  11
TORSDOF 4
ENDMDL
MODEL 3
REMARK VINA RESULT:      -6.5      2.782      4.708
REMARK  Name = 
REMARK  6 active torsions:
REMARK  status: ('A' for Active; 'I' for Inactive)
REMARK    1  A    between atoms: C_1  and  O_2
REMARK    2  A    between atoms: O_2  and  C_3
REMARK    3  A    between atoms: C_7  and  C_8
REMARK    4  A    between atoms: C_8  and  O_10
REMARK    5  A    between atoms: O_10  and  C_11
REMARK    6  A    between atoms: N_14  and  C_15
REMARK                            x       y       z     vdW  Elec       q    Type
REMARK                         _______ _______ _______ _____ _____    ______ ____
ROOT
ATOM      1  C   UNL     1       6.469   5.207  15.959  0.00  0.00    +0.000 C 
ATOM      2  O   UNL     1       6.902   6.264  16.400  0.00  0.00    +0.000 OA
ENDROOT
BRANCH   1   7
ATOM      3  C   UNL     1       5.984   3.533  12.571  0.00  0.00    +0.000 A 
ATOM      4  C   UNL     1       7.040   4.111  11.858  0.00  0.00    +0.000 A 
ATOM      5  C   UNL     1       7.863   5.060  12.457  0.00  0.00    +0.000 A 
ATOM      6  C   UNL     1       7.643   5.423  13.786  0.00  0.00    +0.000 A 
ATOM      7  C   UNL     1       6.599   4.840  14.523  0.00  0.00    +0.000 A 
ATOM      8  C   UNL     1       5.756   3.909  13.900  0.00  0.00    +0.000 A 
BRANCH   3  10
ATOM      9  C   UNL     1       4.117   3.067  11.178  0.00  0.00    +0.000 C 
ATOM     10  O   UNL     1       5.267   2.599  11.873  0.00  0.00    +0.000 OA
ENDBRANCH   3  10
ENDBRANCH   1   7
BRANCH   1  11
ATOM     11  O   UNL     1       5.863   4.241  16.703  0.00  0.00    +0.000 OA
BRANCH  11  12
ATOM     12  C   UNL     1       4.684   4.675  17.419  0.00  0.00    +0.000 C 
ATOM     13  C   UNL     1       4.970   4.752  18.922  0.00  0.00    +0.000 C 
ATOM     14  C   UNL     1       3.702   5.089  19.711  0.00  0.00    +0.000 C 
ATOM     15  N   UNL     1       2.616   4.140  19.423  0.00  0.00    +0.000 NA
ATOM     16  C   UNL     1       1.410   4.486  20.183  0.00  0.00    +0.000 C 
ATOM     17  C   UNL     1       2.310   4.095  17.989  0.00  0.00    +0.000 C 
ATOM     18  C   UNL     1       3.540   3.693  17.174  0.00  0.00    +0.000 C 
ENDBRANCH  11  12
ENDBRANCH   1  11
TORSDOF 4
ENDMDL
MODEL 4
REMARK VINA RESULT:      -6.5      2.778      4.643
REMARK  Name = 
REMARK  6 active torsions:
REMARK  status: ('A' for Active; 'I' for Inactive)
REMARK    1  A    between atoms: C_1  and  O_2
REMARK    2  A    between atoms: O_2  and  C_3
REMARK    3  A    between atoms: C_7  and  C_8
REMARK    4  A    between atoms: C_8  and  O_10
REMARK    5  A    between atoms: O_10  and  C_11
REMARK    6  A    between atoms: N_14  and  C_15
REMARK                            x       y       z     vdW  Elec       q    Type
REMARK                         _______ _______ _______ _____ _____    ______ ____
ROOT
ATOM      1  C   UNL     1       6.214   4.829  15.998  0.00  0.00    +0.000 C 
ATOM      2  O   UNL     1       7.020   4.474  16.848  0.00  0.00    +0.000 OA
ENDROOT
BRANCH   1   7
ATOM      3  C   UNL     1       6.009   3.395  12.474  0.00  0.00    +0.000 A 
ATOM      4  C   UNL     1       7.058   4.090  11.864  0.00  0.00    +0.000 A 
ATOM      5  C   UNL     1       7.787   5.039  12.576  0.00  0.00    +0.000 A 
ATOM      6  C   UNL     1       7.478   5.284  13.914  0.00  0.00    +0.000 A 
ATOM      7  C   UNL     1       6.439   4.583  14.548  0.00  0.00    +0.000 A 
ATOM      8  C   UNL     1       5.690   3.652  13.813  0.00  0.00    +0.000 A 
BRANCH   3  10
ATOM      9  C   UNL     1       6.184   1.383  11.223  0.00  0.00    +0.000 C 
ATOM     10  O   UNL     1       5.390   2.475  11.671  0.00  0.00    +0.000 OA
ENDBRANCH   3  10
ENDBRANCH   1   7
BRANCH   1  11
ATOM     11  O   UNL     1       5.027   5.444  16.256  0.00  0.00    +0.000 OA
BRANCH  11  12
ATOM     12  C   UNL     1       4.351   4.984  17.448  0.00  0.00    +0.000 C 
ATOM     13  C   UNL     1       3.535   3.722  17.148  0.00  0.00    +0.000 C 
ATOM     14  C   UNL     1       2.714   3.290  18.365  0.00  0.00    +0.000 C 
ATOM     15  N   UNL     1       1.851   4.378  18.850  0.00  0.00    +0.000 NA
ATOM     16  C   UNL     1       1.078   3.945  20.020  0.00  0.00    +0.000 C 
ATOM     17  C   UNL     1       2.633   5.575  19.181  0.00  0.00    +0.000 C 
ATOM     18  C   UNL     1       3.415   6.075  17.966  0.00  0.00    +0.000 C 
ENDBRANCH  11  12
ENDBRANCH   1  11
TORSDOF 4
ENDMDL
MODEL 5
REMARK VINA RESULT:      -6.3      2.040      3.114
REMARK  Name = 
REMARK  6 active torsions:
REMARK  status: ('A' for Active; 'I' for Inactive)
REMARK    1  A    between atoms: C_1  and  O_2
REMARK    2  A    between atoms: O_2  and  C_3
REMARK    3  A    between atoms: C_7  and  C_8
REMARK    4  A    between atoms: C_8  and  O_10
REMARK    5  A    between atoms: O_10  and  C_11
REMARK    6  A    between atoms: N_14  and  C_15
REMARK                            x       y       z     vdW  Elec       q    Type
REMARK                         _______ _______ _______ _____ _____    ______ ____
ROOT
ATOM      1  C   UNL     1       3.677   6.776  17.551  0.00  0.00    +0.000 C 
ATOM      2  O   UNL     1       3.606   7.973  17.798  0.00  0.00    +0.000 OA
ENDROOT
BRANCH   1   7
ATOM      3  C   UNL     1       6.534   5.101  15.667  0.00  0.00    +0.000 A 
ATOM      4  C   UNL     1       7.349   4.724  16.740  0.00  0.00    +0.000 A 
ATOM      5  C   UNL     1       6.995   5.050  18.046  0.00  0.00    +0.000 A 
ATOM      6  C   UNL     1       5.808   5.742  18.287  0.00  0.00    +0.000 A 
ATOM      7  C   UNL     1       4.968   6.114  17.223  0.00  0.00    +0.000 A 
ATOM      8  C   UNL     1       5.350   5.809  15.909  0.00  0.00    +0.000 A 
BRANCH   3  10
ATOM      9  C   UNL     1       6.123   3.852  13.689  0.00  0.00    +0.000 C 
ATOM     10  O   UNL     1       6.985   4.700  14.438  0.00  0.00    +0.000 OA
ENDBRANCH   3  10
ENDBRANCH   1   7
BRANCH   1  11
ATOM     11  O   UNL     1       2.626   5.910  17.578  0.00  0.00    +0.000 OA
BRANCH  11  12
ATOM     12  C   UNL     1       2.683   4.918  18.629  0.00  0.00    +0.000 C 
ATOM     13  C   UNL     1       1.709   3.773  18.336  0.00  0.00    +0.000 C 
ATOM     14  C   UNL     1       1.662   2.775  19.495  0.00  0.00    +0.000 C 
ATOM     15  N   UNL     1       1.337   3.438  20.768  0.00  0.00    +0.000 NA
ATOM     16  C   UNL     1       1.304   2.465  21.866  0.00  0.00    +0.000 C 
ATOM     17  C   UNL     1       2.294   4.507  21.074  0.00  0.00    +0.000 C 
ATOM     18  C   UNL     1       2.316   5.561  19.966  0.00  0.00    +0.000 C 
ENDBRANCH  11  12
ENDBRANCH   1  11
TORSDOF 4
ENDMDL
MODEL 6
REMARK VINA RESULT:      -6.3      3.028      4.932
REMARK  Name = 
REMARK  6 active torsions:
REMARK  status: ('A' for Active; 'I' for Inactive)
REMARK    1  A    between atoms: C_1  and  O_2
REMARK    2  A    between atoms: O_2  and  C_3
REMARK    3  A    between atoms: C_7  and  C_8
REMARK    4  A    between atoms: C_8  and  O_10
REMARK    5  A    between atoms: O_10  and  C_11
REMARK    6  A    between atoms: N_14  and  C_15
REMARK                            x       y       z     vdW  Elec       q    Type
REMARK                         _______ _______ _______ _____ _____    ______ ____
ROOT
ATOM      1  C   UNL     1       6.770   4.526  16.159  0.00  0.00    +0.000 C 
ATOM      2  O   UNL     1       7.775   4.814  16.796  0.00  0.00    +0.000 OA
ENDROOT
BRANCH   1   7
ATOM      3  C   UNL     1       6.048   3.497  12.563  0.00  0.00    +0.000 A 
ATOM      4  C   UNL     1       6.978   4.293  11.887  0.00  0.00    +0.000 A 
ATOM      5  C   UNL     1       7.791   5.180  12.587  0.00  0.00    +0.000 A 
ATOM      6  C   UNL     1       7.689   5.260  13.976  0.00  0.00    +0.000 A 
ATOM      7  C   UNL     1       6.772   4.455  14.673  0.00  0.00    +0.000 A 
ATOM      8  C   UNL     1       5.935   3.589  13.955  0.00  0.00    +0.000 A 
BRANCH   3  10
ATOM      9  C   UNL     1       4.128   3.174  11.202  0.00  0.00    +0.000 C 
ATOM     10  O   UNL     1       5.328   2.653  11.759  0.00  0.00    +0.000 OA
ENDBRANCH   3  10
ENDBRANCH   1   7
BRANCH   1  11
ATOM     11  O   UNL     1       5.564   4.208  16.706  0.00  0.00    +0.000 OA
BRANCH  11  12
ATOM     12  C   UNL     1       5.035   5.192  17.624  0.00  0.00    +0.000 C 
ATOM     13  C   UNL     1       4.045   4.539  18.594  0.00  0.00    +0.000 C 
ATOM     14  C   UNL     1       3.379   5.584  19.493  0.00  0.00    +0.000 C 
ATOM     15  N   UNL     1       2.732   6.644  18.705  0.00  0.00    +0.000 NA
ATOM     16  C   UNL     1       2.107   7.637  19.585  0.00  0.00    +0.000 C 
ATOM     17  C   UNL     1       3.687   7.301  17.805  0.00  0.00    +0.000 C 
ATOM     18  C   UNL     1       4.321   6.295  16.844  0.00  0.00    +0.000 C 
ENDBRANCH  11  12
ENDBRANCH   1  11
TORSDOF 4
ENDMDL
MODEL 7
REMARK VINA RESULT:      -6.3      0.974      1.603
REMARK  Name = 
REMARK  6 active torsions:
REMARK  status: ('A' for Active; 'I' for Inactive)
REMARK    1  A    between atoms: C_1  and  O_2
REMARK    2  A    between atoms: O_2  and  C_3
REMARK    3  A    between atoms: C_7  and  C_8
REMARK    4  A    between atoms: C_8  and  O_10
REMARK    5  A    between atoms: O_10  and  C_11
REMARK    6  A    between atoms: N_14  and  C_15
REMARK                            x       y       z     vdW  Elec       q    Type
REMARK                         _______ _______ _______ _____ _____    ______ ____
ROOT
ATOM      1  C   UNL     1       4.495   5.056  17.030  0.00  0.00    +0.000 C 
ATOM      2  O   UNL     1       4.582   4.076  16.302  0.00  0.00    +0.000 OA
ENDROOT
BRANCH   1   7
ATOM      3  C   UNL     1       7.398   7.448  17.642  0.00  0.00    +0.000 A 
ATOM      4  C   UNL     1       8.054   6.777  18.680  0.00  0.00    +0.000 A 
ATOM      5  C   UNL     1       7.535   5.594  19.198  0.00  0.00    +0.000 A 
ATOM      6  C   UNL     1       6.360   5.065  18.665  0.00  0.00    +0.000 A 
ATOM      7  C   UNL     1       5.696   5.715  17.611  0.00  0.00    +0.000 A 
ATOM      8  C   UNL     1       6.210   6.923  17.118  0.00  0.00    +0.000 A 
BRANCH   3  10
ATOM      9  C   UNL     1       8.486   9.480  18.215  0.00  0.00    +0.000 C 
ATOM     10  O   UNL     1       8.025   8.585  17.210  0.00  0.00    +0.000 OA
ENDBRANCH   3  10
ENDBRANCH   1   7
BRANCH   1  11
ATOM     11  O   UNL     1       3.332   5.678  17.367  0.00  0.00    +0.000 OA
BRANCH  11  12
ATOM     12  C   UNL     1       2.539   4.986  18.359  0.00  0.00    +0.000 C 
ATOM     13  C   UNL     1       2.831   5.539  19.757  0.00  0.00    +0.000 C 
ATOM     14  C   UNL     1       2.096   4.739  20.835  0.00  0.00    +0.000 C 
ATOM     15  N   UNL     1       2.410   3.304  20.752  0.00  0.00    +0.000 NA
ATOM     16  C   UNL     1       1.689   2.555  21.789  0.00  0.00    +0.000 C 
ATOM     17  C   UNL     1       2.090   2.760  19.427  0.00  0.00    +0.000 C 
ATOM     18  C   UNL     1       2.862   3.494  18.330  0.00  0.00    +0.000 C 
ENDBRANCH  11  12
ENDBRANCH   1  11
TORSDOF 4
ENDMDL
MODEL 8
REMARK VINA RESULT:      -6.3      0.976      1.036
REMARK  Name = 
REMARK  6 active torsions:
REMARK  status: ('A' for Active; 'I' for Inactive)
REMARK    1  A    between atoms: C_1  and  O_2
REMARK    2  A    between atoms: O_2  and  C_3
REMARK    3  A    between atoms: C_7  and  C_8
REMARK    4  A    between atoms: C_8  and  O_10
REMARK    5  A    between atoms: O_10  and  C_11
REMARK    6  A    between atoms: N_14  and  C_15
REMARK                            x       y       z     vdW  Elec       q    Type
REMARK                         _______ _______ _______ _____ _____    ______ ____
ROOT
ATOM      1  C   UNL     1       5.721   4.791  16.216  0.00  0.00    +0.000 C 
ATOM      2  O   UNL     1       5.476   5.109  15.059  0.00  0.00    +0.000 OA
ENDROOT
BRANCH   1   7
ATOM      3  C   UNL     1       7.517   7.781  17.750  0.00  0.00    +0.000 A 
ATOM      4  C   UNL     1       8.234   7.142  18.767  0.00  0.00    +0.000 A 
ATOM      5  C   UNL     1       8.098   5.773  18.975  0.00  0.00    +0.000 A 
ATOM      6  C   UNL     1       7.254   5.030  18.150  0.00  0.00    +0.000 A 
ATOM      7  C   UNL     1       6.539   5.652  17.113  0.00  0.00    +0.000 A 
ATOM      8  C   UNL     1       6.658   7.037  16.932  0.00  0.00    +0.000 A 
BRANCH   3  10
ATOM      9  C   UNL     1       8.708   9.679  18.539  0.00  0.00    +0.000 C 
ATOM     10  O   UNL     1       7.758   9.124  17.637  0.00  0.00    +0.000 OA
ENDBRANCH   3  10
ENDBRANCH   1   7
BRANCH   1  11
ATOM     11  O   UNL     1       5.264   3.665  16.829  0.00  0.00    +0.000 OA
BRANCH  11  12
ATOM     12  C   UNL     1       4.204   3.882  17.788  0.00  0.00    +0.000 C 
ATOM     13  C   UNL     1       4.428   3.023  19.037  0.00  0.00    +0.000 C 
ATOM     14  C   UNL     1       3.254   3.144  20.010  0.00  0.00    +0.000 C 
ATOM     15  N   UNL     1       1.975   2.816  19.361  0.00  0.00    +0.000 NA
ATOM     16  C   UNL     1       0.864   2.945  20.310  0.00  0.00    +0.000 C 
ATOM     17  C   UNL     1       1.736   3.666  18.189  0.00  0.00    +0.000 C 
ATOM     18  C   UNL     1       2.859   3.518  17.162  0.00  0.00    +0.000 C 
ENDBRANCH  11  12
ENDBRANCH   1  11
TORSDOF 4
ENDMDL
MODEL 9
REMARK VINA RESULT:      -6.1      2.714      4.731
REMARK  Name = 
REMARK  6 active torsions:
REMARK  status: ('A' for Active; 'I' for Inactive)
REMARK    1  A    between atoms: C_1  and  O_2
REMARK    2  A    between atoms: O_2  and  C_3
REMARK    3  A    between atoms: C_7  and  C_8
REMARK    4  A    between atoms: C_8  and  O_10
REMARK    5  A    between atoms: O_10  and  C_11
REMARK    6  A    between atoms: N_14  and  C_15
REMARK                            x       y       z     vdW  Elec       q    Type
REMARK                         _______ _______ _______ _____ _____    ______ ____
ROOT
ATOM      1  C   UNL     1       5.660   5.436  15.790  0.00  0.00    +0.000 C 
ATOM      2  O   UNL     1       5.515   6.632  16.009  0.00  0.00    +0.000 OA
ENDROOT
BRANCH   1   7
ATOM      3  C   UNL     1       5.800   3.515  12.502  0.00  0.00    +0.000 A 
ATOM      4  C   UNL     1       7.059   3.910  12.040  0.00  0.00    +0.000 A 
ATOM      5  C   UNL     1       7.826   4.819  12.763  0.00  0.00    +0.000 A 
ATOM      6  C   UNL     1       7.341   5.325  13.969  0.00  0.00    +0.000 A 
ATOM      7  C   UNL     1       6.085   4.926  14.458  0.00  0.00    +0.000 A 
ATOM      8  C   UNL     1       5.307   4.035  13.705  0.00  0.00    +0.000 A 
BRANCH   3  10
ATOM      9  C   UNL     1       3.953   3.029  11.090  0.00  0.00    +0.000 C 
ATOM     10  O   UNL     1       5.160   2.601  11.708  0.00  0.00    +0.000 OA
ENDBRANCH   3  10
ENDBRANCH   1   7
BRANCH   1  11
ATOM     11  O   UNL     1       5.494   4.447  16.711  0.00  0.00    +0.000 OA
BRANCH  11  12
ATOM     12  C   UNL     1       4.118   4.108  16.996  0.00  0.00    +0.000 C 
ATOM     13  C   UNL     1       3.538   5.064  18.043  0.00  0.00    +0.000 C 
ATOM     14  C   UNL     1       2.123   4.646  18.451  0.00  0.00    +0.000 C 
ATOM     15  N   UNL     1       2.084   3.254  18.923  0.00  0.00    +0.000 NA
ATOM     16  C   UNL     1       0.719   2.872  19.302  0.00  0.00    +0.000 C 
ATOM     17  C   UNL     1       2.599   2.329  17.906  0.00  0.00    +0.000 C 
ATOM     18  C   UNL     1       4.038   2.676  17.524  0.00  0.00    +0.000 C 
ENDBRANCH  11  12
ENDBRANCH   1  11
TORSDOF 4
ENDMDL
