MODEL 1
REMARK VINA RESULT:      -8.7      0.000      0.000
REMARK  Name = 
REMARK  5 active torsions:
REMARK  status: ('A' for Active; 'I' for Inactive)
REMARK    1  A    between atoms: C_1  and  C_2
REMARK    2  A    between atoms: C_2  and  C_4
REMARK    3  A    between atoms: C_7  and  N_8
REMARK    4  A    between atoms: N_11  and  C_12
REMARK    5  A    between atoms: C_17  and  C_18
REMARK                            x       y       z     vdW  Elec       q    Type
REMARK                         _______ _______ _______ _____ _____    ______ ____
ROOT
ATOM      1  C   UNL     1       2.939   5.840  19.474  0.00  0.00    +0.000 A 
ATOM      2  C   UNL     1       2.344   4.519  19.250  0.00  0.00    +0.000 A 
ATOM      3  C   UNL     1       2.647   3.779  18.162  0.00  0.00    +0.000 A 
ATOM      4  C   UNL     1       3.574   4.271  17.208  0.00  0.00    +0.000 A 
ATOM      5  N   UNL     1       4.061   3.746  16.111  0.00  0.00    +0.000 NA
ATOM      6  C   UNL     1       4.970   4.685  15.685  0.00  0.00    +0.000 A 
ATOM      7  N   UNL     1       5.027   5.787  16.447  0.00  0.00    +0.000 NA
ATOM      8  N   UNL     1       4.134   5.521  17.431  0.00  0.00    +0.000 N 
ATOM      9  C   UNL     1       3.808   6.291  18.543  0.00  0.00    +0.000 A 
ENDROOT
BRANCH   6  10
ATOM     10  C   UNL     1       5.783   4.463  14.496  0.00  0.00    +0.000 A 
ATOM     11  C   UNL     1       6.980   5.168  14.294  0.00  0.00    +0.000 A 
ATOM     12  C   UNL     1       7.723   4.988  13.123  0.00  0.00    +0.000 A 
ATOM     13  C   UNL     1       7.277   4.100  12.147  0.00  0.00    +0.000 A 
ATOM     14  C   UNL     1       6.103   3.385  12.357  0.00  0.00    +0.000 A 
ATOM     15  F   UNL     1       5.671   2.540  11.412  0.00  0.00    +0.000 F 
ATOM     16  C   UNL     1       5.361   3.549  13.520  0.00  0.00    +0.000 A 
ENDBRANCH   6  10
BRANCH   1  20
ATOM     17  N   UNL     1       1.606   8.316  21.803  0.00  0.00    +0.000 N 
ATOM     18  C   UNL     1       1.796   7.686  20.584  0.00  0.00    +0.000 C 
ATOM     19  O   UNL     1       1.301   8.097  19.529  0.00  0.00    +0.000 OA
ATOM     20  N   UNL     1       2.585   6.548  20.618  0.00  0.00    +0.000 N 
ATOM     21  H   UNL     1       2.204   8.066  22.578  0.00  0.00    +0.000 HD
ATOM     22  H   UNL     1       2.687   6.083  21.510  0.00  0.00    +0.000 HD
BRANCH  17  26
ATOM     23  C   UNL     1      -0.917  11.724  22.254  0.00  0.00    +0.000 A 
ATOM     24  C   UNL     1       0.068  11.702  21.272  0.00  0.00    +0.000 A 
ATOM     25  C   UNL     1       0.891  10.583  21.128  0.00  0.00    +0.000 A 
ATOM     26  C   UNL     1       0.767   9.460  21.959  0.00  0.00    +0.000 A 
ATOM     27  C   UNL     1      -0.233   9.478  22.937  0.00  0.00    +0.000 A 
ATOM     28  C   UNL     1      -1.067  10.605  23.095  0.00  0.00    +0.000 A 
BRANCH  23  30
ATOM     29  C   UNL     1      -3.065  12.741  23.273  0.00  0.00    +0.000 C 
ATOM     30  C   UNL     1      -1.832  12.893  22.412  0.00  0.00    +0.000 C 
ATOM     31  O   UNL     1      -1.565  13.962  21.865  0.00  0.00    +0.000 OA
ENDBRANCH  23  30
ENDBRANCH  17  26
ENDBRANCH   1  20
TORSDOF 4
ENDMDL
MODEL 2
REMARK VINA RESULT:      -8.6      4.444     11.719
REMARK  Name = 
REMARK  5 active torsions:
REMARK  status: ('A' for Active; 'I' for Inactive)
REMARK    1  A    between atoms: C_1  and  C_2
REMARK    2  A    between atoms: C_2  and  C_4
REMARK    3  A    between atoms: C_7  and  N_8
REMARK    4  A    between atoms: N_11  and  C_12
REMARK    5  A    between atoms: C_17  and  C_18
REMARK                            x       y       z     vdW  Elec       q    Type
REMARK                         _______ _______ _______ _____ _____    ______ ____
ROOT
ATOM      1  C   UNL     1       1.276   8.577  20.349  0.00  0.00    +0.000 A 
ATOM      2  C   UNL     1       0.990   9.463  19.216  0.00  0.00    +0.000 A 
ATOM      3  C   UNL     1       0.186  10.540  19.342  0.00  0.00    +0.000 A 
ATOM      4  C   UNL     1      -0.396  10.844  20.599  0.00  0.00    +0.000 A 
ATOM      5  N   UNL     1      -1.163  11.831  20.992  0.00  0.00    +0.000 NA
ATOM      6  C   UNL     1      -1.316  11.600  22.338  0.00  0.00    +0.000 A 
ATOM      7  N   UNL     1      -0.715  10.486  22.781  0.00  0.00    +0.000 NA
ATOM      8  N   UNL     1      -0.117  10.000  21.666  0.00  0.00    +0.000 N 
ATOM      9  C   UNL     1       0.697   8.881  21.531  0.00  0.00    +0.000 A 
ENDROOT
BRANCH   6  10
ATOM     10  C   UNL     1      -2.079  12.515  23.179  0.00  0.00    +0.000 A 
ATOM     11  C   UNL     1      -1.570  13.777  23.522  0.00  0.00    +0.000 A 
ATOM     12  C   UNL     1      -2.285  14.625  24.375  0.00  0.00    +0.000 A 
ATOM     13  C   UNL     1      -3.514  14.217  24.888  0.00  0.00    +0.000 A 
ATOM     14  C   UNL     1      -4.028  12.975  24.531  0.00  0.00    +0.000 A 
ATOM     15  F   UNL     1      -5.204  12.581  25.034  0.00  0.00    +0.000 F 
ATOM     16  C   UNL     1      -3.330  12.129  23.678  0.00  0.00    +0.000 A 
ENDBRANCH   6  10
BRANCH   1  20
ATOM     17  N   UNL     1       3.522   6.089  18.901  0.00  0.00    +0.000 N 
ATOM     18  C   UNL     1       2.792   7.264  18.960  0.00  0.00    +0.000 C 
ATOM     19  O   UNL     1       2.737   8.071  18.026  0.00  0.00    +0.000 OA
ATOM     20  N   UNL     1       2.117   7.486  20.150  0.00  0.00    +0.000 N 
ATOM     21  H   UNL     1       3.355   5.377  19.597  0.00  0.00    +0.000 HD
ATOM     22  H   UNL     1       2.444   6.989  20.966  0.00  0.00    +0.000 HD
BRANCH  17  26
ATOM     23  C   UNL     1       5.922   5.051  15.531  0.00  0.00    +0.000 A 
ATOM     24  C   UNL     1       4.870   4.231  15.926  0.00  0.00    +0.000 A 
ATOM     25  C   UNL     1       4.087   4.577  17.030  0.00  0.00    +0.000 A 
ATOM     26  C   UNL     1       4.331   5.738  17.778  0.00  0.00    +0.000 A 
ATOM     27  C   UNL     1       5.380   6.568  17.372  0.00  0.00    +0.000 A 
ATOM     28  C   UNL     1       6.181   6.227  16.261  0.00  0.00    +0.000 A 
BRANCH  23  30
ATOM     29  C   UNL     1       6.208   3.766  13.305  0.00  0.00    +0.000 C 
ATOM     30  C   UNL     1       6.756   4.725  14.338  0.00  0.00    +0.000 C 
ATOM     31  O   UNL     1       7.860   5.250  14.196  0.00  0.00    +0.000 OA
ENDBRANCH  23  30
ENDBRANCH  17  26
ENDBRANCH   1  20
TORSDOF 4
ENDMDL
MODEL 3
REMARK VINA RESULT:      -8.5      1.062      1.445
REMARK  Name = 
REMARK  5 active torsions:
REMARK  status: ('A' for Active; 'I' for Inactive)
REMARK    1  A    between atoms: C_1  and  C_2
REMARK    2  A    between atoms: C_2  and  C_4
REMARK    3  A    between atoms: C_7  and  N_8
REMARK    4  A    between atoms: N_11  and  C_12
REMARK    5  A    between atoms: C_17  and  C_18
REMARK                            x       y       z     vdW  Elec       q    Type
REMARK                         _______ _______ _______ _____ _____    ______ ____
ROOT
ATOM      1  C   UNL     1       3.039   5.646  19.458  0.00  0.00    +0.000 A 
ATOM      2  C   UNL     1       2.724   4.219  19.335  0.00  0.00    +0.000 A 
ATOM      3  C   UNL     1       3.128   3.492  18.272  0.00  0.00    +0.000 A 
ATOM      4  C   UNL     1       3.888   4.105  17.244  0.00  0.00    +0.000 A 
ATOM      5  N   UNL     1       4.427   3.625  16.150  0.00  0.00    +0.000 NA
ATOM      6  C   UNL     1       5.099   4.704  15.626  0.00  0.00    +0.000 A 
ATOM      7  N   UNL     1       4.957   5.839  16.326  0.00  0.00    +0.000 NA
ATOM      8  N   UNL     1       4.183   5.455  17.371  0.00  0.00    +0.000 N 
ATOM      9  C   UNL     1       3.752   6.208  18.458  0.00  0.00    +0.000 A 
ENDROOT
BRANCH   6  10
ATOM     10  C   UNL     1       5.888   4.581  14.407  0.00  0.00    +0.000 A 
ATOM     11  C   UNL     1       5.506   3.700  13.382  0.00  0.00    +0.000 A 
ATOM     12  C   UNL     1       6.301   3.548  12.241  0.00  0.00    +0.000 A 
ATOM     13  C   UNL     1       7.480   4.277  12.115  0.00  0.00    +0.000 A 
ATOM     14  C   UNL     1       7.847   5.166  13.119  0.00  0.00    +0.000 A 
ATOM     15  F   UNL     1       8.988   5.858  13.001  0.00  0.00    +0.000 F 
ATOM     16  C   UNL     1       7.062   5.331  14.254  0.00  0.00    +0.000 A 
ENDBRANCH   6  10
BRANCH   1  20
ATOM     17  N   UNL     1       1.575   8.113  21.717  0.00  0.00    +0.000 N 
ATOM     18  C   UNL     1       1.869   7.513  20.504  0.00  0.00    +0.000 C 
ATOM     19  O   UNL     1       1.513   7.981  19.417  0.00  0.00    +0.000 OA
ATOM     20  N   UNL     1       2.594   6.335  20.582  0.00  0.00    +0.000 N 
ATOM     21  H   UNL     1       2.071   7.809  22.543  0.00  0.00    +0.000 HD
ATOM     22  H   UNL     1       2.574   5.838  21.462  0.00  0.00    +0.000 HD
BRANCH  17  26
ATOM     23  C   UNL     1      -0.822  11.627  22.020  0.00  0.00    +0.000 A 
ATOM     24  C   UNL     1       0.066  11.469  20.960  0.00  0.00    +0.000 A 
ATOM     25  C   UNL     1       0.847  10.316  20.866  0.00  0.00    +0.000 A 
ATOM     26  C   UNL     1       0.779   9.293  21.823  0.00  0.00    +0.000 A 
ATOM     27  C   UNL     1      -0.123   9.447  22.880  0.00  0.00    +0.000 A 
ATOM     28  C   UNL     1      -0.915  10.610  22.989  0.00  0.00    +0.000 A 
BRANCH  23  30
ATOM     29  C   UNL     1      -1.941  13.670  20.896  0.00  0.00    +0.000 C 
ATOM     30  C   UNL     1      -1.692  12.834  22.132  0.00  0.00    +0.000 C 
ATOM     31  O   UNL     1      -2.212  13.120  23.209  0.00  0.00    +0.000 OA
ENDBRANCH  23  30
ENDBRANCH  17  26
ENDBRANCH   1  20
TORSDOF 4
ENDMDL
MODEL 4
REMARK VINA RESULT:      -8.5      4.474     11.787
REMARK  Name = 
REMARK  5 active torsions:
REMARK  status: ('A' for Active; 'I' for Inactive)
REMARK    1  A    between atoms: C_1  and  C_2
REMARK    2  A    between atoms: C_2  and  C_4
REMARK    3  A    between atoms: C_7  and  N_8
REMARK    4  A    between atoms: N_11  and  C_12
REMARK    5  A    between atoms: C_17  and  C_18
REMARK                            x       y       z     vdW  Elec       q    Type
REMARK                         _______ _______ _______ _____ _____    ______ ____
ROOT
ATOM      1  C   UNL     1       1.106   8.616  20.562  0.00  0.00    +0.000 A 
ATOM      2  C   UNL     1       0.704   9.413  19.400  0.00  0.00    +0.000 A 
ATOM      3  C   UNL     1      -0.092  10.497  19.523  0.00  0.00    +0.000 A 
ATOM      4  C   UNL     1      -0.550  10.896  20.804  0.00  0.00    +0.000 A 
ATOM      5  N   UNL     1      -1.282  11.910  21.195  0.00  0.00    +0.000 NA
ATOM      6  C   UNL     1      -1.300  11.782  22.563  0.00  0.00    +0.000 A 
ATOM      7  N   UNL     1      -0.650  10.705  23.028  0.00  0.00    +0.000 NA
ATOM      8  N   UNL     1      -0.161  10.136  21.899  0.00  0.00    +0.000 N 
ATOM      9  C   UNL     1       0.645   9.009  21.770  0.00  0.00    +0.000 A 
ENDROOT
BRANCH   6  10
ATOM     10  C   UNL     1      -1.983  12.758  23.403  0.00  0.00    +0.000 A 
ATOM     11  C   UNL     1      -3.294  12.537  23.851  0.00  0.00    +0.000 A 
ATOM     12  C   UNL     1      -3.961  13.505  24.610  0.00  0.00    +0.000 A 
ATOM     13  C   UNL     1      -3.319  14.699  24.928  0.00  0.00    +0.000 A 
ATOM     14  C   UNL     1      -2.012  14.909  24.503  0.00  0.00    +0.000 A 
ATOM     15  F   UNL     1      -1.401  16.064  24.800  0.00  0.00    +0.000 F 
ATOM     16  C   UNL     1      -1.338  13.951  23.756  0.00  0.00    +0.000 A 
ENDBRANCH   6  10
BRANCH   1  20
ATOM     17  N   UNL     1       3.330   6.104  19.122  0.00  0.00    +0.000 N 
ATOM     18  C   UNL     1       2.618   7.290  19.182  0.00  0.00    +0.000 C 
ATOM     19  O   UNL     1       2.588   8.105  18.254  0.00  0.00    +0.000 OA
ATOM     20  N   UNL     1       1.931   7.513  20.365  0.00  0.00    +0.000 N 
ATOM     21  H   UNL     1       3.142   5.388  19.810  0.00  0.00    +0.000 HD
ATOM     22  H   UNL     1       2.241   7.004  21.181  0.00  0.00    +0.000 HD
BRANCH  17  26
ATOM     23  C   UNL     1       5.752   5.050  15.773  0.00  0.00    +0.000 A 
ATOM     24  C   UNL     1       4.817   4.151  16.277  0.00  0.00    +0.000 A 
ATOM     25  C   UNL     1       4.026   4.502  17.373  0.00  0.00    +0.000 A 
ATOM     26  C   UNL     1       4.147   5.748  18.006  0.00  0.00    +0.000 A 
ATOM     27  C   UNL     1       5.077   6.655  17.490  0.00  0.00    +0.000 A 
ATOM     28  C   UNL     1       5.885   6.311  16.386  0.00  0.00    +0.000 A 
BRANCH  23  30
ATOM     29  C   UNL     1       6.030   3.778  13.539  0.00  0.00    +0.000 C 
ATOM     30  C   UNL     1       6.589   4.716  14.584  0.00  0.00    +0.000 C 
ATOM     31  O   UNL     1       7.704   5.219  14.456  0.00  0.00    +0.000 OA
ENDBRANCH  23  30
ENDBRANCH  17  26
ENDBRANCH   1  20
TORSDOF 4
ENDMDL
MODEL 5
REMARK VINA RESULT:      -8.5      1.038      1.629
REMARK  Name = 
REMARK  5 active torsions:
REMARK  status: ('A' for Active; 'I' for Inactive)
REMARK    1  A    between atoms: C_1  and  C_2
REMARK    2  A    between atoms: C_2  and  C_4
REMARK    3  A    between atoms: C_7  and  N_8
REMARK    4  A    between atoms: N_11  and  C_12
REMARK    5  A    between atoms: C_17  and  C_18
REMARK                            x       y       z     vdW  Elec       q    Type
REMARK                         _______ _______ _______ _____ _____    ______ ____
ROOT
ATOM      1  C   UNL     1       3.082   5.634  19.488  0.00  0.00    +0.000 A 
ATOM      2  C   UNL     1       2.870   4.185  19.435  0.00  0.00    +0.000 A 
ATOM      3  C   UNL     1       3.302   3.441  18.395  0.00  0.00    +0.000 A 
ATOM      4  C   UNL     1       3.992   4.060  17.322  0.00  0.00    +0.000 A 
ATOM      5  N   UNL     1       4.540   3.572  16.237  0.00  0.00    +0.000 NA
ATOM      6  C   UNL     1       5.119   4.671  15.650  0.00  0.00    +0.000 A 
ATOM      7  N   UNL     1       4.910   5.824  16.303  0.00  0.00    +0.000 NA
ATOM      8  N   UNL     1       4.190   5.433  17.383  0.00  0.00    +0.000 N 
ATOM      9  C   UNL     1       3.730   6.201  18.447  0.00  0.00    +0.000 A 
ENDROOT
BRANCH   6  10
ATOM     10  C   UNL     1       5.888   4.551  14.417  0.00  0.00    +0.000 A 
ATOM     11  C   UNL     1       5.481   3.683  13.391  0.00  0.00    +0.000 A 
ATOM     12  C   UNL     1       6.256   3.533  12.236  0.00  0.00    +0.000 A 
ATOM     13  C   UNL     1       7.441   4.251  12.098  0.00  0.00    +0.000 A 
ATOM     14  C   UNL     1       7.833   5.127  13.104  0.00  0.00    +0.000 A 
ATOM     15  F   UNL     1       8.979   5.808  12.973  0.00  0.00    +0.000 F 
ATOM     16  C   UNL     1       7.067   5.290  14.252  0.00  0.00    +0.000 A 
ENDBRANCH   6  10
BRANCH   1  20
ATOM     17  N   UNL     1       1.573   8.135  21.679  0.00  0.00    +0.000 N 
ATOM     18  C   UNL     1       1.894   7.519  20.481  0.00  0.00    +0.000 C 
ATOM     19  O   UNL     1       1.565   7.974  19.380  0.00  0.00    +0.000 OA
ATOM     20  N   UNL     1       2.613   6.340  20.592  0.00  0.00    +0.000 N 
ATOM     21  H   UNL     1       2.049   7.841  22.520  0.00  0.00    +0.000 HD
ATOM     22  H   UNL     1       2.571   5.855  21.478  0.00  0.00    +0.000 HD
BRANCH  17  26
ATOM     23  C   UNL     1      -0.783  11.683  21.906  0.00  0.00    +0.000 A 
ATOM     24  C   UNL     1      -0.827  10.742  22.929  0.00  0.00    +0.000 A 
ATOM     25  C   UNL     1      -0.052   9.583  22.850  0.00  0.00    +0.000 A 
ATOM     26  C   UNL     1       0.778   9.319  21.751  0.00  0.00    +0.000 A 
ATOM     27  C   UNL     1       0.831  10.272  20.729  0.00  0.00    +0.000 A 
ATOM     28  C   UNL     1       0.050  11.446  20.795  0.00  0.00    +0.000 A 
BRANCH  23  30
ATOM     29  C   UNL     1      -1.757  13.618  23.318  0.00  0.00    +0.000 C 
ATOM     30  C   UNL     1      -1.575  12.946  21.976  0.00  0.00    +0.000 C 
ATOM     31  O   UNL     1      -2.046  13.435  20.950  0.00  0.00    +0.000 OA
ENDBRANCH  23  30
ENDBRANCH  17  26
ENDBRANCH   1  20
TORSDOF 4
ENDMDL
MODEL 6
REMARK VINA RESULT:      -8.5      3.783      5.221
REMARK  Name = 
REMARK  5 active torsions:
REMARK  status: ('A' for Active; 'I' for Inactive)
REMARK    1  A    between atoms: C_1  and  C_2
REMARK    2  A    between atoms: C_2  and  C_4
REMARK    3  A    between atoms: C_7  and  N_8
REMARK    4  A    between atoms: N_11  and  C_12
REMARK    5  A    between atoms: C_17  and  C_18
REMARK                            x       y       z     vdW  Elec       q    Type
REMARK                         _______ _______ _______ _____ _____    ______ ____
ROOT
ATOM      1  C   UNL     1       1.307   9.827  19.759  0.00  0.00    +0.000 A 
ATOM      2  C   UNL     1       1.674   9.973  18.348  0.00  0.00    +0.000 A 
ATOM      3  C   UNL     1       2.182   8.944  17.636  0.00  0.00    +0.000 A 
ATOM      4  C   UNL     1       2.359   7.678  18.251  0.00  0.00    +0.000 A 
ATOM      5  N   UNL     1       2.784   6.531  17.784  0.00  0.00    +0.000 NA
ATOM      6  C   UNL     1       2.643   5.679  18.854  0.00  0.00    +0.000 A 
ATOM      7  N   UNL     1       2.195   6.265  19.973  0.00  0.00    +0.000 NA
ATOM      8  N   UNL     1       2.005   7.550  19.588  0.00  0.00    +0.000 N 
ATOM      9  C   UNL     1       1.499   8.615  20.325  0.00  0.00    +0.000 A 
ENDROOT
BRANCH   6  10
ATOM     10  C   UNL     1       2.968   4.263  18.738  0.00  0.00    +0.000 A 
ATOM     11  C   UNL     1       2.410   3.472  17.721  0.00  0.00    +0.000 A 
ATOM     12  C   UNL     1       2.684   2.102  17.653  0.00  0.00    +0.000 A 
ATOM     13  C   UNL     1       3.520   1.514  18.598  0.00  0.00    +0.000 A 
ATOM     14  C   UNL     1       4.091   2.301  19.592  0.00  0.00    +0.000 A 
ATOM     15  F   UNL     1       4.886   1.731  20.507  0.00  0.00    +0.000 F 
ATOM     16  C   UNL     1       3.832   3.664  19.665  0.00  0.00    +0.000 A 
ENDBRANCH   6  10
BRANCH   1  20
ATOM     17  N   UNL     1      -0.909  12.193  21.440  0.00  0.00    +0.000 N 
ATOM     18  C   UNL     1      -0.532  10.994  20.858  0.00  0.00    +0.000 C 
ATOM     19  O   UNL     1      -1.303  10.039  20.723  0.00  0.00    +0.000 OA
ATOM     20  N   UNL     1       0.785  10.928  20.433  0.00  0.00    +0.000 N 
ATOM     21  H   UNL     1      -0.311  12.999  21.326  0.00  0.00    +0.000 HD
ATOM     22  H   UNL     1       1.438  11.579  20.847  0.00  0.00    +0.000 HD
BRANCH  17  26
ATOM     23  C   UNL     1      -4.781  12.860  23.101  0.00  0.00    +0.000 A 
ATOM     24  C   UNL     1      -3.735  12.419  23.906  0.00  0.00    +0.000 A 
ATOM     25  C   UNL     1      -2.470  12.203  23.357  0.00  0.00    +0.000 A 
ATOM     26  C   UNL     1      -2.208  12.408  21.994  0.00  0.00    +0.000 A 
ATOM     27  C   UNL     1      -3.256  12.864  21.189  0.00  0.00    +0.000 A 
ATOM     28  C   UNL     1      -4.540  13.081  21.731  0.00  0.00    +0.000 A 
BRANCH  23  30
ATOM     29  C   UNL     1      -6.619  14.559  23.748  0.00  0.00    +0.000 C 
ATOM     30  C   UNL     1      -6.135  13.129  23.665  0.00  0.00    +0.000 C 
ATOM     31  O   UNL     1      -6.847  12.194  24.031  0.00  0.00    +0.000 OA
ENDBRANCH  23  30
ENDBRANCH  17  26
ENDBRANCH   1  20
TORSDOF 4
ENDMDL
MODEL 7
REMARK VINA RESULT:      -8.4      4.643     11.874
REMARK  Name = 
REMARK  5 active torsions:
REMARK  status: ('A' for Active; 'I' for Inactive)
REMARK    1  A    between atoms: C_1  and  C_2
REMARK    2  A    between atoms: C_2  and  C_4
REMARK    3  A    between atoms: C_7  and  N_8
REMARK    4  A    between atoms: N_11  and  C_12
REMARK    5  A    between atoms: C_17  and  C_18
REMARK                            x       y       z     vdW  Elec       q    Type
REMARK                         _______ _______ _______ _____ _____    ______ ____
ROOT
ATOM      1  C   UNL     1       0.607   8.819  21.073  0.00  0.00    +0.000 A 
ATOM      2  C   UNL     1       0.242   9.494  19.824  0.00  0.00    +0.000 A 
ATOM      3  C   UNL     1      -0.485  10.631  19.817  0.00  0.00    +0.000 A 
ATOM      4  C   UNL     1      -0.904  11.209  21.042  0.00  0.00    +0.000 A 
ATOM      5  N   UNL     1      -1.569  12.306  21.309  0.00  0.00    +0.000 NA
ATOM      6  C   UNL     1      -1.581  12.346  22.683  0.00  0.00    +0.000 A 
ATOM      7  N   UNL     1      -0.993  11.295  23.273  0.00  0.00    +0.000 NA
ATOM      8  N   UNL     1      -0.552  10.564  22.220  0.00  0.00    +0.000 N 
ATOM      9  C   UNL     1       0.183   9.383  22.226  0.00  0.00    +0.000 A 
ENDROOT
BRANCH   6  10
ATOM     10  C   UNL     1      -2.194  13.457  23.400  0.00  0.00    +0.000 A 
ATOM     11  C   UNL     1      -1.413  14.375  24.120  0.00  0.00    +0.000 A 
ATOM     12  C   UNL     1      -2.015  15.403  24.851  0.00  0.00    +0.000 A 
ATOM     13  C   UNL     1      -3.402  15.524  24.866  0.00  0.00    +0.000 A 
ATOM     14  C   UNL     1      -4.176  14.628  24.135  0.00  0.00    +0.000 A 
ATOM     15  F   UNL     1      -5.510  14.739  24.160  0.00  0.00    +0.000 F 
ATOM     16  C   UNL     1      -3.588  13.607  23.399  0.00  0.00    +0.000 A 
ENDBRANCH   6  10
BRANCH   1  20
ATOM     17  N   UNL     1       2.828   6.125  20.006  0.00  0.00    +0.000 N 
ATOM     18  C   UNL     1       2.215   7.365  19.955  0.00  0.00    +0.000 C 
ATOM     19  O   UNL     1       2.406   8.174  19.041  0.00  0.00    +0.000 OA
ATOM     20  N   UNL     1       1.361   7.652  21.008  0.00  0.00    +0.000 N 
ATOM     21  H   UNL     1       2.471   5.431  20.648  0.00  0.00    +0.000 HD
ATOM     22  H   UNL     1       1.488   7.125  21.861  0.00  0.00    +0.000 HD
BRANCH  17  26
ATOM     23  C   UNL     1       5.691   4.821  17.126  0.00  0.00    +0.000 A 
ATOM     24  C   UNL     1       6.082   5.101  18.432  0.00  0.00    +0.000 A 
ATOM     25  C   UNL     1       5.140   5.526  19.370  0.00  0.00    +0.000 A 
ATOM     26  C   UNL     1       3.788   5.697  19.040  0.00  0.00    +0.000 A 
ATOM     27  C   UNL     1       3.394   5.403  17.731  0.00  0.00    +0.000 A 
ATOM     28  C   UNL     1       4.337   4.976  16.772  0.00  0.00    +0.000 A 
BRANCH  23  30
ATOM     29  C   UNL     1       6.147   3.817  14.787  0.00  0.00    +0.000 C 
ATOM     30  C   UNL     1       6.668   4.335  16.109  0.00  0.00    +0.000 C 
ATOM     31  O   UNL     1       7.875   4.382  16.342  0.00  0.00    +0.000 OA
ENDBRANCH  23  30
ENDBRANCH  17  26
ENDBRANCH   1  20
TORSDOF 4
ENDMDL
MODEL 8
REMARK VINA RESULT:      -8.2      0.549      1.113
REMARK  Name = 
REMARK  5 active torsions:
REMARK  status: ('A' for Active; 'I' for Inactive)
REMARK    1  A    between atoms: C_1  and  C_2
REMARK    2  A    between atoms: C_2  and  C_4
REMARK    3  A    between atoms: C_7  and  N_8
REMARK    4  A    between atoms: N_11  and  C_12
REMARK    5  A    between atoms: C_17  and  C_18
REMARK                            x       y       z     vdW  Elec       q    Type
REMARK                         _______ _______ _______ _____ _____    ______ ____
ROOT
ATOM      1  C   UNL     1       2.858   5.824  19.633  0.00  0.00    +0.000 A 
ATOM      2  C   UNL     1       2.247   4.513  19.396  0.00  0.00    +0.000 A 
ATOM      3  C   UNL     1       2.534   3.784  18.297  0.00  0.00    +0.000 A 
ATOM      4  C   UNL     1       3.460   4.277  17.343  0.00  0.00    +0.000 A 
ATOM      5  N   UNL     1       3.935   3.761  16.237  0.00  0.00    +0.000 NA
ATOM      6  C   UNL     1       4.850   4.696  15.816  0.00  0.00    +0.000 A 
ATOM      7  N   UNL     1       4.925   5.787  16.591  0.00  0.00    +0.000 NA
ATOM      8  N   UNL     1       4.035   5.519  17.578  0.00  0.00    +0.000 N 
ATOM      9  C   UNL     1       3.726   6.278  18.702  0.00  0.00    +0.000 A 
ENDROOT
BRANCH   6  10
ATOM     10  C   UNL     1       5.653   4.479  14.618  0.00  0.00    +0.000 A 
ATOM     11  C   UNL     1       6.889   5.122  14.448  0.00  0.00    +0.000 A 
ATOM     12  C   UNL     1       7.625   4.952  13.271  0.00  0.00    +0.000 A 
ATOM     13  C   UNL     1       7.131   4.135  12.257  0.00  0.00    +0.000 A 
ATOM     14  C   UNL     1       5.917   3.480  12.434  0.00  0.00    +0.000 A 
ATOM     15  F   UNL     1       5.439   2.704  11.453  0.00  0.00    +0.000 F 
ATOM     16  C   UNL     1       5.182   3.636  13.602  0.00  0.00    +0.000 A 
ENDBRANCH   6  10
BRANCH   1  20
ATOM     17  N   UNL     1       1.551   8.276  22.002  0.00  0.00    +0.000 N 
ATOM     18  C   UNL     1       1.724   7.657  20.776  0.00  0.00    +0.000 C 
ATOM     19  O   UNL     1       1.209   8.073  19.733  0.00  0.00    +0.000 OA
ATOM     20  N   UNL     1       2.520   6.522  20.788  0.00  0.00    +0.000 N 
ATOM     21  H   UNL     1       2.164   8.024  22.766  0.00  0.00    +0.000 HD
ATOM     22  H   UNL     1       2.639   6.051  21.675  0.00  0.00    +0.000 HD
BRANCH  17  26
ATOM     23  C   UNL     1      -0.952  11.684  22.558  0.00  0.00    +0.000 A 
ATOM     24  C   UNL     1      -1.200  10.507  23.256  0.00  0.00    +0.000 A 
ATOM     25  C   UNL     1      -0.376   9.394  23.071  0.00  0.00    +0.000 A 
ATOM     26  C   UNL     1       0.709   9.414  22.182  0.00  0.00    +0.000 A 
ATOM     27  C   UNL     1       0.965  10.602  21.491  0.00  0.00    +0.000 A 
ATOM     28  C   UNL     1       0.138  11.732  21.666  0.00  0.00    +0.000 A 
BRANCH  23  30
ATOM     29  C   UNL     1      -1.529  14.118  21.903  0.00  0.00    +0.000 C 
ATOM     30  C   UNL     1      -1.795  12.899  22.757  0.00  0.00    +0.000 C 
ATOM     31  O   UNL     1      -2.702  12.889  23.588  0.00  0.00    +0.000 OA
ENDBRANCH  23  30
ENDBRANCH  17  26
ENDBRANCH   1  20
TORSDOF 4
ENDMDL
MODEL 9
REMARK VINA RESULT:      -8.1      3.161      5.642
REMARK  Name = 
REMARK  5 active torsions:
REMARK  status: ('A' for Active; 'I' for Inactive)
REMARK    1  A    between atoms: C_1  and  C_2
REMARK    2  A    between atoms: C_2  and  C_4
REMARK    3  A    between atoms: C_7  and  N_8
REMARK    4  A    between atoms: N_11  and  C_12
REMARK    5  A    between atoms: C_17  and  C_18
REMARK                            x       y       z     vdW  Elec       q    Type
REMARK                         _______ _______ _______ _____ _____    ______ ____
ROOT
ATOM      1  C   UNL     1       0.739  10.830  20.669  0.00  0.00    +0.000 A 
ATOM      2  C   UNL     1       0.950  11.371  19.323  0.00  0.00    +0.000 A 
ATOM      3  C   UNL     1       1.486  10.626  18.334  0.00  0.00    +0.000 A 
ATOM      4  C   UNL     1       1.849   9.277  18.582  0.00  0.00    +0.000 A 
ATOM      5  N   UNL     1       2.339   8.346  17.802  0.00  0.00    +0.000 NA
ATOM      6  C   UNL     1       2.390   7.241  18.618  0.00  0.00    +0.000 A 
ATOM      7  N   UNL     1       1.997   7.465  19.881  0.00  0.00    +0.000 NA
ATOM      8  N   UNL     1       1.643   8.774  19.859  0.00  0.00    +0.000 N 
ATOM      9  C   UNL     1       1.106   9.547  20.883  0.00  0.00    +0.000 A 
ENDROOT
BRANCH   6  10
ATOM     10  C   UNL     1       2.842   5.951  18.113  0.00  0.00    +0.000 A 
ATOM     11  C   UNL     1       4.068   5.825  17.440  0.00  0.00    +0.000 A 
ATOM     12  C   UNL     1       4.467   4.594  16.910  0.00  0.00    +0.000 A 
ATOM     13  C   UNL     1       3.644   3.479  17.052  0.00  0.00    +0.000 A 
ATOM     14  C   UNL     1       2.440   3.598  17.737  0.00  0.00    +0.000 A 
ATOM     15  F   UNL     1       1.646   2.527  17.862  0.00  0.00    +0.000 F 
ATOM     16  C   UNL     1       2.038   4.814  18.275  0.00  0.00    +0.000 A 
ENDBRANCH   6  10
BRANCH   1  20
ATOM     17  N   UNL     1      -1.570  12.783  22.715  0.00  0.00    +0.000 N 
ATOM     18  C   UNL     1      -1.186  11.874  21.744  0.00  0.00    +0.000 C 
ATOM     19  O   UNL     1      -1.991  11.289  21.012  0.00  0.00    +0.000 OA
ATOM     20  N   UNL     1       0.178  11.653  21.642  0.00  0.00    +0.000 N 
ATOM     21  H   UNL     1      -0.868  13.383  23.125  0.00  0.00    +0.000 HD
ATOM     22  H   UNL     1       0.746  11.887  22.445  0.00  0.00    +0.000 HD
BRANCH  17  26
ATOM     23  C   UNL     1      -5.648  13.678  23.587  0.00  0.00    +0.000 A 
ATOM     24  C   UNL     1      -4.966  12.713  24.321  0.00  0.00    +0.000 A 
ATOM     25  C   UNL     1      -3.631  12.425  24.032  0.00  0.00    +0.000 A 
ATOM     26  C   UNL     1      -2.937  13.077  23.002  0.00  0.00    +0.000 A 
ATOM     27  C   UNL     1      -3.620  14.056  22.274  0.00  0.00    +0.000 A 
ATOM     28  C   UNL     1      -4.970  14.354  22.553  0.00  0.00    +0.000 A 
BRANCH  23  30
ATOM     29  C   UNL     1      -7.579  15.396  23.494  0.00  0.00    +0.000 C 
ATOM     30  C   UNL     1      -7.065  14.031  23.893  0.00  0.00    +0.000 C 
ATOM     31  O   UNL     1      -7.800  13.209  24.438  0.00  0.00    +0.000 OA
ENDBRANCH  23  30
ENDBRANCH  17  26
ENDBRANCH   1  20
TORSDOF 4
ENDMDL
