MODEL 1
REMARK VINA RESULT:      -8.3      0.000      0.000
REMARK  Name = 
REMARK  9 active torsions:
REMARK  status: ('A' for Active; 'I' for Inactive)
REMARK    1  A    between atoms: C_2  and  O_3
REMARK    2  A    between atoms: C_2  and  C_4
REMARK    3  A    between atoms: C_7  and  C_8
REMARK    4  A    between atoms: C_11  and  C_12
REMARK    5  A    between atoms: C_12  and  O_13
REMARK    6  A    between atoms: C_12  and  C_14
REMARK    7  A    between atoms: C_14  and  C_15
REMARK    8  A    between atoms: C_15  and  C_16
REMARK    9  A    between atoms: C_19  and  C_20
REMARK                            x       y       z     vdW  Elec       q    Type
REMARK                         _______ _______ _______ _____ _____    ______ ____
ROOT
ATOM      1  C   UNL     1       1.142   8.487  20.557  0.00  0.00    +0.000 C 
ENDROOT
BRANCH   1   5
ATOM      2  C   UNL     1       3.179   6.014  18.973  0.00  0.00    +0.000 A 
ATOM      3  C   UNL     1       2.517   5.233  19.891  0.00  0.00    +0.000 A 
ATOM      4  N   UNL     1       1.682   6.005  20.660  0.00  0.00    +0.000 NA
ATOM      5  C   UNL     1       1.864   7.227  20.196  0.00  0.00    +0.000 A 
ATOM      6  O   UNL     1       2.780   7.312  19.179  0.00  0.00    +0.000 OA
BRANCH   2  10
ATOM      7  C   UNL     1       5.782   5.122  15.807  0.00  0.00    +0.000 A 
ATOM      8  C   UNL     1       5.388   6.450  15.976  0.00  0.00    +0.000 A 
ATOM      9  C   UNL     1       4.545   6.776  17.038  0.00  0.00    +0.000 A 
ATOM     10  C   UNL     1       4.103   5.762  17.886  0.00  0.00    +0.000 A 
ATOM     11  N   UNL     1       4.465   4.465  17.725  0.00  0.00    +0.000 NA
ATOM     12  C   UNL     1       5.287   4.170  16.683  0.00  0.00    +0.000 A 
BRANCH   7  14
ATOM     13  O   UNL     1       7.594   5.369  14.305  0.00  0.00    +0.000 OA
ATOM     14  C   UNL     1       6.664   4.697  14.708  0.00  0.00    +0.000 C 
BRANCH  14  15
ATOM     15  O   UNL     1       6.313   3.509  14.163  0.00  0.00    +0.000 OA
ATOM     16  H   UNL     1       5.447   3.487  13.718  0.00  0.00    +0.000 HD
ENDBRANCH  14  15
ENDBRANCH   7  14
ENDBRANCH   2  10
ENDBRANCH   1   5
BRANCH   1  17
ATOM     17  O   UNL     1       1.550   8.877  21.873  0.00  0.00    +0.000 OA
ATOM     18  H   UNL     1       1.096   8.288  22.499  0.00  0.00    +0.000 HD
ENDBRANCH   1  17
BRANCH   1  19
ATOM     19  C   UNL     1       1.440   9.637  19.591  0.00  0.00    +0.000 C 
BRANCH  19  20
ATOM     20  C   UNL     1       0.750   9.481  18.234  0.00  0.00    +0.000 C 
BRANCH  20  21
ATOM     21  C   UNL     1      -0.612  10.128  18.243  0.00  0.00    +0.000 A 
ATOM     22  C   UNL     1      -0.934  11.072  19.221  0.00  0.00    +0.000 A 
ATOM     23  C   UNL     1      -2.206  11.653  19.256  0.00  0.00    +0.000 A 
ATOM     24  C   UNL     1      -3.194  11.324  18.310  0.00  0.00    +0.000 A 
ATOM     25  C   UNL     1      -2.849  10.372  17.334  0.00  0.00    +0.000 A 
ATOM     26  C   UNL     1      -1.582   9.775  17.304  0.00  0.00    +0.000 A 
BRANCH  24  27
ATOM     27  C   UNL     1      -4.537  11.953  18.350  0.00  0.00    +0.000 A 
ATOM     28  C   UNL     1      -5.349  12.020  17.202  0.00  0.00    +0.000 A 
ATOM     29  C   UNL     1      -6.605  12.636  17.225  0.00  0.00    +0.000 A 
ATOM     30  C   UNL     1      -7.087  13.186  18.406  0.00  0.00    +0.000 A 
ATOM     31  C   UNL     1      -6.316  13.123  19.561  0.00  0.00    +0.000 A 
ATOM     32  C   UNL     1      -5.055  12.519  19.530  0.00  0.00    +0.000 A 
ENDBRANCH  24  27
ENDBRANCH  20  21
ENDBRANCH  19  20
ENDBRANCH   1  19
TORSDOF 9
ENDMDL
MODEL 2
REMARK VINA RESULT:      -8.1      4.542      7.428
REMARK  Name = 
REMARK  9 active torsions:
REMARK  status: ('A' for Active; 'I' for Inactive)
REMARK    1  A    between atoms: C_2  and  O_3
REMARK    2  A    between atoms: C_2  and  C_4
REMARK    3  A    between atoms: C_7  and  C_8
REMARK    4  A    between atoms: C_11  and  C_12
REMARK    5  A    between atoms: C_12  and  O_13
REMARK    6  A    between atoms: C_12  and  C_14
REMARK    7  A    between atoms: C_14  and  C_15
REMARK    8  A    between atoms: C_15  and  C_16
REMARK    9  A    between atoms: C_19  and  C_20
REMARK                            x       y       z     vdW  Elec       q    Type
REMARK                         _______ _______ _______ _____ _____    ______ ____
ROOT
ATOM      1  C   UNL     1       6.753   5.861  15.845  0.00  0.00    +0.000 C 
ENDROOT
BRANCH   1   5
ATOM      2  C   UNL     1       8.142   8.209  18.154  0.00  0.00    +0.000 A 
ATOM      3  C   UNL     1       8.245   7.052  18.890  0.00  0.00    +0.000 A 
ATOM      4  N   UNL     1       7.721   5.993  18.191  0.00  0.00    +0.000 NA
ATOM      5  C   UNL     1       7.308   6.534  17.060  0.00  0.00    +0.000 A 
ATOM      6  O   UNL     1       7.513   7.887  16.975  0.00  0.00    +0.000 OA
BRANCH   2  10
ATOM      7  C   UNL     1       9.218  12.238  18.602  0.00  0.00    +0.000 A 
ATOM      8  C   UNL     1       9.751  11.315  19.502  0.00  0.00    +0.000 A 
ATOM      9  C   UNL     1       9.430   9.965  19.357  0.00  0.00    +0.000 A 
ATOM     10  C   UNL     1       8.568   9.582  18.331  0.00  0.00    +0.000 A 
ATOM     11  N   UNL     1       8.030  10.470  17.459  0.00  0.00    +0.000 NA
ATOM     12  C   UNL     1       8.356  11.781  17.620  0.00  0.00    +0.000 A 
BRANCH   7  14
ATOM     13  O   UNL     1       9.693  14.253  19.749  0.00  0.00    +0.000 OA
ATOM     14  C   UNL     1       9.503  13.679  18.694  0.00  0.00    +0.000 C 
BRANCH  14  15
ATOM     15  O   UNL     1       9.490  14.309  17.496  0.00  0.00    +0.000 OA
ATOM     16  H   UNL     1      10.353  14.630  17.178  0.00  0.00    +0.000 HD
ENDBRANCH  14  15
ENDBRANCH   7  14
ENDBRANCH   2  10
ENDBRANCH   1   5
BRANCH   1  17
ATOM     17  O   UNL     1       7.379   4.579  15.716  0.00  0.00    +0.000 OA
ATOM     18  H   UNL     1       7.621   4.288  16.611  0.00  0.00    +0.000 HD
ENDBRANCH   1  17
BRANCH   1  19
ATOM     19  C   UNL     1       5.237   5.659  15.921  0.00  0.00    +0.000 C 
BRANCH  19  20
ATOM     20  C   UNL     1       4.775   5.039  17.241  0.00  0.00    +0.000 C 
BRANCH  20  21
ATOM     21  C   UNL     1       3.844   5.967  17.978  0.00  0.00    +0.000 A 
ATOM     22  C   UNL     1       3.537   7.222  17.445  0.00  0.00    +0.000 A 
ATOM     23  C   UNL     1       2.699   8.102  18.138  0.00  0.00    +0.000 A 
ATOM     24  C   UNL     1       2.128   7.757  19.376  0.00  0.00    +0.000 A 
ATOM     25  C   UNL     1       2.448   6.489  19.894  0.00  0.00    +0.000 A 
ATOM     26  C   UNL     1       3.299   5.609  19.212  0.00  0.00    +0.000 A 
BRANCH  24  27
ATOM     27  C   UNL     1       1.232   8.694  20.098  0.00  0.00    +0.000 A 
ATOM     28  C   UNL     1       0.667   9.810  19.453  0.00  0.00    +0.000 A 
ATOM     29  C   UNL     1      -0.157  10.713  20.133  0.00  0.00    +0.000 A 
ATOM     30  C   UNL     1      -0.448  10.511  21.477  0.00  0.00    +0.000 A 
ATOM     31  C   UNL     1       0.083   9.410  22.139  0.00  0.00    +0.000 A 
ATOM     32  C   UNL     1       0.917   8.517  21.458  0.00  0.00    +0.000 A 
ENDBRANCH  24  27
ENDBRANCH  20  21
ENDBRANCH  19  20
ENDBRANCH   1  19
TORSDOF 9
ENDMDL
MODEL 3
REMARK VINA RESULT:      -8.1      0.434      1.424
REMARK  Name = 
REMARK  9 active torsions:
REMARK  status: ('A' for Active; 'I' for Inactive)
REMARK    1  A    between atoms: C_2  and  O_3
REMARK    2  A    between atoms: C_2  and  C_4
REMARK    3  A    between atoms: C_7  and  C_8
REMARK    4  A    between atoms: C_11  and  C_12
REMARK    5  A    between atoms: C_12  and  O_13
REMARK    6  A    between atoms: C_12  and  C_14
REMARK    7  A    between atoms: C_14  and  C_15
REMARK    8  A    between atoms: C_15  and  C_16
REMARK    9  A    between atoms: C_19  and  C_20
REMARK                            x       y       z     vdW  Elec       q    Type
REMARK                         _______ _______ _______ _____ _____    ______ ____
ROOT
ATOM      1  C   UNL     1       0.745   8.624  20.251  0.00  0.00    +0.000 C 
ENDROOT
BRANCH   1   5
ATOM      2  C   UNL     1       3.028   6.203  18.948  0.00  0.00    +0.000 A 
ATOM      3  C   UNL     1       2.508   5.500  20.009  0.00  0.00    +0.000 A 
ATOM      4  N   UNL     1       1.607   6.275  20.698  0.00  0.00    +0.000 NA
ATOM      5  C   UNL     1       1.612   7.422  20.045  0.00  0.00    +0.000 A 
ATOM      6  O   UNL     1       2.471   7.458  18.977  0.00  0.00    +0.000 OA
BRANCH   2  10
ATOM      7  C   UNL     1       5.571   5.170  15.776  0.00  0.00    +0.000 A 
ATOM      8  C   UNL     1       5.316   6.524  15.995  0.00  0.00    +0.000 A 
ATOM      9  C   UNL     1       4.495   6.894  17.061  0.00  0.00    +0.000 A 
ATOM     10  C   UNL     1       3.937   5.899  17.861  0.00  0.00    +0.000 A 
ATOM     11  N   UNL     1       4.163   4.579  17.650  0.00  0.00    +0.000 NA
ATOM     12  C   UNL     1       4.965   4.241  16.605  0.00  0.00    +0.000 A 
BRANCH   7  14
ATOM     13  O   UNL     1       6.077   3.824  13.896  0.00  0.00    +0.000 OA
ATOM     14  C   UNL     1       6.419   4.699  14.669  0.00  0.00    +0.000 C 
BRANCH  14  15
ATOM     15  O   UNL     1       7.629   5.301  14.622  0.00  0.00    +0.000 OA
ATOM     16  H   UNL     1       8.274   4.908  14.006  0.00  0.00    +0.000 HD
ENDBRANCH  14  15
ENDBRANCH   7  14
ENDBRANCH   2  10
ENDBRANCH   1   5
BRANCH   1  17
ATOM     17  O   UNL     1       0.859   9.029  21.620  0.00  0.00    +0.000 OA
ATOM     18  H   UNL     1       1.418   9.824  21.638  0.00  0.00    +0.000 HD
ENDBRANCH   1  17
BRANCH   1  19
ATOM     19  C   UNL     1       1.144   9.801  19.358  0.00  0.00    +0.000 C 
BRANCH  19  20
ATOM     20  C   UNL     1       0.412   9.816  18.015  0.00  0.00    +0.000 C 
BRANCH  20  21
ATOM     21  C   UNL     1      -0.975  10.387  18.161  0.00  0.00    +0.000 A 
ATOM     22  C   UNL     1      -2.033   9.859  17.418  0.00  0.00    +0.000 A 
ATOM     23  C   UNL     1      -3.317  10.403  17.524  0.00  0.00    +0.000 A 
ATOM     24  C   UNL     1      -3.593  11.482  18.383  0.00  0.00    +0.000 A 
ATOM     25  C   UNL     1      -2.515  11.998  19.123  0.00  0.00    +0.000 A 
ATOM     26  C   UNL     1      -1.223  11.467  19.009  0.00  0.00    +0.000 A 
BRANCH  24  27
ATOM     27  C   UNL     1      -4.961  12.045  18.495  0.00  0.00    +0.000 A 
ATOM     28  C   UNL     1      -5.499  12.420  19.741  0.00  0.00    +0.000 A 
ATOM     29  C   UNL     1      -6.797  12.927  19.858  0.00  0.00    +0.000 A 
ATOM     30  C   UNL     1      -7.586  13.087  18.725  0.00  0.00    +0.000 A 
ATOM     31  C   UNL     1      -7.078  12.741  17.478  0.00  0.00    +0.000 A 
ATOM     32  C   UNL     1      -5.784  12.221  17.367  0.00  0.00    +0.000 A 
ENDBRANCH  24  27
ENDBRANCH  20  21
ENDBRANCH  19  20
ENDBRANCH   1  19
TORSDOF 9
ENDMDL
MODEL 4
REMARK VINA RESULT:      -8.1      4.601      7.499
REMARK  Name = 
REMARK  9 active torsions:
REMARK  status: ('A' for Active; 'I' for Inactive)
REMARK    1  A    between atoms: C_2  and  O_3
REMARK    2  A    between atoms: C_2  and  C_4
REMARK    3  A    between atoms: C_7  and  C_8
REMARK    4  A    between atoms: C_11  and  C_12
REMARK    5  A    between atoms: C_12  and  O_13
REMARK    6  A    between atoms: C_12  and  C_14
REMARK    7  A    between atoms: C_14  and  C_15
REMARK    8  A    between atoms: C_15  and  C_16
REMARK    9  A    between atoms: C_19  and  C_20
REMARK                            x       y       z     vdW  Elec       q    Type
REMARK                         _______ _______ _______ _____ _____    ______ ____
ROOT
ATOM      1  C   UNL     1       6.893   5.771  15.875  0.00  0.00    +0.000 C 
ENDROOT
BRANCH   1   5
ATOM      2  C   UNL     1       8.147   8.192  18.186  0.00  0.00    +0.000 A 
ATOM      3  C   UNL     1       8.244   7.052  18.950  0.00  0.00    +0.000 A 
ATOM      4  N   UNL     1       7.767   5.970  18.254  0.00  0.00    +0.000 NA
ATOM      5  C   UNL     1       7.388   6.479  17.097  0.00  0.00    +0.000 A 
ATOM      6  O   UNL     1       7.571   7.834  16.992  0.00  0.00    +0.000 OA
BRANCH   2  10
ATOM      7  C   UNL     1       9.446  12.144  18.721  0.00  0.00    +0.000 A 
ATOM      8  C   UNL     1       8.526  11.890  17.704  0.00  0.00    +0.000 A 
ATOM      9  C   UNL     1       8.058  10.588  17.523  0.00  0.00    +0.000 A 
ATOM     10  C   UNL     1       8.540   9.576  18.351  0.00  0.00    +0.000 A 
ATOM     11  N   UNL     1       9.446   9.805  19.334  0.00  0.00    +0.000 NA
ATOM     12  C   UNL     1       9.890  11.081  19.491  0.00  0.00    +0.000 A 
BRANCH   7  14
ATOM     13  O   UNL     1       9.382  14.509  18.721  0.00  0.00    +0.000 OA
ATOM     14  C   UNL     1       9.993  13.487  18.970  0.00  0.00    +0.000 C 
BRANCH  14  15
ATOM     15  O   UNL     1      11.254  13.475  19.461  0.00  0.00    +0.000 OA
ATOM     16  H   UNL     1      11.387  13.959  20.296  0.00  0.00    +0.000 HD
ENDBRANCH  14  15
ENDBRANCH   7  14
ENDBRANCH   2  10
ENDBRANCH   1   5
BRANCH   1  17
ATOM     17  O   UNL     1       7.294   4.399  15.958  0.00  0.00    +0.000 OA
ATOM     18  H   UNL     1       8.265   4.388  16.018  0.00  0.00    +0.000 HD
ENDBRANCH   1  17
BRANCH   1  19
ATOM     19  C   UNL     1       5.370   5.828  15.735  0.00  0.00    +0.000 C 
BRANCH  19  20
ATOM     20  C   UNL     1       4.633   5.061  16.836  0.00  0.00    +0.000 C 
BRANCH  20  21
ATOM     21  C   UNL     1       3.798   5.993  17.677  0.00  0.00    +0.000 A 
ATOM     22  C   UNL     1       3.215   5.536  18.862  0.00  0.00    +0.000 A 
ATOM     23  C   UNL     1       2.414   6.385  19.632  0.00  0.00    +0.000 A 
ATOM     24  C   UNL     1       2.177   7.720  19.256  0.00  0.00    +0.000 A 
ATOM     25  C   UNL     1       2.774   8.160  18.061  0.00  0.00    +0.000 A 
ATOM     26  C   UNL     1       3.565   7.310  17.277  0.00  0.00    +0.000 A 
BRANCH  24  27
ATOM     27  C   UNL     1       1.333   8.615  20.085  0.00  0.00    +0.000 A 
ATOM     28  C   UNL     1       1.069   8.327  21.438  0.00  0.00    +0.000 A 
ATOM     29  C   UNL     1       0.252   9.151  22.219  0.00  0.00    +0.000 A 
ATOM     30  C   UNL     1      -0.309  10.296  21.667  0.00  0.00    +0.000 A 
ATOM     31  C   UNL     1      -0.055  10.617  20.338  0.00  0.00    +0.000 A 
ATOM     32  C   UNL     1       0.751   9.782  19.557  0.00  0.00    +0.000 A 
ENDBRANCH  24  27
ENDBRANCH  20  21
ENDBRANCH  19  20
ENDBRANCH   1  19
TORSDOF 9
ENDMDL
MODEL 5
REMARK VINA RESULT:      -8.0      4.333     10.691
REMARK  Name = 
REMARK  9 active torsions:
REMARK  status: ('A' for Active; 'I' for Inactive)
REMARK    1  A    between atoms: C_2  and  O_3
REMARK    2  A    between atoms: C_2  and  C_4
REMARK    3  A    between atoms: C_7  and  C_8
REMARK    4  A    between atoms: C_11  and  C_12
REMARK    5  A    between atoms: C_12  and  O_13
REMARK    6  A    between atoms: C_12  and  C_14
REMARK    7  A    between atoms: C_14  and  C_15
REMARK    8  A    between atoms: C_15  and  C_16
REMARK    9  A    between atoms: C_19  and  C_20
REMARK                            x       y       z     vdW  Elec       q    Type
REMARK                         _______ _______ _______ _____ _____    ______ ____
ROOT
ATOM      1  C   UNL     1       1.891   4.477  20.728  0.00  0.00    +0.000 C 
ENDROOT
BRANCH   1   5
ATOM      2  C   UNL     1       1.409   8.017  20.630  0.00  0.00    +0.000 A 
ATOM      3  C   UNL     1       2.110   7.834  19.461  0.00  0.00    +0.000 A 
ATOM      4  N   UNL     1       2.445   6.511  19.308  0.00  0.00    +0.000 NA
ATOM      5  C   UNL     1       1.947   5.933  20.385  0.00  0.00    +0.000 A 
ATOM      6  O   UNL     1       1.319   6.794  21.247  0.00  0.00    +0.000 OA
BRANCH   2  10
ATOM      7  C   UNL     1      -0.528  11.331  22.322  0.00  0.00    +0.000 A 
ATOM      8  C   UNL     1      -0.536  10.133  23.037  0.00  0.00    +0.000 A 
ATOM      9  C   UNL     1       0.124   9.023  22.508  0.00  0.00    +0.000 A 
ATOM     10  C   UNL     1       0.754   9.139  21.270  0.00  0.00    +0.000 A 
ATOM     11  N   UNL     1       0.758  10.293  20.557  0.00  0.00    +0.000 NA
ATOM     12  C   UNL     1       0.107  11.361  21.092  0.00  0.00    +0.000 A 
BRANCH   7  14
ATOM     13  O   UNL     1      -2.291  12.518  23.361  0.00  0.00    +0.000 OA
ATOM     14  C   UNL     1      -1.207  12.542  22.809  0.00  0.00    +0.000 C 
BRANCH  14  15
ATOM     15  O   UNL     1      -0.531  13.683  22.546  0.00  0.00    +0.000 OA
ATOM     16  H   UNL     1      -0.950  14.286  21.905  0.00  0.00    +0.000 HD
ENDBRANCH  14  15
ENDBRANCH   7  14
ENDBRANCH   2  10
ENDBRANCH   1   5
BRANCH   1  17
ATOM     17  O   UNL     1       0.527   4.049  20.646  0.00  0.00    +0.000 OA
ATOM     18  H   UNL     1       0.100   4.292  21.485  0.00  0.00    +0.000 HD
ENDBRANCH   1  17
BRANCH   1  19
ATOM     19  C   UNL     1       2.732   3.614  19.785  0.00  0.00    +0.000 C 
BRANCH  19  20
ATOM     20  C   UNL     1       4.224   3.952  19.824  0.00  0.00    +0.000 C 
BRANCH  20  21
ATOM     21  C   UNL     1       4.787   4.081  18.431  0.00  0.00    +0.000 A 
ATOM     22  C   UNL     1       4.008   3.731  17.326  0.00  0.00    +0.000 A 
ATOM     23  C   UNL     1       4.532   3.818  16.032  0.00  0.00    +0.000 A 
ATOM     24  C   UNL     1       5.844   4.268  15.796  0.00  0.00    +0.000 A 
ATOM     25  C   UNL     1       6.611   4.616  16.922  0.00  0.00    +0.000 A 
ATOM     26  C   UNL     1       6.095   4.517  18.222  0.00  0.00    +0.000 A 
BRANCH  24  27
ATOM     27  C   UNL     1       6.388   4.366  14.419  0.00  0.00    +0.000 A 
ATOM     28  C   UNL     1       5.914   3.538  13.384  0.00  0.00    +0.000 A 
ATOM     29  C   UNL     1       6.440   3.605  12.089  0.00  0.00    +0.000 A 
ATOM     30  C   UNL     1       7.446   4.517  11.795  0.00  0.00    +0.000 A 
ATOM     31  C   UNL     1       7.925   5.360  12.792  0.00  0.00    +0.000 A 
ATOM     32  C   UNL     1       7.406   5.279  14.088  0.00  0.00    +0.000 A 
ENDBRANCH  24  27
ENDBRANCH  20  21
ENDBRANCH  19  20
ENDBRANCH   1  19
TORSDOF 9
ENDMDL
MODEL 6
REMARK VINA RESULT:      -8.0      0.729      1.125
REMARK  Name = 
REMARK  9 active torsions:
REMARK  status: ('A' for Active; 'I' for Inactive)
REMARK    1  A    between atoms: C_2  and  O_3
REMARK    2  A    between atoms: C_2  and  C_4
REMARK    3  A    between atoms: C_7  and  C_8
REMARK    4  A    between atoms: C_11  and  C_12
REMARK    5  A    between atoms: C_12  and  O_13
REMARK    6  A    between atoms: C_12  and  C_14
REMARK    7  A    between atoms: C_14  and  C_15
REMARK    8  A    between atoms: C_15  and  C_16
REMARK    9  A    between atoms: C_19  and  C_20
REMARK                            x       y       z     vdW  Elec       q    Type
REMARK                         _______ _______ _______ _____ _____    ______ ____
ROOT
ATOM      1  C   UNL     1       1.206   8.148  20.336  0.00  0.00    +0.000 C 
ENDROOT
BRANCH   1   5
ATOM      2  C   UNL     1       3.228   5.609  18.840  0.00  0.00    +0.000 A 
ATOM      3  C   UNL     1       2.682   4.901  19.885  0.00  0.00    +0.000 A 
ATOM      4  N   UNL     1       1.875   5.715  20.641  0.00  0.00    +0.000 NA
ATOM      5  C   UNL     1       1.958   6.888  20.042  0.00  0.00    +0.000 A 
ATOM      6  O   UNL     1       2.783   6.904  18.948  0.00  0.00    +0.000 OA
BRANCH   2  10
ATOM      7  C   UNL     1       5.759   4.822  15.589  0.00  0.00    +0.000 A 
ATOM      8  C   UNL     1       5.277   3.736  16.320  0.00  0.00    +0.000 A 
ATOM      9  C   UNL     1       4.411   3.970  17.389  0.00  0.00    +0.000 A 
ATOM     10  C   UNL     1       4.072   5.284  17.708  0.00  0.00    +0.000 A 
ATOM     11  N   UNL     1       4.545   6.350  17.016  0.00  0.00    +0.000 NA
ATOM     12  C   UNL     1       5.388   6.098  15.979  0.00  0.00    +0.000 A 
BRANCH   7  14
ATOM     13  O   UNL     1       7.621   5.403  14.249  0.00  0.00    +0.000 OA
ATOM     14  C   UNL     1       6.681   4.659  14.453  0.00  0.00    +0.000 C 
BRANCH  14  15
ATOM     15  O   UNL     1       6.355   3.629  13.638  0.00  0.00    +0.000 OA
ATOM     16  H   UNL     1       5.551   3.135  13.880  0.00  0.00    +0.000 HD
ENDBRANCH  14  15
ENDBRANCH   7  14
ENDBRANCH   2  10
ENDBRANCH   1   5
BRANCH   1  17
ATOM     17  O   UNL     1       1.755   8.734  21.522  0.00  0.00    +0.000 OA
ATOM     18  H   UNL     1       1.033   8.801  22.169  0.00  0.00    +0.000 HD
ENDBRANCH   1  17
BRANCH   1  19
ATOM     19  C   UNL     1       1.296   9.169  19.199  0.00  0.00    +0.000 C 
BRANCH  19  20
ATOM     20  C   UNL     1       1.007  10.603  19.650  0.00  0.00    +0.000 C 
BRANCH  20  21
ATOM     21  C   UNL     1      -0.428  10.977  19.375  0.00  0.00    +0.000 A 
ATOM     22  C   UNL     1      -1.057  11.957  20.146  0.00  0.00    +0.000 A 
ATOM     23  C   UNL     1      -2.396  12.288  19.918  0.00  0.00    +0.000 A 
ATOM     24  C   UNL     1      -3.149  11.664  18.907  0.00  0.00    +0.000 A 
ATOM     25  C   UNL     1      -2.497  10.682  18.141  0.00  0.00    +0.000 A 
ATOM     26  C   UNL     1      -1.159  10.335  18.375  0.00  0.00    +0.000 A 
BRANCH  24  27
ATOM     27  C   UNL     1      -4.567  12.030  18.667  0.00  0.00    +0.000 A 
ATOM     28  C   UNL     1      -5.161  11.868  17.401  0.00  0.00    +0.000 A 
ATOM     29  C   UNL     1      -6.489  12.236  17.161  0.00  0.00    +0.000 A 
ATOM     30  C   UNL     1      -7.263  12.759  18.189  0.00  0.00    +0.000 A 
ATOM     31  C   UNL     1      -6.710  12.917  19.456  0.00  0.00    +0.000 A 
ATOM     32  C   UNL     1      -5.378  12.561  19.688  0.00  0.00    +0.000 A 
ENDBRANCH  24  27
ENDBRANCH  20  21
ENDBRANCH  19  20
ENDBRANCH   1  19
TORSDOF 9
ENDMDL
MODEL 7
REMARK VINA RESULT:      -8.0      3.066      4.403
REMARK  Name = 
REMARK  9 active torsions:
REMARK  status: ('A' for Active; 'I' for Inactive)
REMARK    1  A    between atoms: C_2  and  O_3
REMARK    2  A    between atoms: C_2  and  C_4
REMARK    3  A    between atoms: C_7  and  C_8
REMARK    4  A    between atoms: C_11  and  C_12
REMARK    5  A    between atoms: C_12  and  O_13
REMARK    6  A    between atoms: C_12  and  C_14
REMARK    7  A    between atoms: C_14  and  C_15
REMARK    8  A    between atoms: C_15  and  C_16
REMARK    9  A    between atoms: C_19  and  C_20
REMARK                            x       y       z     vdW  Elec       q    Type
REMARK                         _______ _______ _______ _____ _____    ______ ____
ROOT
ATOM      1  C   UNL     1       1.409   3.923  19.122  0.00  0.00    +0.000 C 
ENDROOT
BRANCH   1   5
ATOM      2  C   UNL     1       4.717   3.848  17.773  0.00  0.00    +0.000 A 
ATOM      3  C   UNL     1       4.927   3.201  18.968  0.00  0.00    +0.000 A 
ATOM      4  N   UNL     1       3.761   3.146  19.692  0.00  0.00    +0.000 NA
ATOM      5  C   UNL     1       2.884   3.766  18.924  0.00  0.00    +0.000 A 
ATOM      6  O   UNL     1       3.401   4.239  17.746  0.00  0.00    +0.000 OA
BRANCH   2  10
ATOM      7  C   UNL     1       6.907   4.736  14.308  0.00  0.00    +0.000 A 
ATOM      8  C   UNL     1       7.535   4.914  15.541  0.00  0.00    +0.000 A 
ATOM      9  C   UNL     1       6.836   4.599  16.707  0.00  0.00    +0.000 A 
ATOM     10  C   UNL     1       5.525   4.138  16.606  0.00  0.00    +0.000 A 
ATOM     11  N   UNL     1       4.898   3.975  15.415  0.00  0.00    +0.000 NA
ATOM     12  C   UNL     1       5.597   4.289  14.292  0.00  0.00    +0.000 A 
BRANCH   7  14
ATOM     13  O   UNL     1       8.369   5.964  12.909  0.00  0.00    +0.000 OA
ATOM     14  C   UNL     1       7.574   5.052  13.034  0.00  0.00    +0.000 C 
BRANCH  14  15
ATOM     15  O   UNL     1       7.184   4.259  12.010  0.00  0.00    +0.000 OA
ATOM     16  H   UNL     1       6.673   3.467  12.258  0.00  0.00    +0.000 HD
ENDBRANCH  14  15
ENDBRANCH   7  14
ENDBRANCH   2  10
ENDBRANCH   1   5
BRANCH   1  17
ATOM     17  O   UNL     1       0.832   2.619  19.256  0.00  0.00    +0.000 OA
ATOM     18  H   UNL     1      -0.068   2.666  18.891  0.00  0.00    +0.000 HD
ENDBRANCH   1  17
BRANCH   1  19
ATOM     19  C   UNL     1       1.063   4.741  20.369  0.00  0.00    +0.000 C 
BRANCH  19  20
ATOM     20  C   UNL     1       2.153   5.744  20.756  0.00  0.00    +0.000 C 
BRANCH  20  21
ATOM     21  C   UNL     1       1.781   7.139  20.323  0.00  0.00    +0.000 A 
ATOM     22  C   UNL     1       1.087   7.982  21.194  0.00  0.00    +0.000 A 
ATOM     23  C   UNL     1       0.710   9.267  20.789  0.00  0.00    +0.000 A 
ATOM     24  C   UNL     1       1.024   9.760  19.510  0.00  0.00    +0.000 A 
ATOM     25  C   UNL     1       1.725   8.896  18.649  0.00  0.00    +0.000 A 
ATOM     26  C   UNL     1       2.091   7.602  19.044  0.00  0.00    +0.000 A 
BRANCH  24  27
ATOM     27  C   UNL     1       0.629  11.128  19.093  0.00  0.00    +0.000 A 
ATOM     28  C   UNL     1      -0.678  11.411  18.655  0.00  0.00    +0.000 A 
ATOM     29  C   UNL     1      -1.052  12.692  18.235  0.00  0.00    +0.000 A 
ATOM     30  C   UNL     1      -0.126  13.728  18.260  0.00  0.00    +0.000 A 
ATOM     31  C   UNL     1       1.169  13.485  18.703  0.00  0.00    +0.000 A 
ATOM     32  C   UNL     1       1.542  12.199  19.108  0.00  0.00    +0.000 A 
ENDBRANCH  24  27
ENDBRANCH  20  21
ENDBRANCH  19  20
ENDBRANCH   1  19
TORSDOF 9
ENDMDL
MODEL 8
REMARK VINA RESULT:      -8.0      2.861      3.717
REMARK  Name = 
REMARK  9 active torsions:
REMARK  status: ('A' for Active; 'I' for Inactive)
REMARK    1  A    between atoms: C_2  and  O_3
REMARK    2  A    between atoms: C_2  and  C_4
REMARK    3  A    between atoms: C_7  and  C_8
REMARK    4  A    between atoms: C_11  and  C_12
REMARK    5  A    between atoms: C_12  and  O_13
REMARK    6  A    between atoms: C_12  and  C_14
REMARK    7  A    between atoms: C_14  and  C_15
REMARK    8  A    between atoms: C_15  and  C_16
REMARK    9  A    between atoms: C_19  and  C_20
REMARK                            x       y       z     vdW  Elec       q    Type
REMARK                         _______ _______ _______ _____ _____    ______ ____
ROOT
ATOM      1  C   UNL     1       1.507   4.849  19.868  0.00  0.00    +0.000 C 
ENDROOT
BRANCH   1   5
ATOM      2  C   UNL     1       4.549   3.950  18.223  0.00  0.00    +0.000 A 
ATOM      3  C   UNL     1       4.542   3.028  19.243  0.00  0.00    +0.000 A 
ATOM      4  N   UNL     1       3.447   3.218  20.049  0.00  0.00    +0.000 NA
ATOM      5  C   UNL     1       2.828   4.248  19.504  0.00  0.00    +0.000 A 
ATOM      6  O   UNL     1       3.454   4.760  18.398  0.00  0.00    +0.000 OA
BRANCH   2  10
ATOM      7  C   UNL     1       6.818   4.711  14.778  0.00  0.00    +0.000 A 
ATOM      8  C   UNL     1       7.440   4.864  16.018  0.00  0.00    +0.000 A 
ATOM      9  C   UNL     1       6.714   4.590  17.177  0.00  0.00    +0.000 A 
ATOM     10  C   UNL     1       5.383   4.194  17.064  0.00  0.00    +0.000 A 
ATOM     11  N   UNL     1       4.762   4.056  15.866  0.00  0.00    +0.000 NA
ATOM     12  C   UNL     1       5.488   4.329  14.749  0.00  0.00    +0.000 A 
BRANCH   7  14
ATOM     13  O   UNL     1       8.398   5.816  13.405  0.00  0.00    +0.000 OA
ATOM     14  C   UNL     1       7.513   4.987  13.511  0.00  0.00    +0.000 C 
BRANCH  14  15
ATOM     15  O   UNL     1       7.045   4.262  12.469  0.00  0.00    +0.000 OA
ATOM     16  H   UNL     1       7.716   3.778  11.954  0.00  0.00    +0.000 HD
ENDBRANCH  14  15
ENDBRANCH   7  14
ENDBRANCH   2  10
ENDBRANCH   1   5
BRANCH   1  17
ATOM     17  O   UNL     1       0.717   3.843  20.512  0.00  0.00    +0.000 OA
ATOM     18  H   UNL     1       0.005   3.601  19.896  0.00  0.00    +0.000 HD
ENDBRANCH   1  17
BRANCH   1  19
ATOM     19  C   UNL     1       1.642   6.045  20.815  0.00  0.00    +0.000 C 
BRANCH  19  20
ATOM     20  C   UNL     1       2.059   7.334  20.104  0.00  0.00    +0.000 C 
BRANCH  20  21
ATOM     21  C   UNL     1       1.174   8.486  20.510  0.00  0.00    +0.000 A 
ATOM     22  C   UNL     1       0.904   9.515  19.605  0.00  0.00    +0.000 A 
ATOM     23  C   UNL     1       0.110  10.602  19.982  0.00  0.00    +0.000 A 
ATOM     24  C   UNL     1      -0.452  10.695  21.269  0.00  0.00    +0.000 A 
ATOM     25  C   UNL     1      -0.169   9.648  22.164  0.00  0.00    +0.000 A 
ATOM     26  C   UNL     1       0.639   8.563  21.796  0.00  0.00    +0.000 A 
BRANCH  24  27
ATOM     27  C   UNL     1      -1.301  11.848  21.656  0.00  0.00    +0.000 A 
ATOM     28  C   UNL     1      -1.935  12.649  20.688  0.00  0.00    +0.000 A 
ATOM     29  C   UNL     1      -2.715  13.755  21.045  0.00  0.00    +0.000 A 
ATOM     30  C   UNL     1      -2.893  14.075  22.385  0.00  0.00    +0.000 A 
ATOM     31  C   UNL     1      -2.293  13.294  23.366  0.00  0.00    +0.000 A 
ATOM     32  C   UNL     1      -1.502  12.199  23.005  0.00  0.00    +0.000 A 
ENDBRANCH  24  27
ENDBRANCH  20  21
ENDBRANCH  19  20
ENDBRANCH   1  19
TORSDOF 9
ENDMDL
MODEL 9
REMARK VINA RESULT:      -7.9      3.092      4.500
REMARK  Name = 
REMARK  9 active torsions:
REMARK  status: ('A' for Active; 'I' for Inactive)
REMARK    1  A    between atoms: C_2  and  O_3
REMARK    2  A    between atoms: C_2  and  C_4
REMARK    3  A    between atoms: C_7  and  C_8
REMARK    4  A    between atoms: C_11  and  C_12
REMARK    5  A    between atoms: C_12  and  O_13
REMARK    6  A    between atoms: C_12  and  C_14
REMARK    7  A    between atoms: C_14  and  C_15
REMARK    8  A    between atoms: C_15  and  C_16
REMARK    9  A    between atoms: C_19  and  C_20
REMARK                            x       y       z     vdW  Elec       q    Type
REMARK                         _______ _______ _______ _____ _____    ______ ____
ROOT
ATOM      1  C   UNL     1       1.410   3.843  19.101  0.00  0.00    +0.000 C 
ENDROOT
BRANCH   1   5
ATOM      2  C   UNL     1       4.677   3.895  17.653  0.00  0.00    +0.000 A 
ATOM      3  C   UNL     1       4.948   3.263  18.843  0.00  0.00    +0.000 A 
ATOM      4  N   UNL     1       3.808   3.165  19.602  0.00  0.00    +0.000 NA
ATOM      5  C   UNL     1       2.884   3.745  18.859  0.00  0.00    +0.000 A 
ATOM      6  O   UNL     1       3.346   4.233  17.664  0.00  0.00    +0.000 OA
BRANCH   2  10
ATOM      7  C   UNL     1       7.010   4.871  14.307  0.00  0.00    +0.000 A 
ATOM      8  C   UNL     1       6.131   3.794  14.198  0.00  0.00    +0.000 A 
ATOM      9  C   UNL     1       5.324   3.467  15.289  0.00  0.00    +0.000 A 
ATOM     10  C   UNL     1       5.437   4.212  16.461  0.00  0.00    +0.000 A 
ATOM     11  N   UNL     1       6.299   5.252  16.585  0.00  0.00    +0.000 NA
ATOM     12  C   UNL     1       7.076   5.552  15.511  0.00  0.00    +0.000 A 
BRANCH   7  14
ATOM     13  O   UNL     1       8.830   6.044  13.350  0.00  0.00    +0.000 OA
ATOM     14  C   UNL     1       7.899   5.274  13.205  0.00  0.00    +0.000 C 
BRANCH  14  15
ATOM     15  O   UNL     1       7.555   4.740  12.011  0.00  0.00    +0.000 OA
ATOM     16  H   UNL     1       6.928   5.263  11.478  0.00  0.00    +0.000 HD
ENDBRANCH  14  15
ENDBRANCH   7  14
ENDBRANCH   2  10
ENDBRANCH   1   5
BRANCH   1  17
ATOM     17  O   UNL     1       0.901   2.522  19.319  0.00  0.00    +0.000 OA
ATOM     18  H   UNL     1       0.729   2.436  20.272  0.00  0.00    +0.000 HD
ENDBRANCH   1  17
BRANCH   1  19
ATOM     19  C   UNL     1       1.067   4.706  20.318  0.00  0.00    +0.000 C 
BRANCH  19  20
ATOM     20  C   UNL     1       2.174   5.695  20.690  0.00  0.00    +0.000 C 
BRANCH  20  21
ATOM     21  C   UNL     1       1.799   7.101  20.294  0.00  0.00    +0.000 A 
ATOM     22  C   UNL     1       1.121   7.925  21.195  0.00  0.00    +0.000 A 
ATOM     23  C   UNL     1       0.741   9.220  20.826  0.00  0.00    +0.000 A 
ATOM     24  C   UNL     1       1.036   9.740  19.553  0.00  0.00    +0.000 A 
ATOM     25  C   UNL     1       1.720   8.895  18.661  0.00  0.00    +0.000 A 
ATOM     26  C   UNL     1       2.089   7.592  19.021  0.00  0.00    +0.000 A 
BRANCH  24  27
ATOM     27  C   UNL     1       0.637  11.118  19.174  0.00  0.00    +0.000 A 
ATOM     28  C   UNL     1       1.469  12.221  19.442  0.00  0.00    +0.000 A 
ATOM     29  C   UNL     1       1.088  13.527  19.112  0.00  0.00    +0.000 A 
ATOM     30  C   UNL     1      -0.132  13.758  18.489  0.00  0.00    +0.000 A 
ATOM     31  C   UNL     1      -0.970  12.687  18.197  0.00  0.00    +0.000 A 
ATOM     32  C   UNL     1      -0.591  11.386  18.541  0.00  0.00    +0.000 A 
ENDBRANCH  24  27
ENDBRANCH  20  21
ENDBRANCH  19  20
ENDBRANCH   1  19
TORSDOF 9
ENDMDL
