MODEL 1
REMARK VINA RESULT:      -8.4      0.000      0.000
REMARK  Name = 
REMARK  11 active torsions:
REMARK  status: ('A' for Active; 'I' for Inactive)
REMARK    1  A    between atoms: C_1  and  C_2
REMARK    2  A    between atoms: C_2  and  C_3
REMARK    3  A    between atoms: C_3  and  N_4
REMARK    4  A    between atoms: N_4  and  C_5
REMARK    5  A    between atoms: N_4  and  C_24
REMARK    6  A    between atoms: C_5  and  C_6
REMARK    7  A    between atoms: C_6  and  C_7
REMARK    8  A    between atoms: C_7  and  N_8
REMARK    9  A    between atoms: C_15  and  C_16
REMARK   10  A    between atoms: C_24  and  C_25
REMARK   11  A    between atoms: C_25  and  C_26
REMARK                            x       y       z     vdW  Elec       q    Type
REMARK                         _______ _______ _______ _____ _____    ______ ____
ROOT
ATOM      1  C   UNL     1       2.254   5.344  20.955  0.00  0.00    +0.000 C 
ENDROOT
BRANCH   1   2
ATOM      2  N   UNL     1       2.566   6.392  20.000  0.00  0.00    +0.000 N 
ATOM      3  C   UNL     1       1.980   7.610  20.101  0.00  0.00    +0.000 A 
ATOM      4  N   UNL     1       1.821   8.277  18.901  0.00  0.00    +0.000 NA
ATOM      5  C   UNL     1       1.197   9.413  18.907  0.00  0.00    +0.000 A 
ATOM      6  N   UNL     1       0.996  10.135  17.757  0.00  0.00    +0.000 N 
ATOM      7  N   UNL     1       0.720   9.899  20.120  0.00  0.00    +0.000 N 
ATOM      8  N   UNL     1      -0.015  11.012  20.295  0.00  0.00    +0.000 NA
ATOM      9  C   UNL     1      -0.108  11.018  21.636  0.00  0.00    +0.000 A 
ATOM     10  N   UNL     1       0.474   9.944  22.272  0.00  0.00    +0.000 NA
ATOM     11  C   UNL     1       0.960   9.234  21.282  0.00  0.00    +0.000 A 
ATOM     12  N   UNL     1       1.588   8.047  21.263  0.00  0.00    +0.000 NA
ATOM     13  H   UNL     1       2.642   6.097  19.034  0.00  0.00    +0.000 HD
ATOM     14  H   UNL     1       1.130   9.633  16.889  0.00  0.00    +0.000 HD
ATOM     15  H   UNL     1       0.247  10.823  17.774  0.00  0.00    +0.000 HD
BRANCH   9  16
ATOM     16  C   UNL     1      -0.775  12.099  22.410  0.00  0.00    +0.000 A 
ATOM     17  C   UNL     1      -2.008  11.987  23.027  0.00  0.00    +0.000 A 
ATOM     18  C   UNL     1      -2.256  13.224  23.667  0.00  0.00    +0.000 A 
ATOM     19  C   UNL     1      -1.172  14.020  23.386  0.00  0.00    +0.000 A 
ATOM     20  O   UNL     1      -0.265  13.346  22.634  0.00  0.00    +0.000 OA
ENDBRANCH   9  16
ENDBRANCH   1   2
BRANCH   1  21
ATOM     21  C   UNL     1       1.162   4.490  20.344  0.00  0.00    +0.000 C 
BRANCH  21  22
ATOM     22  C   UNL     1       1.256   4.380  18.821  0.00  0.00    +0.000 C 
BRANCH  22  23
ATOM     23  N   UNL     1       1.650   3.033  18.340  0.00  0.00    +0.000 NA
BRANCH  23  24
ATOM     24  C   UNL     1       2.014   2.108  19.432  0.00  0.00    +0.000 C 
BRANCH  24  26
ATOM     25  C   UNL     1       4.234   2.263  20.695  0.00  0.00    +0.000 C 
ATOM     26  C   UNL     1       3.476   1.648  19.529  0.00  0.00    +0.000 C 
ENDBRANCH  24  26
ENDBRANCH  23  24
BRANCH  23  27
ATOM     27  C   UNL     1       2.769   3.153  17.366  0.00  0.00    +0.000 C 
BRANCH  27  28
ATOM     28  C   UNL     1       3.225   4.584  17.039  0.00  0.00    +0.000 C 
BRANCH  28  29
ATOM     29  C   UNL     1       4.713   4.741  17.240  0.00  0.00    +0.000 A 
ATOM     30  C   UNL     1       5.239   4.866  18.537  0.00  0.00    +0.000 A 
ATOM     31  C   UNL     1       6.624   4.993  18.756  0.00  0.00    +0.000 A 
ATOM     32  C   UNL     1       7.519   4.989  17.687  0.00  0.00    +0.000 A 
ATOM     33  C   UNL     1       6.989   4.859  16.422  0.00  0.00    +0.000 A 
ATOM     34  C   UNL     1       5.619   4.737  16.184  0.00  0.00    +0.000 A 
ATOM     35  C   UNL     1       5.396   4.628  14.700  0.00  0.00    +0.000 C 
ATOM     36  C   UNL     1       6.822   4.702  14.143  0.00  0.00    +0.000 C 
ATOM     37  O   UNL     1       7.152   4.650  12.970  0.00  0.00    +0.000 OA
ATOM     38  N   UNL     1       7.684   4.834  15.224  0.00  0.00    +0.000 N 
ATOM     39  H   UNL     1       8.686   4.906  15.119  0.00  0.00    +0.000 HD
ENDBRANCH  28  29
ENDBRANCH  27  28
ENDBRANCH  23  27
ENDBRANCH  22  23
ENDBRANCH  21  22
ENDBRANCH   1  21
TORSDOF 10
ENDMDL
MODEL 2
REMARK VINA RESULT:      -8.0      1.339      1.813
REMARK  Name = 
REMARK  11 active torsions:
REMARK  status: ('A' for Active; 'I' for Inactive)
REMARK    1  A    between atoms: C_1  and  C_2
REMARK    2  A    between atoms: C_2  and  C_3
REMARK    3  A    between atoms: C_3  and  N_4
REMARK    4  A    between atoms: N_4  and  C_5
REMARK    5  A    between atoms: N_4  and  C_24
REMARK    6  A    between atoms: C_5  and  C_6
REMARK    7  A    between atoms: C_6  and  C_7
REMARK    8  A    between atoms: C_7  and  N_8
REMARK    9  A    between atoms: C_15  and  C_16
REMARK   10  A    between atoms: C_24  and  C_25
REMARK   11  A    between atoms: C_25  and  C_26
REMARK                            x       y       z     vdW  Elec       q    Type
REMARK                         _______ _______ _______ _____ _____    ______ ____
ROOT
ATOM      1  C   UNL     1       1.413   7.207  20.816  0.00  0.00    +0.000 C 
ENDROOT
BRANCH   1   2
ATOM      2  N   UNL     1       1.560   8.395  19.995  0.00  0.00    +0.000 N 
ATOM      3  C   UNL     1       0.788   9.486  20.221  0.00  0.00    +0.000 A 
ATOM      4  N   UNL     1       0.531  10.255  19.103  0.00  0.00    +0.000 NA
ATOM      5  C   UNL     1      -0.265  11.271  19.223  0.00  0.00    +0.000 A 
ATOM      6  N   UNL     1      -0.572  12.082  18.160  0.00  0.00    +0.000 N 
ATOM      7  N   UNL     1      -0.819  11.532  20.473  0.00  0.00    +0.000 N 
ATOM      8  N   UNL     1      -1.722  12.487  20.757  0.00  0.00    +0.000 NA
ATOM      9  C   UNL     1      -1.822  12.321  22.088  0.00  0.00    +0.000 A 
ATOM     10  N   UNL     1      -1.080  11.285  22.610  0.00  0.00    +0.000 NA
ATOM     11  C   UNL     1      -0.483  10.781  21.556  0.00  0.00    +0.000 A 
ATOM     12  N   UNL     1       0.326   9.717  21.416  0.00  0.00    +0.000 NA
ATOM     13  H   UNL     1       1.686   8.231  19.004  0.00  0.00    +0.000 HD
ATOM     14  H   UNL     1      -0.357  11.712  17.243  0.00  0.00    +0.000 HD
ATOM     15  H   UNL     1      -1.421  12.637  18.238  0.00  0.00    +0.000 HD
BRANCH   9  16
ATOM     16  C   UNL     1      -2.655  13.186  22.965  0.00  0.00    +0.000 A 
ATOM     17  C   UNL     1      -2.169  14.192  23.779  0.00  0.00    +0.000 A 
ATOM     18  C   UNL     1      -3.289  14.777  24.416  0.00  0.00    +0.000 A 
ATOM     19  C   UNL     1      -4.386  14.081  23.968  0.00  0.00    +0.000 A 
ATOM     20  O   UNL     1      -4.015  13.122  23.082  0.00  0.00    +0.000 OA
ENDBRANCH   9  16
ENDBRANCH   1   2
BRANCH   1  21
ATOM     21  C   UNL     1       2.193   6.096  20.144  0.00  0.00    +0.000 C 
BRANCH  21  22
ATOM     22  C   UNL     1       1.536   4.721  20.282  0.00  0.00    +0.000 C 
BRANCH  22  23
ATOM     23  N   UNL     1       1.678   3.864  19.079  0.00  0.00    +0.000 NA
BRANCH  23  24
ATOM     24  C   UNL     1       2.394   2.600  19.346  0.00  0.00    +0.000 C 
BRANCH  24  26
ATOM     25  C   UNL     1       4.590   1.818  20.401  0.00  0.00    +0.000 C 
ATOM     26  C   UNL     1       3.255   2.515  20.615  0.00  0.00    +0.000 C 
ENDBRANCH  24  26
ENDBRANCH  23  24
BRANCH  23  27
ATOM     27  C   UNL     1       2.356   4.626  17.997  0.00  0.00    +0.000 C 
BRANCH  27  28
ATOM     28  C   UNL     1       3.435   3.863  17.210  0.00  0.00    +0.000 C 
BRANCH  28  29
ATOM     29  C   UNL     1       4.786   4.517  17.367  0.00  0.00    +0.000 A 
ATOM     30  C   UNL     1       5.219   4.946  18.633  0.00  0.00    +0.000 A 
ATOM     31  C   UNL     1       6.482   5.540  18.812  0.00  0.00    +0.000 A 
ATOM     32  C   UNL     1       7.349   5.713  17.734  0.00  0.00    +0.000 A 
ATOM     33  C   UNL     1       6.914   5.283  16.499  0.00  0.00    +0.000 A 
ATOM     34  C   UNL     1       5.663   4.696  16.300  0.00  0.00    +0.000 A 
ATOM     35  C   UNL     1       5.515   4.361  14.841  0.00  0.00    +0.000 C 
ATOM     36  C   UNL     1       6.849   4.836  14.254  0.00  0.00    +0.000 C 
ATOM     37  O   UNL     1       7.198   4.768  13.088  0.00  0.00    +0.000 OA
ATOM     38  N   UNL     1       7.601   5.357  15.298  0.00  0.00    +0.000 N 
ATOM     39  H   UNL     1       8.526   5.740  15.169  0.00  0.00    +0.000 HD
ENDBRANCH  28  29
ENDBRANCH  27  28
ENDBRANCH  23  27
ENDBRANCH  22  23
ENDBRANCH  21  22
ENDBRANCH   1  21
TORSDOF 10
ENDMDL
MODEL 3
REMARK VINA RESULT:      -7.9      1.624      2.379
REMARK  Name = 
REMARK  11 active torsions:
REMARK  status: ('A' for Active; 'I' for Inactive)
REMARK    1  A    between atoms: C_1  and  C_2
REMARK    2  A    between atoms: C_2  and  C_3
REMARK    3  A    between atoms: C_3  and  N_4
REMARK    4  A    between atoms: N_4  and  C_5
REMARK    5  A    between atoms: N_4  and  C_24
REMARK    6  A    between atoms: C_5  and  C_6
REMARK    7  A    between atoms: C_6  and  C_7
REMARK    8  A    between atoms: C_7  and  N_8
REMARK    9  A    between atoms: C_15  and  C_16
REMARK   10  A    between atoms: C_24  and  C_25
REMARK   11  A    between atoms: C_25  and  C_26
REMARK                            x       y       z     vdW  Elec       q    Type
REMARK                         _______ _______ _______ _____ _____    ______ ____
ROOT
ATOM      1  C   UNL     1       1.822   7.797  19.569  0.00  0.00    +0.000 C 
ENDROOT
BRANCH   1   2
ATOM      2  N   UNL     1       1.658   9.064  18.880  0.00  0.00    +0.000 N 
ATOM      3  C   UNL     1       0.750   9.971  19.316  0.00  0.00    +0.000 A 
ATOM      4  N   UNL     1       0.223  10.783  18.330  0.00  0.00    +0.000 NA
ATOM      5  C   UNL     1      -0.709  11.622  18.657  0.00  0.00    +0.000 A 
ATOM      6  N   UNL     1      -1.285  12.461  17.736  0.00  0.00    +0.000 N 
ATOM      7  N   UNL     1      -1.130  11.659  19.982  0.00  0.00    +0.000 N 
ATOM      8  N   UNL     1      -2.135  12.404  20.476  0.00  0.00    +0.000 NA
ATOM      9  C   UNL     1      -2.030  12.099  21.781  0.00  0.00    +0.000 A 
ATOM     10  N   UNL     1      -1.063  11.169  22.092  0.00  0.00    +0.000 NA
ATOM     11  C   UNL     1      -0.533  10.883  20.927  0.00  0.00    +0.000 A 
ATOM     12  N   UNL     1       0.417  10.001  20.574  0.00  0.00    +0.000 NA
ATOM     13  H   UNL     1       1.679   9.020  17.868  0.00  0.00    +0.000 HD
ATOM     14  H   UNL     1      -1.133  12.225  16.764  0.00  0.00    +0.000 HD
ATOM     15  H   UNL     1      -2.197  12.844  17.974  0.00  0.00    +0.000 HD
BRANCH   9  16
ATOM     16  C   UNL     1      -2.875  12.712  22.841  0.00  0.00    +0.000 A 
ATOM     17  C   UNL     1      -2.475  13.736  23.680  0.00  0.00    +0.000 A 
ATOM     18  C   UNL     1      -3.579  14.034  24.512  0.00  0.00    +0.000 A 
ATOM     19  C   UNL     1      -4.577  13.163  24.146  0.00  0.00    +0.000 A 
ATOM     20  O   UNL     1      -4.165  12.364  23.128  0.00  0.00    +0.000 OA
ENDBRANCH   9  16
ENDBRANCH   1   2
BRANCH   1  21
ATOM     21  C   UNL     1       3.006   7.092  18.940  0.00  0.00    +0.000 C 
BRANCH  21  22
ATOM     22  C   UNL     1       2.610   5.900  18.065  0.00  0.00    +0.000 C 
BRANCH  22  23
ATOM     23  N   UNL     1       2.545   4.613  18.800  0.00  0.00    +0.000 NA
BRANCH  23  24
ATOM     24  C   UNL     1       2.905   4.738  20.227  0.00  0.00    +0.000 C 
BRANCH  24  26
ATOM     25  C   UNL     1       0.932   3.189  20.731  0.00  0.00    +0.000 C 
ATOM     26  C   UNL     1       2.247   3.772  21.223  0.00  0.00    +0.000 C 
ENDBRANCH  24  26
ENDBRANCH  23  24
BRANCH  23  27
ATOM     27  C   UNL     1       3.414   3.607  18.131  0.00  0.00    +0.000 C 
BRANCH  27  28
ATOM     28  C   UNL     1       4.831   3.452  18.708  0.00  0.00    +0.000 C 
BRANCH  28  29
ATOM     29  C   UNL     1       5.762   4.503  18.154  0.00  0.00    +0.000 A 
ATOM     30  C   UNL     1       6.322   5.469  19.007  0.00  0.00    +0.000 A 
ATOM     31  C   UNL     1       7.208   6.449  18.522  0.00  0.00    +0.000 A 
ATOM     32  C   UNL     1       7.566   6.483  17.175  0.00  0.00    +0.000 A 
ATOM     33  C   UNL     1       7.014   5.527  16.351  0.00  0.00    +0.000 A 
ATOM     34  C   UNL     1       6.129   4.550  16.812  0.00  0.00    +0.000 A 
ATOM     35  C   UNL     1       5.717   3.687  15.651  0.00  0.00    +0.000 C 
ATOM     36  C   UNL     1       6.492   4.308  14.483  0.00  0.00    +0.000 C 
ATOM     37  O   UNL     1       6.481   3.938  13.321  0.00  0.00    +0.000 OA
ATOM     38  N   UNL     1       7.222   5.374  14.990  0.00  0.00    +0.000 N 
ATOM     39  H   UNL     1       7.818   5.952  14.415  0.00  0.00    +0.000 HD
ENDBRANCH  28  29
ENDBRANCH  27  28
ENDBRANCH  23  27
ENDBRANCH  22  23
ENDBRANCH  21  22
ENDBRANCH   1  21
TORSDOF 10
ENDMDL
MODEL 4
REMARK VINA RESULT:      -7.7      6.529     10.580
REMARK  Name = 
REMARK  11 active torsions:
REMARK  status: ('A' for Active; 'I' for Inactive)
REMARK    1  A    between atoms: C_1  and  C_2
REMARK    2  A    between atoms: C_2  and  C_3
REMARK    3  A    between atoms: C_3  and  N_4
REMARK    4  A    between atoms: N_4  and  C_5
REMARK    5  A    between atoms: N_4  and  C_24
REMARK    6  A    between atoms: C_5  and  C_6
REMARK    7  A    between atoms: C_6  and  C_7
REMARK    8  A    between atoms: C_7  and  N_8
REMARK    9  A    between atoms: C_15  and  C_16
REMARK   10  A    between atoms: C_24  and  C_25
REMARK   11  A    between atoms: C_25  and  C_26
REMARK                            x       y       z     vdW  Elec       q    Type
REMARK                         _______ _______ _______ _____ _____    ______ ____
ROOT
ATOM      1  C   UNL     1       8.436   8.205  18.352  0.00  0.00    +0.000 C 
ENDROOT
BRANCH   1   2
ATOM      2  N   UNL     1       8.029   7.680  17.061  0.00  0.00    +0.000 N 
ATOM      3  C   UNL     1       7.090   6.705  16.981  0.00  0.00    +0.000 A 
ATOM      4  N   UNL     1       7.220   5.864  15.892  0.00  0.00    +0.000 NA
ATOM      5  C   UNL     1       6.407   4.860  15.789  0.00  0.00    +0.000 A 
ATOM      6  N   UNL     1       6.472   3.979  14.739  0.00  0.00    +0.000 N 
ATOM      7  N   UNL     1       5.448   4.682  16.781  0.00  0.00    +0.000 N 
ATOM      8  N   UNL     1       4.584   3.656  16.875  0.00  0.00    +0.000 NA
ATOM      9  C   UNL     1       3.875   4.048  17.949  0.00  0.00    +0.000 A 
ATOM     10  N   UNL     1       4.301   5.216  18.540  0.00  0.00    +0.000 NA
ATOM     11  C   UNL     1       5.321   5.576  17.799  0.00  0.00    +0.000 A 
ATOM     12  N   UNL     1       6.183   6.601  17.908  0.00  0.00    +0.000 NA
ATOM     13  H   UNL     1       8.777   7.529  16.394  0.00  0.00    +0.000 HD
ATOM     14  H   UNL     1       7.325   3.999  14.195  0.00  0.00    +0.000 HD
ATOM     15  H   UNL     1       6.045   3.067  14.881  0.00  0.00    +0.000 HD
BRANCH   9  16
ATOM     16  C   UNL     1       2.702   3.302  18.478  0.00  0.00    +0.000 A 
ATOM     17  C   UNL     1       1.389   3.524  18.106  0.00  0.00    +0.000 A 
ATOM     18  C   UNL     1       0.601   2.591  18.821  0.00  0.00    +0.000 A 
ATOM     19  C   UNL     1       1.477   1.873  19.598  0.00  0.00    +0.000 A 
ATOM     20  O   UNL     1       2.753   2.288  19.392  0.00  0.00    +0.000 OA
ENDBRANCH   9  16
ENDBRANCH   1   2
BRANCH   1  21
ATOM     21  C   UNL     1       8.518   9.712  18.219  0.00  0.00    +0.000 C 
BRANCH  21  22
ATOM     22  C   UNL     1       9.347  10.375  19.321  0.00  0.00    +0.000 C 
BRANCH  22  23
ATOM     23  N   UNL     1      10.155  11.529  18.852  0.00  0.00    +0.000 NA
BRANCH  23  24
ATOM     24  C   UNL     1      10.608  12.407  19.950  0.00  0.00    +0.000 C 
BRANCH  24  26
ATOM     25  C   UNL     1       8.617  13.065  21.416  0.00  0.00    +0.000 C 
ATOM     26  C   UNL     1       9.911  12.273  21.312  0.00  0.00    +0.000 C 
ENDBRANCH  24  26
ENDBRANCH  23  24
BRANCH  23  27
ATOM     27  C   UNL     1       9.382  12.308  17.848  0.00  0.00    +0.000 C 
BRANCH  27  28
ATOM     28  C   UNL     1       9.606  13.829  17.860  0.00  0.00    +0.000 C 
BRANCH  28  29
ATOM     29  C   UNL     1       8.315  14.568  18.117  0.00  0.00    +0.000 A 
ATOM     30  C   UNL     1       7.101  14.058  17.625  0.00  0.00    +0.000 A 
ATOM     31  C   UNL     1       5.881  14.715  17.867  0.00  0.00    +0.000 A 
ATOM     32  C   UNL     1       5.838  15.892  18.614  0.00  0.00    +0.000 A 
ATOM     33  C   UNL     1       7.035  16.377  19.095  0.00  0.00    +0.000 A 
ATOM     34  C   UNL     1       8.257  15.743  18.862  0.00  0.00    +0.000 A 
ATOM     35  C   UNL     1       9.348  16.546  19.516  0.00  0.00    +0.000 C 
ATOM     36  C   UNL     1       8.573  17.707  20.148  0.00  0.00    +0.000 C 
ATOM     37  O   UNL     1       9.039  18.627  20.799  0.00  0.00    +0.000 OA
ATOM     38  N   UNL     1       7.229  17.521  19.850  0.00  0.00    +0.000 N 
ATOM     39  H   UNL     1       6.508  18.159  20.154  0.00  0.00    +0.000 HD
ENDBRANCH  28  29
ENDBRANCH  27  28
ENDBRANCH  23  27
ENDBRANCH  22  23
ENDBRANCH  21  22
ENDBRANCH   1  21
TORSDOF 10
ENDMDL
MODEL 5
REMARK VINA RESULT:      -7.7      3.592     10.396
REMARK  Name = 
REMARK  11 active torsions:
REMARK  status: ('A' for Active; 'I' for Inactive)
REMARK    1  A    between atoms: C_1  and  C_2
REMARK    2  A    between atoms: C_2  and  C_3
REMARK    3  A    between atoms: C_3  and  N_4
REMARK    4  A    between atoms: N_4  and  C_5
REMARK    5  A    between atoms: N_4  and  C_24
REMARK    6  A    between atoms: C_5  and  C_6
REMARK    7  A    between atoms: C_6  and  C_7
REMARK    8  A    between atoms: C_7  and  N_8
REMARK    9  A    between atoms: C_15  and  C_16
REMARK   10  A    between atoms: C_24  and  C_25
REMARK   11  A    between atoms: C_25  and  C_26
REMARK                            x       y       z     vdW  Elec       q    Type
REMARK                         _______ _______ _______ _____ _____    ______ ____
ROOT
ATOM      1  C   UNL     1       1.489   7.620  19.201  0.00  0.00    +0.000 C 
ENDROOT
BRANCH   1   2
ATOM      2  N   UNL     1       2.589   6.871  19.781  0.00  0.00    +0.000 N 
ATOM      3  C   UNL     1       3.466   6.212  18.984  0.00  0.00    +0.000 A 
ATOM      4  N   UNL     1       4.032   5.086  19.552  0.00  0.00    +0.000 NA
ATOM      5  C   UNL     1       4.820   4.359  18.825  0.00  0.00    +0.000 A 
ATOM      6  N   UNL     1       5.418   3.225  19.315  0.00  0.00    +0.000 N 
ATOM      7  N   UNL     1       5.053   4.749  17.510  0.00  0.00    +0.000 N 
ATOM      8  N   UNL     1       5.771   4.073  16.596  0.00  0.00    +0.000 NA
ATOM      9  C   UNL     1       5.717   4.940  15.571  0.00  0.00    +0.000 A 
ATOM     10  N   UNL     1       4.958   6.068  15.793  0.00  0.00    +0.000 NA
ATOM     11  C   UNL     1       4.521   5.901  17.018  0.00  0.00    +0.000 A 
ATOM     12  N   UNL     1       3.689   6.636  17.774  0.00  0.00    +0.000 NA
ATOM     13  H   UNL     1       2.366   6.333  20.609  0.00  0.00    +0.000 HD
ATOM     14  H   UNL     1       5.027   2.851  20.170  0.00  0.00    +0.000 HD
ATOM     15  H   UNL     1       5.745   2.548  18.630  0.00  0.00    +0.000 HD
BRANCH   9  16
ATOM     16  C   UNL     1       6.424   4.733  14.279  0.00  0.00    +0.000 A 
ATOM     17  C   UNL     1       6.092   3.775  13.338  0.00  0.00    +0.000 A 
ATOM     18  C   UNL     1       6.993   3.936  12.258  0.00  0.00    +0.000 A 
ATOM     19  C   UNL     1       7.830   4.966  12.614  0.00  0.00    +0.000 A 
ATOM     20  O   UNL     1       7.489   5.463  13.831  0.00  0.00    +0.000 OA
ENDBRANCH   9  16
ENDBRANCH   1   2
BRANCH   1  21
ATOM     21  C   UNL     1       1.966   9.045  19.010  0.00  0.00    +0.000 C 
BRANCH  21  22
ATOM     22  C   UNL     1       0.848  10.014  18.618  0.00  0.00    +0.000 C 
BRANCH  22  23
ATOM     23  N   UNL     1       0.321  10.812  19.752  0.00  0.00    +0.000 NA
BRANCH  23  24
ATOM     24  C   UNL     1       0.823  10.359  21.065  0.00  0.00    +0.000 C 
BRANCH  24  26
ATOM     25  C   UNL     1       0.007   9.449  23.312  0.00  0.00    +0.000 C 
ATOM     26  C   UNL     1      -0.076  10.573  22.292  0.00  0.00    +0.000 C 
ENDBRANCH  24  26
ENDBRANCH  23  24
BRANCH  23  27
ATOM     27  C   UNL     1      -1.167  10.794  19.730  0.00  0.00    +0.000 C 
BRANCH  27  28
ATOM     28  C   UNL     1      -1.852  12.136  19.424  0.00  0.00    +0.000 C 
BRANCH  28  29
ATOM     29  C   UNL     1      -3.193  11.924  18.764  0.00  0.00    +0.000 A 
ATOM     30  C   UNL     1      -4.375  12.252  19.449  0.00  0.00    +0.000 A 
ATOM     31  C   UNL     1      -5.638  12.083  18.850  0.00  0.00    +0.000 A 
ATOM     32  C   UNL     1      -5.752  11.593  17.550  0.00  0.00    +0.000 A 
ATOM     33  C   UNL     1      -4.585  11.281  16.889  0.00  0.00    +0.000 A 
ATOM     34  C   UNL     1      -3.323  11.436  17.466  0.00  0.00    +0.000 A 
ATOM     35  C   UNL     1      -2.282  10.992  16.476  0.00  0.00    +0.000 C 
ATOM     36  C   UNL     1      -3.129  10.573  15.269  0.00  0.00    +0.000 C 
ATOM     37  O   UNL     1      -2.720  10.142  14.204  0.00  0.00    +0.000 OA
ATOM     38  N   UNL     1      -4.461  10.780  15.603  0.00  0.00    +0.000 N 
ATOM     39  H   UNL     1      -5.221  10.576  14.972  0.00  0.00    +0.000 HD
ENDBRANCH  28  29
ENDBRANCH  27  28
ENDBRANCH  23  27
ENDBRANCH  22  23
ENDBRANCH  21  22
ENDBRANCH   1  21
TORSDOF 10
ENDMDL
MODEL 6
REMARK VINA RESULT:      -7.7      2.735      3.534
REMARK  Name = 
REMARK  11 active torsions:
REMARK  status: ('A' for Active; 'I' for Inactive)
REMARK    1  A    between atoms: C_1  and  C_2
REMARK    2  A    between atoms: C_2  and  C_3
REMARK    3  A    between atoms: C_3  and  N_4
REMARK    4  A    between atoms: N_4  and  C_5
REMARK    5  A    between atoms: N_4  and  C_24
REMARK    6  A    between atoms: C_5  and  C_6
REMARK    7  A    between atoms: C_6  and  C_7
REMARK    8  A    between atoms: C_7  and  N_8
REMARK    9  A    between atoms: C_15  and  C_16
REMARK   10  A    between atoms: C_24  and  C_25
REMARK   11  A    between atoms: C_25  and  C_26
REMARK                            x       y       z     vdW  Elec       q    Type
REMARK                         _______ _______ _______ _____ _____    ______ ____
ROOT
ATOM      1  C   UNL     1       2.869   8.179  17.840  0.00  0.00    +0.000 C 
ENDROOT
BRANCH   1   2
ATOM      2  N   UNL     1       1.512   8.694  17.808  0.00  0.00    +0.000 N 
ATOM      3  C   UNL     1       1.248   9.961  18.212  0.00  0.00    +0.000 A 
ATOM      4  N   UNL     1      -0.016  10.149  18.738  0.00  0.00    +0.000 NA
ATOM      5  C   UNL     1      -0.315  11.315  19.219  0.00  0.00    +0.000 A 
ATOM      6  N   UNL     1      -1.548  11.581  19.761  0.00  0.00    +0.000 N 
ATOM      7  N   UNL     1       0.652  12.314  19.181  0.00  0.00    +0.000 N 
ATOM      8  N   UNL     1       0.541  13.547  19.705  0.00  0.00    +0.000 NA
ATOM      9  C   UNL     1       1.712  14.074  19.305  0.00  0.00    +0.000 A 
ATOM     10  N   UNL     1       2.544  13.213  18.625  0.00  0.00    +0.000 NA
ATOM     11  C   UNL     1       1.860  12.094  18.594  0.00  0.00    +0.000 A 
ATOM     12  N   UNL     1       2.168  10.876  18.118  0.00  0.00    +0.000 NA
ATOM     13  H   UNL     1       0.791   8.051  18.113  0.00  0.00    +0.000 HD
ATOM     14  H   UNL     1      -2.113  10.775  19.995  0.00  0.00    +0.000 HD
ATOM     15  H   UNL     1      -1.607  12.376  20.392  0.00  0.00    +0.000 HD
BRANCH   9  16
ATOM     16  C   UNL     1       2.105  15.487  19.552  0.00  0.00    +0.000 A 
ATOM     17  C   UNL     1       1.226  16.551  19.638  0.00  0.00    +0.000 A 
ATOM     18  C   UNL     1       2.005  17.702  19.905  0.00  0.00    +0.000 A 
ATOM     19  C   UNL     1       3.311  17.275  19.944  0.00  0.00    +0.000 A 
ATOM     20  O   UNL     1       3.382  15.934  19.742  0.00  0.00    +0.000 OA
ENDBRANCH   9  16
ENDBRANCH   1   2
BRANCH   1  21
ATOM     21  C   UNL     1       2.776   6.672  17.960  0.00  0.00    +0.000 C 
BRANCH  21  22
ATOM     22  C   UNL     1       2.589   6.186  19.399  0.00  0.00    +0.000 C 
BRANCH  22  23
ATOM     23  N   UNL     1       2.584   4.709  19.538  0.00  0.00    +0.000 NA
BRANCH  23  24
ATOM     24  C   UNL     1       1.588   4.220  20.513  0.00  0.00    +0.000 C 
BRANCH  24  26
ATOM     25  C   UNL     1       0.985   2.468  18.749  0.00  0.00    +0.000 C 
ATOM     26  C   UNL     1       0.586   3.155  20.046  0.00  0.00    +0.000 C 
ENDBRANCH  24  26
ENDBRANCH  23  24
BRANCH  23  27
ATOM     27  C   UNL     1       3.945   4.234  19.903  0.00  0.00    +0.000 C 
BRANCH  27  28
ATOM     28  C   UNL     1       4.763   3.598  18.767  0.00  0.00    +0.000 C 
BRANCH  28  29
ATOM     29  C   UNL     1       5.753   4.583  18.193  0.00  0.00    +0.000 A 
ATOM     30  C   UNL     1       6.378   5.523  19.030  0.00  0.00    +0.000 A 
ATOM     31  C   UNL     1       7.319   6.440  18.525  0.00  0.00    +0.000 A 
ATOM     32  C   UNL     1       7.668   6.436  17.176  0.00  0.00    +0.000 A 
ATOM     33  C   UNL     1       7.052   5.505  16.368  0.00  0.00    +0.000 A 
ATOM     34  C   UNL     1       6.112   4.591  16.847  0.00  0.00    +0.000 A 
ATOM     35  C   UNL     1       5.639   3.741  15.701  0.00  0.00    +0.000 C 
ATOM     36  C   UNL     1       6.442   4.298  14.520  0.00  0.00    +0.000 C 
ATOM     37  O   UNL     1       6.399   3.916  13.363  0.00  0.00    +0.000 OA
ATOM     38  N   UNL     1       7.240   5.324  15.008  0.00  0.00    +0.000 N 
ATOM     39  H   UNL     1       7.866   5.857  14.421  0.00  0.00    +0.000 HD
ENDBRANCH  28  29
ENDBRANCH  27  28
ENDBRANCH  23  27
ENDBRANCH  22  23
ENDBRANCH  21  22
ENDBRANCH   1  21
TORSDOF 10
ENDMDL
MODEL 7
REMARK VINA RESULT:      -7.7      2.173      3.105
REMARK  Name = 
REMARK  11 active torsions:
REMARK  status: ('A' for Active; 'I' for Inactive)
REMARK    1  A    between atoms: C_1  and  C_2
REMARK    2  A    between atoms: C_2  and  C_3
REMARK    3  A    between atoms: C_3  and  N_4
REMARK    4  A    between atoms: N_4  and  C_5
REMARK    5  A    between atoms: N_4  and  C_24
REMARK    6  A    between atoms: C_5  and  C_6
REMARK    7  A    between atoms: C_6  and  C_7
REMARK    8  A    between atoms: C_7  and  N_8
REMARK    9  A    between atoms: C_15  and  C_16
REMARK   10  A    between atoms: C_24  and  C_25
REMARK   11  A    between atoms: C_25  and  C_26
REMARK                            x       y       z     vdW  Elec       q    Type
REMARK                         _______ _______ _______ _____ _____    ______ ____
ROOT
ATOM      1  C   UNL     1       2.942   6.906  19.195  0.00  0.00    +0.000 C 
ENDROOT
BRANCH   1   2
ATOM      2  N   UNL     1       1.932   6.966  20.235  0.00  0.00    +0.000 N 
ATOM      3  C   UNL     1       1.377   8.152  20.588  0.00  0.00    +0.000 A 
ATOM      4  N   UNL     1       0.960   8.228  21.903  0.00  0.00    +0.000 NA
ATOM      5  C   UNL     1       0.492   9.357  22.336  0.00  0.00    +0.000 A 
ATOM      6  N   UNL     1       0.059   9.514  23.628  0.00  0.00    +0.000 N 
ATOM      7  N   UNL     1       0.437  10.431  21.454  0.00  0.00    +0.000 N 
ATOM      8  N   UNL     1       0.060  11.686  21.754  0.00  0.00    +0.000 NA
ATOM      9  C   UNL     1       0.126  12.246  20.534  0.00  0.00    +0.000 A 
ATOM     10  N   UNL     1       0.579  11.419  19.530  0.00  0.00    +0.000 NA
ATOM     11  C   UNL     1       0.801  10.285  20.151  0.00  0.00    +0.000 A 
ATOM     12  N   UNL     1       1.305   9.117  19.718  0.00  0.00    +0.000 NA
ATOM     13  H   UNL     1       2.101   6.382  21.046  0.00  0.00    +0.000 HD
ATOM     14  H   UNL     1       0.351   8.800  24.284  0.00  0.00    +0.000 HD
ATOM     15  H   UNL     1       0.015  10.466  23.983  0.00  0.00    +0.000 HD
BRANCH   9  16
ATOM     16  C   UNL     1      -0.265  13.653  20.251  0.00  0.00    +0.000 A 
ATOM     17  C   UNL     1       0.200  14.407  19.189  0.00  0.00    +0.000 A 
ATOM     18  C   UNL     1      -0.437  15.668  19.276  0.00  0.00    +0.000 A 
ATOM     19  C   UNL     1      -1.234  15.613  20.394  0.00  0.00    +0.000 A 
ATOM     20  O   UNL     1      -1.146  14.395  20.987  0.00  0.00    +0.000 OA
ENDBRANCH   9  16
ENDBRANCH   1   2
BRANCH   1  21
ATOM     21  C   UNL     1       2.470   5.900  18.165  0.00  0.00    +0.000 C 
BRANCH  21  22
ATOM     22  C   UNL     1       1.436   4.912  18.711  0.00  0.00    +0.000 C 
BRANCH  22  23
ATOM     23  N   UNL     1       1.599   3.529  18.199  0.00  0.00    +0.000 NA
BRANCH  23  24
ATOM     24  C   UNL     1       2.085   2.583  19.224  0.00  0.00    +0.000 C 
BRANCH  24  26
ATOM     25  C   UNL     1       2.375   2.971  21.736  0.00  0.00    +0.000 C 
ATOM     26  C   UNL     1       1.420   2.616  20.607  0.00  0.00    +0.000 C 
ENDBRANCH  24  26
ENDBRANCH  23  24
BRANCH  23  27
ATOM     27  C   UNL     1       2.509   3.533  17.022  0.00  0.00    +0.000 C 
BRANCH  27  28
ATOM     28  C   UNL     1       3.882   2.874  17.231  0.00  0.00    +0.000 C 
BRANCH  28  29
ATOM     29  C   UNL     1       4.993   3.757  16.715  0.00  0.00    +0.000 A 
ATOM     30  C   UNL     1       5.148   3.960  15.333  0.00  0.00    +0.000 A 
ATOM     31  C   UNL     1       6.162   4.794  14.825  0.00  0.00    +0.000 A 
ATOM     32  C   UNL     1       7.040   5.453  15.684  0.00  0.00    +0.000 A 
ATOM     33  C   UNL     1       6.873   5.249  17.036  0.00  0.00    +0.000 A 
ATOM     34  C   UNL     1       5.878   4.422  17.559  0.00  0.00    +0.000 A 
ATOM     35  C   UNL     1       5.992   4.421  19.059  0.00  0.00    +0.000 C 
ATOM     36  C   UNL     1       7.180   5.358  19.303  0.00  0.00    +0.000 C 
ATOM     37  O   UNL     1       7.651   5.674  20.382  0.00  0.00    +0.000 OA
ATOM     38  N   UNL     1       7.627   5.794  18.063  0.00  0.00    +0.000 N 
ATOM     39  H   UNL     1       8.408   6.424  17.953  0.00  0.00    +0.000 HD
ENDBRANCH  28  29
ENDBRANCH  27  28
ENDBRANCH  23  27
ENDBRANCH  22  23
ENDBRANCH  21  22
ENDBRANCH   1  21
TORSDOF 10
ENDMDL
MODEL 8
REMARK VINA RESULT:      -7.7      1.724      2.604
REMARK  Name = 
REMARK  11 active torsions:
REMARK  status: ('A' for Active; 'I' for Inactive)
REMARK    1  A    between atoms: C_1  and  C_2
REMARK    2  A    between atoms: C_2  and  C_3
REMARK    3  A    between atoms: C_3  and  N_4
REMARK    4  A    between atoms: N_4  and  C_5
REMARK    5  A    between atoms: N_4  and  C_24
REMARK    6  A    between atoms: C_5  and  C_6
REMARK    7  A    between atoms: C_6  and  C_7
REMARK    8  A    between atoms: C_7  and  N_8
REMARK    9  A    between atoms: C_15  and  C_16
REMARK   10  A    between atoms: C_24  and  C_25
REMARK   11  A    between atoms: C_25  and  C_26
REMARK                            x       y       z     vdW  Elec       q    Type
REMARK                         _______ _______ _______ _____ _____    ______ ____
ROOT
ATOM      1  C   UNL     1       1.954   8.206  17.645  0.00  0.00    +0.000 C 
ENDROOT
BRANCH   1   2
ATOM      2  N   UNL     1       2.439   9.538  17.958  0.00  0.00    +0.000 N 
ATOM      3  C   UNL     1       1.657  10.413  18.638  0.00  0.00    +0.000 A 
ATOM      4  N   UNL     1       1.888  11.744  18.348  0.00  0.00    +0.000 NA
ATOM      5  C   UNL     1       1.126  12.635  18.898  0.00  0.00    +0.000 A 
ATOM      6  N   UNL     1       1.290  13.977  18.660  0.00  0.00    +0.000 N 
ATOM      7  N   UNL     1       0.115  12.205  19.752  0.00  0.00    +0.000 N 
ATOM      8  N   UNL     1      -0.812  12.981  20.340  0.00  0.00    +0.000 NA
ATOM      9  C   UNL     1      -1.447  12.060  21.084  0.00  0.00    +0.000 A 
ATOM     10  N   UNL     1      -0.997  10.767  20.931  0.00  0.00    +0.000 NA
ATOM     11  C   UNL     1      -0.030  10.886  20.054  0.00  0.00    +0.000 A 
ATOM     12  N   UNL     1       0.751   9.968  19.460  0.00  0.00    +0.000 NA
ATOM     13  H   UNL     1       2.956  10.002  17.220  0.00  0.00    +0.000 HD
ATOM     14  H   UNL     1       1.856  14.218  17.856  0.00  0.00    +0.000 HD
ATOM     15  H   UNL     1       0.491  14.576  18.850  0.00  0.00    +0.000 HD
BRANCH   9  16
ATOM     16  C   UNL     1      -2.554  12.381  22.024  0.00  0.00    +0.000 A 
ATOM     17  C   UNL     1      -2.556  12.089  23.376  0.00  0.00    +0.000 A 
ATOM     18  C   UNL     1      -3.775  12.584  23.897  0.00  0.00    +0.000 A 
ATOM     19  C   UNL     1      -4.450  13.128  22.831  0.00  0.00    +0.000 A 
ATOM     20  O   UNL     1      -3.716  13.019  21.694  0.00  0.00    +0.000 OA
ENDBRANCH   9  16
ENDBRANCH   1   2
BRANCH   1  21
ATOM     21  C   UNL     1       2.991   7.221  18.145  0.00  0.00    +0.000 C 
BRANCH  21  22
ATOM     22  C   UNL     1       2.517   6.395  19.343  0.00  0.00    +0.000 C 
BRANCH  22  23
ATOM     23  N   UNL     1       2.705   4.932  19.175  0.00  0.00    +0.000 NA
BRANCH  23  24
ATOM     24  C   UNL     1       1.493   4.150  19.489  0.00  0.00    +0.000 C 
BRANCH  24  26
ATOM     25  C   UNL     1       2.083   2.536  17.593  0.00  0.00    +0.000 C 
ATOM     26  C   UNL     1       1.398   2.719  18.938  0.00  0.00    +0.000 C 
ENDBRANCH  24  26
ENDBRANCH  23  24
BRANCH  23  27
ATOM     27  C   UNL     1       3.849   4.475  20.009  0.00  0.00    +0.000 C 
BRANCH  27  28
ATOM     28  C   UNL     1       4.971   3.734  19.263  0.00  0.00    +0.000 C 
BRANCH  28  29
ATOM     29  C   UNL     1       5.842   4.698  18.495  0.00  0.00    +0.000 A 
ATOM     30  C   UNL     1       6.680   5.594  19.182  0.00  0.00    +0.000 A 
ATOM     31  C   UNL     1       7.516   6.490  18.492  0.00  0.00    +0.000 A 
ATOM     32  C   UNL     1       7.546   6.509  17.098  0.00  0.00    +0.000 A 
ATOM     33  C   UNL     1       6.725   5.623  16.437  0.00  0.00    +0.000 A 
ATOM     34  C   UNL     1       5.884   4.730  17.103  0.00  0.00    +0.000 A 
ATOM     35  C   UNL     1       5.127   3.927  16.081  0.00  0.00    +0.000 C 
ATOM     36  C   UNL     1       5.660   4.488  14.757  0.00  0.00    +0.000 C 
ATOM     37  O   UNL     1       5.338   4.138  13.634  0.00  0.00    +0.000 OA
ATOM     38  N   UNL     1       6.589   5.471  15.067  0.00  0.00    +0.000 N 
ATOM     39  H   UNL     1       7.084   5.997  14.362  0.00  0.00    +0.000 HD
ENDBRANCH  28  29
ENDBRANCH  27  28
ENDBRANCH  23  27
ENDBRANCH  22  23
ENDBRANCH  21  22
ENDBRANCH   1  21
TORSDOF 10
ENDMDL
MODEL 9
REMARK VINA RESULT:      -7.6      3.484     10.514
REMARK  Name = 
REMARK  11 active torsions:
REMARK  status: ('A' for Active; 'I' for Inactive)
REMARK    1  A    between atoms: C_1  and  C_2
REMARK    2  A    between atoms: C_2  and  C_3
REMARK    3  A    between atoms: C_3  and  N_4
REMARK    4  A    between atoms: N_4  and  C_5
REMARK    5  A    between atoms: N_4  and  C_24
REMARK    6  A    between atoms: C_5  and  C_6
REMARK    7  A    between atoms: C_6  and  C_7
REMARK    8  A    between atoms: C_7  and  N_8
REMARK    9  A    between atoms: C_15  and  C_16
REMARK   10  A    between atoms: C_24  and  C_25
REMARK   11  A    between atoms: C_25  and  C_26
REMARK                            x       y       z     vdW  Elec       q    Type
REMARK                         _______ _______ _______ _____ _____    ______ ____
ROOT
ATOM      1  C   UNL     1       1.152   6.490  20.409  0.00  0.00    +0.000 C 
ENDROOT
BRANCH   1   2
ATOM      2  N   UNL     1       2.249   5.635  20.826  0.00  0.00    +0.000 N 
ATOM      3  C   UNL     1       3.084   5.092  19.906  0.00  0.00    +0.000 A 
ATOM      4  N   UNL     1       3.636   3.879  20.269  0.00  0.00    +0.000 NA
ATOM      5  C   UNL     1       4.382   3.259  19.410  0.00  0.00    +0.000 A 
ATOM      6  N   UNL     1       4.965   2.050  19.694  0.00  0.00    +0.000 N 
ATOM      7  N   UNL     1       4.587   3.849  18.166  0.00  0.00    +0.000 N 
ATOM      8  N   UNL     1       5.260   3.311  17.134  0.00  0.00    +0.000 NA
ATOM      9  C   UNL     1       5.198   4.332  16.261  0.00  0.00    +0.000 A 
ATOM     10  N   UNL     1       4.477   5.426  16.685  0.00  0.00    +0.000 NA
ATOM     11  C   UNL     1       4.072   5.076  17.882  0.00  0.00    +0.000 A 
ATOM     12  N   UNL     1       3.282   5.699  18.772  0.00  0.00    +0.000 NA
ATOM     13  H   UNL     1       2.036   4.976  21.565  0.00  0.00    +0.000 HD
ATOM     14  H   UNL     1       4.589   1.552  20.491  0.00  0.00    +0.000 HD
ATOM     15  H   UNL     1       5.253   1.484  18.900  0.00  0.00    +0.000 HD
BRANCH   9  16
ATOM     16  C   UNL     1       5.862   4.318  14.930  0.00  0.00    +0.000 A 
ATOM     17  C   UNL     1       7.026   4.996  14.617  0.00  0.00    +0.000 A 
ATOM     18  C   UNL     1       7.322   4.695  13.267  0.00  0.00    +0.000 A 
ATOM     19  C   UNL     1       6.311   3.871  12.833  0.00  0.00    +0.000 A 
ATOM     20  O   UNL     1       5.427   3.628  13.834  0.00  0.00    +0.000 OA
ENDBRANCH   9  16
ENDBRANCH   1   2
BRANCH   1  21
ATOM     21  C   UNL     1       1.326   7.820  21.114  0.00  0.00    +0.000 C 
BRANCH  21  22
ATOM     22  C   UNL     1       1.381   9.013  20.157  0.00  0.00    +0.000 C 
BRANCH  22  23
ATOM     23  N   UNL     1       0.439  10.105  20.504  0.00  0.00    +0.000 NA
BRANCH  23  24
ATOM     24  C   UNL     1      -0.539   9.721  21.542  0.00  0.00    +0.000 C 
BRANCH  24  26
ATOM     25  C   UNL     1      -1.058  11.878  22.817  0.00  0.00    +0.000 C 
ATOM     26  C   UNL     1      -0.495  10.467  22.884  0.00  0.00    +0.000 C 
ENDBRANCH  24  26
ENDBRANCH  23  24
BRANCH  23  27
ATOM     27  C   UNL     1      -0.260  10.575  19.278  0.00  0.00    +0.000 C 
BRANCH  27  28
ATOM     28  C   UNL     1      -1.752  10.912  19.442  0.00  0.00    +0.000 C 
BRANCH  28  29
ATOM     29  C   UNL     1      -2.482  10.799  18.126  0.00  0.00    +0.000 A 
ATOM     30  C   UNL     1      -1.897  10.106  17.052  0.00  0.00    +0.000 A 
ATOM     31  C   UNL     1      -2.563   9.968  15.820  0.00  0.00    +0.000 A 
ATOM     32  C   UNL     1      -3.834  10.509  15.631  0.00  0.00    +0.000 A 
ATOM     33  C   UNL     1      -4.398  11.181  16.694  0.00  0.00    +0.000 A 
ATOM     34  C   UNL     1      -3.751  11.333  17.922  0.00  0.00    +0.000 A 
ATOM     35  C   UNL     1      -4.643  12.123  18.840  0.00  0.00    +0.000 C 
ATOM     36  C   UNL     1      -5.873  12.387  17.965  0.00  0.00    +0.000 C 
ATOM     37  O   UNL     1      -6.879  12.997  18.284  0.00  0.00    +0.000 OA
ATOM     38  N   UNL     1      -5.638  11.797  16.730  0.00  0.00    +0.000 N 
ATOM     39  H   UNL     1      -6.303  11.833  15.971  0.00  0.00    +0.000 HD
ENDBRANCH  28  29
ENDBRANCH  27  28
ENDBRANCH  23  27
ENDBRANCH  22  23
ENDBRANCH  21  22
ENDBRANCH   1  21
TORSDOF 10
ENDMDL
