MODEL 1
REMARK VINA RESULT:      -9.2      0.000      0.000
REMARK  Name = 
REMARK  6 active torsions:
REMARK  status: ('A' for Active; 'I' for Inactive)
REMARK    1  A    between atoms: C_1  and  C_2
REMARK    2  A    between atoms: C_6  and  N_7
REMARK    3  A    between atoms: C_8  and  C_10
REMARK    4  A    between atoms: N_14  and  S_15
REMARK    5  A    between atoms: S_15  and  C_18
REMARK    6  A    between atoms: N_27  and  C_28
REMARK                            x       y       z     vdW  Elec       q    Type
REMARK                         _______ _______ _______ _____ _____    ______ ____
ROOT
ATOM      1  C   UNL     1       7.335   5.886  18.215  0.00  0.00    +0.000 C 
ATOM      2  C   UNL     1       7.748   4.876  17.141  0.00  0.00    +0.000 C 
ATOM      3  C   UNL     1       6.610   4.364  16.262  0.00  0.00    +0.000 C 
ATOM      4  C   UNL     1       5.335   4.071  17.048  0.00  0.00    +0.000 C 
ATOM      5  N   UNL     1       4.903   5.296  17.795  0.00  0.00    +0.000 NA
ATOM      6  C   UNL     1       5.948   5.687  18.807  0.00  0.00    +0.000 C 
ENDROOT
BRANCH   1   8
ATOM      7  N   UNL     1       8.281   8.082  18.730  0.00  0.00    +0.000 N 
ATOM      8  C   UNL     1       7.547   7.345  17.826  0.00  0.00    +0.000 C 
ATOM      9  O   UNL     1       7.089   7.747  16.759  0.00  0.00    +0.000 OA
ATOM     10  H   UNL     1       8.626   7.597  19.547  0.00  0.00    +0.000 HD
BRANCH   7  16
ATOM     11  C   UNL     1      10.925  11.816  20.548  0.00  0.00    +0.000 C 
ATOM     12  C   UNL     1       9.969  11.290  19.518  0.00  0.00    +0.000 A 
ATOM     13  C   UNL     1       9.483  12.123  18.507  0.00  0.00    +0.000 A 
ATOM     14  C   UNL     1       8.598  11.623  17.556  0.00  0.00    +0.000 A 
ATOM     15  C   UNL     1       8.186  10.291  17.610  0.00  0.00    +0.000 A 
ATOM     16  C   UNL     1       8.656   9.440  18.612  0.00  0.00    +0.000 A 
ATOM     17  C   UNL     1       9.553   9.950  19.562  0.00  0.00    +0.000 A 
ENDBRANCH   7  16
ENDBRANCH   1   8
BRANCH   5  18
ATOM     18  S   UNL     1       3.370   5.088  18.615  0.00  0.00    +0.000 S 
ATOM     19  O   UNL     1       2.469   4.446  17.679  0.00  0.00    +0.000 OA
ATOM     20  O   UNL     1       3.629   4.513  19.915  0.00  0.00    +0.000 OA
BRANCH  18  21
ATOM     21  C   UNL     1       2.755   6.732  18.937  0.00  0.00    +0.000 A 
ATOM     22  C   UNL     1       2.682   7.655  17.868  0.00  0.00    +0.000 A 
ATOM     23  C   UNL     1       2.008   8.872  18.019  0.00  0.00    +0.000 A 
ATOM     24  C   UNL     1       1.408   9.108  19.238  0.00  0.00    +0.000 A 
ATOM     25  C   UNL     1       1.463   8.204  20.280  0.00  0.00    +0.000 A 
ATOM     26  C   UNL     1       2.132   7.000  20.167  0.00  0.00    +0.000 A 
ATOM     27  O   UNL     1       0.743   8.630  21.382  0.00  0.00    +0.000 OA
ATOM     28  C   UNL     1       0.219   9.870  20.963  0.00  0.00    +0.000 A 
ATOM     29  O   UNL     1      -0.500  10.564  21.662  0.00  0.00    +0.000 OA
ATOM     30  N   UNL     1       0.636  10.156  19.679  0.00  0.00    +0.000 N 
ATOM     31  C   UNL     1       0.302  11.324  18.909  0.00  0.00    +0.000 C 
ENDBRANCH  18  21
ENDBRANCH   5  18
TORSDOF 4
ENDMDL
MODEL 2
REMARK VINA RESULT:      -8.9      1.200      1.597
REMARK  Name = 
REMARK  6 active torsions:
REMARK  status: ('A' for Active; 'I' for Inactive)
REMARK    1  A    between atoms: C_1  and  C_2
REMARK    2  A    between atoms: C_6  and  N_7
REMARK    3  A    between atoms: C_8  and  C_10
REMARK    4  A    between atoms: N_14  and  S_15
REMARK    5  A    between atoms: S_15  and  C_18
REMARK    6  A    between atoms: N_27  and  C_28
REMARK                            x       y       z     vdW  Elec       q    Type
REMARK                         _______ _______ _______ _____ _____    ______ ____
ROOT
ATOM      1  C   UNL     1       7.234   5.802  17.766  0.00  0.00    +0.000 C 
ATOM      2  C   UNL     1       7.537   4.989  16.505  0.00  0.00    +0.000 C 
ATOM      3  C   UNL     1       6.309   4.515  15.730  0.00  0.00    +0.000 C 
ATOM      4  C   UNL     1       5.189   4.014  16.636  0.00  0.00    +0.000 C 
ATOM      5  N   UNL     1       4.805   5.083  17.613  0.00  0.00    +0.000 NA
ATOM      6  C   UNL     1       5.968   5.410  18.514  0.00  0.00    +0.000 C 
ENDROOT
BRANCH   1   8
ATOM      7  N   UNL     1       8.218   7.957  18.376  0.00  0.00    +0.000 N 
ATOM      8  C   UNL     1       7.298   7.313  17.576  0.00  0.00    +0.000 C 
ATOM      9  O   UNL     1       6.571   7.837  16.735  0.00  0.00    +0.000 OA
ATOM     10  H   UNL     1       8.774   7.381  18.993  0.00  0.00    +0.000 HD
BRANCH   7  16
ATOM     11  C   UNL     1      10.680  11.645  20.514  0.00  0.00    +0.000 C 
ATOM     12  C   UNL     1       9.734  11.166  19.452  0.00  0.00    +0.000 A 
ATOM     13  C   UNL     1       9.180  12.065  18.536  0.00  0.00    +0.000 A 
ATOM     14  C   UNL     1       8.305  11.608  17.553  0.00  0.00    +0.000 A 
ATOM     15  C   UNL     1       7.971  10.256  17.481  0.00  0.00    +0.000 A 
ATOM     16  C   UNL     1       8.511   9.340  18.387  0.00  0.00    +0.000 A 
ATOM     17  C   UNL     1       9.397   9.806  19.369  0.00  0.00    +0.000 A 
ENDBRANCH   7  16
ENDBRANCH   1   8
BRANCH   5  18
ATOM     18  S   UNL     1       3.430   4.639  18.603  0.00  0.00    +0.000 S 
ATOM     19  O   UNL     1       2.577   3.791  17.794  0.00  0.00    +0.000 OA
ATOM     20  O   UNL     1       3.924   4.193  19.885  0.00  0.00    +0.000 OA
BRANCH  18  21
ATOM     21  C   UNL     1       2.550   6.155  18.935  0.00  0.00    +0.000 A 
ATOM     22  C   UNL     1       2.038   6.377  20.234  0.00  0.00    +0.000 A 
ATOM     23  C   UNL     1       1.540   7.632  20.602  0.00  0.00    +0.000 A 
ATOM     24  C   UNL     1       1.597   8.631  19.653  0.00  0.00    +0.000 A 
ATOM     25  C   UNL     1       2.110   8.425  18.388  0.00  0.00    +0.000 A 
ATOM     26  C   UNL     1       2.598   7.193  17.990  0.00  0.00    +0.000 A 
ATOM     27  O   UNL     1       2.118   9.581  17.629  0.00  0.00    +0.000 OA
ATOM     28  C   UNL     1       1.577  10.543  18.507  0.00  0.00    +0.000 A 
ATOM     29  O   UNL     1       1.431  11.717  18.208  0.00  0.00    +0.000 OA
ATOM     30  N   UNL     1       1.253   9.960  19.715  0.00  0.00    +0.000 N 
ATOM     31  C   UNL     1       0.688  10.619  20.861  0.00  0.00    +0.000 C 
ENDBRANCH  18  21
ENDBRANCH   5  18
TORSDOF 4
ENDMDL
MODEL 3
REMARK VINA RESULT:      -8.8      2.916      5.781
REMARK  Name = 
REMARK  6 active torsions:
REMARK  status: ('A' for Active; 'I' for Inactive)
REMARK    1  A    between atoms: C_1  and  C_2
REMARK    2  A    between atoms: C_6  and  N_7
REMARK    3  A    between atoms: C_8  and  C_10
REMARK    4  A    between atoms: N_14  and  S_15
REMARK    5  A    between atoms: S_15  and  C_18
REMARK    6  A    between atoms: N_27  and  C_28
REMARK                            x       y       z     vdW  Elec       q    Type
REMARK                         _______ _______ _______ _____ _____    ______ ____
ROOT
ATOM      1  C   UNL     1       6.313   6.181  16.564  0.00  0.00    +0.000 C 
ATOM      2  C   UNL     1       7.353   6.281  17.683  0.00  0.00    +0.000 C 
ATOM      3  C   UNL     1       7.026   5.484  18.943  0.00  0.00    +0.000 C 
ATOM      4  C   UNL     1       5.556   5.574  19.341  0.00  0.00    +0.000 C 
ATOM      5  N   UNL     1       4.690   5.124  18.204  0.00  0.00    +0.000 NA
ATOM      6  C   UNL     1       4.869   6.037  17.019  0.00  0.00    +0.000 C 
ENDROOT
BRANCH   1   8
ATOM      7  N   UNL     1       5.655   4.979  14.537  0.00  0.00    +0.000 N 
ATOM      8  C   UNL     1       6.640   5.155  15.486  0.00  0.00    +0.000 C 
ATOM      9  O   UNL     1       7.731   4.589  15.516  0.00  0.00    +0.000 OA
ATOM     10  H   UNL     1       4.826   5.550  14.626  0.00  0.00    +0.000 HD
BRANCH   7  16
ATOM     11  C   UNL     1       3.249   3.066  10.692  0.00  0.00    +0.000 C 
ATOM     12  C   UNL     1       4.504   3.176  11.508  0.00  0.00    +0.000 A 
ATOM     13  C   UNL     1       5.646   2.452  11.156  0.00  0.00    +0.000 A 
ATOM     14  C   UNL     1       6.805   2.563  11.919  0.00  0.00    +0.000 A 
ATOM     15  C   UNL     1       6.832   3.391  13.042  0.00  0.00    +0.000 A 
ATOM     16  C   UNL     1       5.702   4.123  13.414  0.00  0.00    +0.000 A 
ATOM     17  C   UNL     1       4.541   4.011  12.636  0.00  0.00    +0.000 A 
ENDBRANCH   7  16
ENDBRANCH   1   8
BRANCH   5  18
ATOM     18  S   UNL     1       2.991   5.065  18.623  0.00  0.00    +0.000 S 
ATOM     19  O   UNL     1       2.268   4.697  17.422  0.00  0.00    +0.000 OA
ATOM     20  O   UNL     1       2.855   4.298  19.840  0.00  0.00    +0.000 OA
BRANCH  18  21
ATOM     21  C   UNL     1       2.531   6.733  19.059  0.00  0.00    +0.000 A 
ATOM     22  C   UNL     1       2.324   7.675  18.025  0.00  0.00    +0.000 A 
ATOM     23  C   UNL     1       1.752   8.923  18.300  0.00  0.00    +0.000 A 
ATOM     24  C   UNL     1       1.386   9.170  19.606  0.00  0.00    +0.000 A 
ATOM     25  C   UNL     1       1.572   8.248  20.616  0.00  0.00    +0.000 A 
ATOM     26  C   UNL     1       2.145   7.012  20.380  0.00  0.00    +0.000 A 
ATOM     27  O   UNL     1       1.077   8.692  21.830  0.00  0.00    +0.000 OA
ATOM     28  C   UNL     1       0.556   9.964  21.517  0.00  0.00    +0.000 A 
ATOM     29  O   UNL     1       0.008  10.683  22.335  0.00  0.00    +0.000 OA
ATOM     30  N   UNL     1       0.760  10.249  20.182  0.00  0.00    +0.000 N 
ATOM     31  C   UNL     1       0.361  11.445  19.491  0.00  0.00    +0.000 C 
ENDBRANCH  18  21
ENDBRANCH   5  18
TORSDOF 4
ENDMDL
MODEL 4
REMARK VINA RESULT:      -8.6      3.163      5.042
REMARK  Name = 
REMARK  6 active torsions:
REMARK  status: ('A' for Active; 'I' for Inactive)
REMARK    1  A    between atoms: C_1  and  C_2
REMARK    2  A    between atoms: C_6  and  N_7
REMARK    3  A    between atoms: C_8  and  C_10
REMARK    4  A    between atoms: N_14  and  S_15
REMARK    5  A    between atoms: S_15  and  C_18
REMARK    6  A    between atoms: N_27  and  C_28
REMARK                            x       y       z     vdW  Elec       q    Type
REMARK                         _______ _______ _______ _____ _____    ______ ____
ROOT
ATOM      1  C   UNL     1       5.927   6.537  17.396  0.00  0.00    +0.000 C 
ATOM      2  C   UNL     1       6.947   5.668  18.136  0.00  0.00    +0.000 C 
ATOM      3  C   UNL     1       6.382   4.390  18.752  0.00  0.00    +0.000 C 
ATOM      4  C   UNL     1       5.024   4.597  19.415  0.00  0.00    +0.000 C 
ATOM      5  N   UNL     1       4.054   5.169  18.427  0.00  0.00    +0.000 NA
ATOM      6  C   UNL     1       4.516   6.527  17.966  0.00  0.00    +0.000 C 
ENDROOT
BRANCH   1   8
ATOM      7  N   UNL     1       6.762   5.365  15.417  0.00  0.00    +0.000 N 
ATOM      8  C   UNL     1       5.895   6.330  15.886  0.00  0.00    +0.000 C 
ATOM      9  O   UNL     1       5.111   6.993  15.212  0.00  0.00    +0.000 OA
ATOM     10  H   UNL     1       7.318   4.874  16.104  0.00  0.00    +0.000 HD
BRANCH   7  16
ATOM     11  C   UNL     1       5.249   2.364  11.820  0.00  0.00    +0.000 C 
ATOM     12  C   UNL     1       6.165   3.453  12.296  0.00  0.00    +0.000 A 
ATOM     13  C   UNL     1       7.122   4.002  11.438  0.00  0.00    +0.000 A 
ATOM     14  C   UNL     1       7.966   5.013  11.891  0.00  0.00    +0.000 A 
ATOM     15  C   UNL     1       7.866   5.479  13.202  0.00  0.00    +0.000 A 
ATOM     16  C   UNL     1       6.919   4.944  14.077  0.00  0.00    +0.000 A 
ATOM     17  C   UNL     1       6.068   3.932  13.612  0.00  0.00    +0.000 A 
ENDBRANCH   7  16
ENDBRANCH   1   8
BRANCH   5  18
ATOM     18  S   UNL     1       2.431   5.310  19.068  0.00  0.00    +0.000 S 
ATOM     19  O   UNL     1       1.528   4.785  18.064  0.00  0.00    +0.000 OA
ATOM     20  O   UNL     1       2.433   4.788  20.415  0.00  0.00    +0.000 OA
BRANCH  18  21
ATOM     21  C   UNL     1       2.117   7.058  19.236  0.00  0.00    +0.000 A 
ATOM     22  C   UNL     1       1.926   7.833  18.069  0.00  0.00    +0.000 A 
ATOM     23  C   UNL     1       1.462   9.151  18.153  0.00  0.00    +0.000 A 
ATOM     24  C   UNL     1       1.182   9.637  19.413  0.00  0.00    +0.000 A 
ATOM     25  C   UNL     1       1.351   8.880  20.555  0.00  0.00    +0.000 A 
ATOM     26  C   UNL     1       1.820   7.580  20.507  0.00  0.00    +0.000 A 
ATOM     27  O   UNL     1       0.953   9.555  21.695  0.00  0.00    +0.000 OA
ATOM     28  C   UNL     1       0.511  10.796  21.194  0.00  0.00    +0.000 A 
ATOM     29  O   UNL     1       0.059  11.682  21.901  0.00  0.00    +0.000 OA
ATOM     30  N   UNL     1       0.666  10.843  19.824  0.00  0.00    +0.000 N 
ATOM     31  C   UNL     1       0.321  11.937  18.958  0.00  0.00    +0.000 C 
ENDBRANCH  18  21
ENDBRANCH   5  18
TORSDOF 4
ENDMDL
MODEL 5
REMARK VINA RESULT:      -8.5      0.388      1.275
REMARK  Name = 
REMARK  6 active torsions:
REMARK  status: ('A' for Active; 'I' for Inactive)
REMARK    1  A    between atoms: C_1  and  C_2
REMARK    2  A    between atoms: C_6  and  N_7
REMARK    3  A    between atoms: C_8  and  C_10
REMARK    4  A    between atoms: N_14  and  S_15
REMARK    5  A    between atoms: S_15  and  C_18
REMARK    6  A    between atoms: N_27  and  C_28
REMARK                            x       y       z     vdW  Elec       q    Type
REMARK                         _______ _______ _______ _____ _____    ______ ____
ROOT
ATOM      1  C   UNL     1       7.357   5.996  18.071  0.00  0.00    +0.000 C 
ATOM      2  C   UNL     1       7.623   5.089  16.867  0.00  0.00    +0.000 C 
ATOM      3  C   UNL     1       6.389   4.725  16.046  0.00  0.00    +0.000 C 
ATOM      4  C   UNL     1       5.171   4.409  16.907  0.00  0.00    +0.000 C 
ATOM      5  N   UNL     1       4.870   5.565  17.811  0.00  0.00    +0.000 NA
ATOM      6  C   UNL     1       6.016   5.798  18.761  0.00  0.00    +0.000 C 
ENDROOT
BRANCH   1   8
ATOM      7  N   UNL     1       8.374   8.106  18.780  0.00  0.00    +0.000 N 
ATOM      8  C   UNL     1       7.615   7.477  17.816  0.00  0.00    +0.000 C 
ATOM      9  O   UNL     1       7.167   7.990  16.793  0.00  0.00    +0.000 OA
ATOM     10  H   UNL     1       8.705   7.537  19.548  0.00  0.00    +0.000 HD
BRANCH   7  16
ATOM     11  C   UNL     1       7.724  12.643  16.985  0.00  0.00    +0.000 C 
ATOM     12  C   UNL     1       8.466  11.705  17.891  0.00  0.00    +0.000 A 
ATOM     13  C   UNL     1       9.519  12.168  18.685  0.00  0.00    +0.000 A 
ATOM     14  C   UNL     1      10.199  11.288  19.523  0.00  0.00    +0.000 A 
ATOM     15  C   UNL     1       9.840   9.941  19.571  0.00  0.00    +0.000 A 
ATOM     16  C   UNL     1       8.792   9.456  18.785  0.00  0.00    +0.000 A 
ATOM     17  C   UNL     1       8.107  10.349  17.949  0.00  0.00    +0.000 A 
ENDBRANCH   7  16
ENDBRANCH   1   8
BRANCH   5  18
ATOM     18  S   UNL     1       3.402   5.341  18.739  0.00  0.00    +0.000 S 
ATOM     19  O   UNL     1       2.485   4.582  17.912  0.00  0.00    +0.000 OA
ATOM     20  O   UNL     1       3.770   4.881  20.059  0.00  0.00    +0.000 OA
BRANCH  18  21
ATOM     21  C   UNL     1       2.715   6.970  18.978  0.00  0.00    +0.000 A 
ATOM     22  C   UNL     1       2.591   7.829  17.862  0.00  0.00    +0.000 A 
ATOM     23  C   UNL     1       1.863   9.020  17.954  0.00  0.00    +0.000 A 
ATOM     24  C   UNL     1       1.261   9.295  19.164  0.00  0.00    +0.000 A 
ATOM     25  C   UNL     1       1.365   8.452  20.253  0.00  0.00    +0.000 A 
ATOM     26  C   UNL     1       2.088   7.275  20.198  0.00  0.00    +0.000 A 
ATOM     27  O   UNL     1       0.635   8.904  21.337  0.00  0.00    +0.000 OA
ATOM     28  C   UNL     1       0.051  10.094  20.857  0.00  0.00    +0.000 A 
ATOM     29  O   UNL     1      -0.694  10.792  21.525  0.00  0.00    +0.000 OA
ATOM     30  N   UNL     1       0.445  10.329  19.556  0.00  0.00    +0.000 N 
ATOM     31  C   UNL     1       0.052  11.437  18.727  0.00  0.00    +0.000 C 
ENDBRANCH  18  21
ENDBRANCH   5  18
TORSDOF 4
ENDMDL
MODEL 6
REMARK VINA RESULT:      -8.4      3.110      6.026
REMARK  Name = 
REMARK  6 active torsions:
REMARK  status: ('A' for Active; 'I' for Inactive)
REMARK    1  A    between atoms: C_1  and  C_2
REMARK    2  A    between atoms: C_6  and  N_7
REMARK    3  A    between atoms: C_8  and  C_10
REMARK    4  A    between atoms: N_14  and  S_15
REMARK    5  A    between atoms: S_15  and  C_18
REMARK    6  A    between atoms: N_27  and  C_28
REMARK                            x       y       z     vdW  Elec       q    Type
REMARK                         _______ _______ _______ _____ _____    ______ ____
ROOT
ATOM      1  C   UNL     1       6.040   6.143  16.518  0.00  0.00    +0.000 C 
ATOM      2  C   UNL     1       7.132   6.444  17.547  0.00  0.00    +0.000 C 
ATOM      3  C   UNL     1       7.085   5.587  18.810  0.00  0.00    +0.000 C 
ATOM      4  C   UNL     1       5.668   5.373  19.333  0.00  0.00    +0.000 C 
ATOM      5  N   UNL     1       4.815   4.765  18.261  0.00  0.00    +0.000 NA
ATOM      6  C   UNL     1       4.700   5.705  17.089  0.00  0.00    +0.000 C 
ENDROOT
BRANCH   1   8
ATOM      7  N   UNL     1       5.472   4.879  14.502  0.00  0.00    +0.000 N 
ATOM      8  C   UNL     1       6.472   5.213  15.390  0.00  0.00    +0.000 C 
ATOM      9  O   UNL     1       7.646   4.854  15.333  0.00  0.00    +0.000 OA
ATOM     10  H   UNL     1       4.561   5.288  14.660  0.00  0.00    +0.000 HD
BRANCH   7  16
ATOM     11  C   UNL     1       3.249   2.892  10.584  0.00  0.00    +0.000 C 
ATOM     12  C   UNL     1       4.488   3.082  11.410  0.00  0.00    +0.000 A 
ATOM     13  C   UNL     1       5.688   2.469  11.042  0.00  0.00    +0.000 A 
ATOM     14  C   UNL     1       6.832   2.655  11.815  0.00  0.00    +0.000 A 
ATOM     15  C   UNL     1       6.785   3.446  12.963  0.00  0.00    +0.000 A 
ATOM     16  C   UNL     1       5.595   4.066  13.352  0.00  0.00    +0.000 A 
ATOM     17  C   UNL     1       4.450   3.880  12.564  0.00  0.00    +0.000 A 
ENDBRANCH   7  16
ENDBRANCH   1   8
BRANCH   5  18
ATOM     18  S   UNL     1       3.206   4.358  18.821  0.00  0.00    +0.000 S 
ATOM     19  O   UNL     1       2.518   3.720  17.715  0.00  0.00    +0.000 OA
ATOM     20  O   UNL     1       3.328   3.701  20.102  0.00  0.00    +0.000 OA
BRANCH  18  21
ATOM     21  C   UNL     1       2.393   5.910  19.158  0.00  0.00    +0.000 A 
ATOM     22  C   UNL     1       1.930   6.167  20.470  0.00  0.00    +0.000 A 
ATOM     23  C   UNL     1       1.490   7.444  20.835  0.00  0.00    +0.000 A 
ATOM     24  C   UNL     1       1.553   8.428  19.871  0.00  0.00    +0.000 A 
ATOM     25  C   UNL     1       2.019   8.187  18.594  0.00  0.00    +0.000 A 
ATOM     26  C   UNL     1       2.448   6.934  18.198  0.00  0.00    +0.000 A 
ATOM     27  O   UNL     1       2.044   9.333  17.820  0.00  0.00    +0.000 OA
ATOM     28  C   UNL     1       1.566  10.325  18.700  0.00  0.00    +0.000 A 
ATOM     29  O   UNL     1       1.454  11.499  18.390  0.00  0.00    +0.000 OA
ATOM     30  N   UNL     1       1.259   9.769  19.926  0.00  0.00    +0.000 N 
ATOM     31  C   UNL     1       0.755  10.463  21.080  0.00  0.00    +0.000 C 
ENDBRANCH  18  21
ENDBRANCH   5  18
TORSDOF 4
ENDMDL
MODEL 7
REMARK VINA RESULT:      -8.3      3.854      7.961
REMARK  Name = 
REMARK  6 active torsions:
REMARK  status: ('A' for Active; 'I' for Inactive)
REMARK    1  A    between atoms: C_1  and  C_2
REMARK    2  A    between atoms: C_6  and  N_7
REMARK    3  A    between atoms: C_8  and  C_10
REMARK    4  A    between atoms: N_14  and  S_15
REMARK    5  A    between atoms: S_15  and  C_18
REMARK    6  A    between atoms: N_27  and  C_28
REMARK                            x       y       z     vdW  Elec       q    Type
REMARK                         _______ _______ _______ _____ _____    ______ ____
ROOT
ATOM      1  C   UNL     1       2.599   6.226  18.083  0.00  0.00    +0.000 C 
ATOM      2  C   UNL     1       2.073   4.991  18.818  0.00  0.00    +0.000 C 
ATOM      3  C   UNL     1       3.065   4.338  19.778  0.00  0.00    +0.000 C 
ATOM      4  C   UNL     1       4.482   4.271  19.217  0.00  0.00    +0.000 C 
ATOM      5  N   UNL     1       4.949   5.645  18.843  0.00  0.00    +0.000 NA
ATOM      6  C   UNL     1       4.083   6.212  17.748  0.00  0.00    +0.000 C 
ENDROOT
BRANCH   1   8
ATOM      7  N   UNL     1       1.845   8.539  17.822  0.00  0.00    +0.000 N 
ATOM      8  C   UNL     1       2.206   7.555  18.718  0.00  0.00    +0.000 C 
ATOM      9  O   UNL     1       2.211   7.652  19.943  0.00  0.00    +0.000 OA
ATOM     10  H   UNL     1       1.853   8.293  16.842  0.00  0.00    +0.000 HD
BRANCH   7  16
ATOM     11  C   UNL     1      -1.949  11.488  18.891  0.00  0.00    +0.000 C 
ATOM     12  C   UNL     1      -0.478  11.307  18.659  0.00  0.00    +0.000 A 
ATOM     13  C   UNL     1       0.394  12.396  18.741  0.00  0.00    +0.000 A 
ATOM     14  C   UNL     1       1.758  12.215  18.525  0.00  0.00    +0.000 A 
ATOM     15  C   UNL     1       2.261  10.950  18.219  0.00  0.00    +0.000 A 
ATOM     16  C   UNL     1       1.408   9.848  18.129  0.00  0.00    +0.000 A 
ATOM     17  C   UNL     1       0.037  10.037  18.355  0.00  0.00    +0.000 A 
ENDBRANCH   7  16
ENDBRANCH   1   8
BRANCH   5  18
ATOM     18  S   UNL     1       6.620   5.678  18.318  0.00  0.00    +0.000 S 
ATOM     19  O   UNL     1       6.989   7.070  18.156  0.00  0.00    +0.000 OA
ATOM     20  O   UNL     1       7.379   4.800  19.178  0.00  0.00    +0.000 OA
BRANCH  18  21
ATOM     21  C   UNL     1       6.647   4.906  16.709  0.00  0.00    +0.000 A 
ATOM     22  C   UNL     1       5.725   3.870  16.434  0.00  0.00    +0.000 A 
ATOM     23  C   UNL     1       5.558   3.389  15.130  0.00  0.00    +0.000 A 
ATOM     24  C   UNL     1       6.310   3.987  14.141  0.00  0.00    +0.000 A 
ATOM     25  C   UNL     1       7.201   5.010  14.402  0.00  0.00    +0.000 A 
ATOM     26  C   UNL     1       7.398   5.498  15.680  0.00  0.00    +0.000 A 
ATOM     27  O   UNL     1       7.799   5.490  13.251  0.00  0.00    +0.000 OA
ATOM     28  C   UNL     1       7.218   4.702  12.235  0.00  0.00    +0.000 A 
ATOM     29  O   UNL     1       7.481   4.836  11.052  0.00  0.00    +0.000 OA
ATOM     30  N   UNL     1       6.337   3.792  12.781  0.00  0.00    +0.000 N 
ATOM     31  C   UNL     1       5.550   2.825  12.065  0.00  0.00    +0.000 C 
ENDBRANCH  18  21
ENDBRANCH   5  18
TORSDOF 4
ENDMDL
MODEL 8
REMARK VINA RESULT:      -8.3      5.545      8.732
REMARK  Name = 
REMARK  6 active torsions:
REMARK  status: ('A' for Active; 'I' for Inactive)
REMARK    1  A    between atoms: C_1  and  C_2
REMARK    2  A    between atoms: C_6  and  N_7
REMARK    3  A    between atoms: C_8  and  C_10
REMARK    4  A    between atoms: N_14  and  S_15
REMARK    5  A    between atoms: S_15  and  C_18
REMARK    6  A    between atoms: N_27  and  C_28
REMARK                            x       y       z     vdW  Elec       q    Type
REMARK                         _______ _______ _______ _____ _____    ______ ____
ROOT
ATOM      1  C   UNL     1       1.236   9.351  21.910  0.00  0.00    +0.000 C 
ATOM      2  C   UNL     1       0.610   9.423  23.305  0.00  0.00    +0.000 C 
ATOM      3  C   UNL     1      -0.727  10.155  23.377  0.00  0.00    +0.000 C 
ATOM      4  C   UNL     1      -0.760  11.422  22.527  0.00  0.00    +0.000 C 
ATOM      5  N   UNL     1      -0.426  11.092  21.105  0.00  0.00    +0.000 NA
ATOM      6  C   UNL     1       0.977  10.550  21.010  0.00  0.00    +0.000 C 
ENDROOT
BRANCH   1   8
ATOM      7  N   UNL     1       2.086   7.455  20.619  0.00  0.00    +0.000 N 
ATOM      8  C   UNL     1       0.968   8.051  21.161  0.00  0.00    +0.000 C 
ATOM      9  O   UNL     1      -0.182   7.620  21.114  0.00  0.00    +0.000 OA
ATOM     10  H   UNL     1       2.973   7.913  20.778  0.00  0.00    +0.000 HD
BRANCH   7  16
ATOM     11  C   UNL     1       1.551   2.563  20.749  0.00  0.00    +0.000 C 
ATOM     12  C   UNL     1       1.871   3.809  19.976  0.00  0.00    +0.000 A 
ATOM     13  C   UNL     1       2.206   3.738  18.622  0.00  0.00    +0.000 A 
ATOM     14  C   UNL     1       2.499   4.901  17.914  0.00  0.00    +0.000 A 
ATOM     15  C   UNL     1       2.468   6.140  18.552  0.00  0.00    +0.000 A 
ATOM     16  C   UNL     1       2.137   6.235  19.906  0.00  0.00    +0.000 A 
ATOM     17  C   UNL     1       1.836   5.061  20.610  0.00  0.00    +0.000 A 
ENDBRANCH   7  16
ENDBRANCH   1   8
BRANCH   5  18
ATOM     18  S   UNL     1      -0.576  12.468  20.032  0.00  0.00    +0.000 S 
ATOM     19  O   UNL     1      -0.254  13.650  20.806  0.00  0.00    +0.000 OA
ATOM     20  O   UNL     1       0.130  12.163  18.809  0.00  0.00    +0.000 OA
BRANCH  18  21
ATOM     21  C   UNL     1      -2.299  12.555  19.577  0.00  0.00    +0.000 A 
ATOM     22  C   UNL     1      -2.748  11.811  18.461  0.00  0.00    +0.000 A 
ATOM     23  C   UNL     1      -4.116  11.672  18.200  0.00  0.00    +0.000 A 
ATOM     24  C   UNL     1      -4.988  12.266  19.088  0.00  0.00    +0.000 A 
ATOM     25  C   UNL     1      -4.555  12.980  20.187  0.00  0.00    +0.000 A 
ATOM     26  C   UNL     1      -3.211  13.147  20.466  0.00  0.00    +0.000 A 
ATOM     27  O   UNL     1      -5.605  13.436  20.964  0.00  0.00    +0.000 OA
ATOM     28  C   UNL     1      -6.740  12.954  20.281  0.00  0.00    +0.000 A 
ATOM     29  O   UNL     1      -7.883  13.137  20.667  0.00  0.00    +0.000 OA
ATOM     30  N   UNL     1      -6.361  12.266  19.147  0.00  0.00    +0.000 N 
ATOM     31  C   UNL     1      -7.233  11.623  18.201  0.00  0.00    +0.000 C 
ENDBRANCH  18  21
ENDBRANCH   5  18
TORSDOF 4
ENDMDL
MODEL 9
REMARK VINA RESULT:      -8.3      6.639     10.015
REMARK  Name = 
REMARK  6 active torsions:
REMARK  status: ('A' for Active; 'I' for Inactive)
REMARK    1  A    between atoms: C_1  and  C_2
REMARK    2  A    between atoms: C_6  and  N_7
REMARK    3  A    between atoms: C_8  and  C_10
REMARK    4  A    between atoms: N_14  and  S_15
REMARK    5  A    between atoms: S_15  and  C_18
REMARK    6  A    between atoms: N_27  and  C_28
REMARK                            x       y       z     vdW  Elec       q    Type
REMARK                         _______ _______ _______ _____ _____    ______ ____
ROOT
ATOM      1  C   UNL     1       0.934  10.239  19.826  0.00  0.00    +0.000 C 
ATOM      2  C   UNL     1       0.905   9.017  20.747  0.00  0.00    +0.000 C 
ATOM      3  C   UNL     1      -0.152   9.061  21.848  0.00  0.00    +0.000 C 
ATOM      4  C   UNL     1      -0.277  10.435  22.499  0.00  0.00    +0.000 C 
ATOM      5  N   UNL     1      -0.570  11.470  21.457  0.00  0.00    +0.000 NA
ATOM      6  C   UNL     1       0.571  11.564  20.478  0.00  0.00    +0.000 C 
ENDROOT
BRANCH   1   8
ATOM      7  N   UNL     1      -1.140  10.473  18.550  0.00  0.00    +0.000 N 
ATOM      8  C   UNL     1       0.175  10.061  18.515  0.00  0.00    +0.000 C 
ATOM      9  O   UNL     1       0.769   9.604  17.542  0.00  0.00    +0.000 OA
ATOM     10  H   UNL     1      -1.476  10.868  19.418  0.00  0.00    +0.000 HD
BRANCH   7  16
ATOM     11  C   UNL     1      -5.357  12.210  16.695  0.00  0.00    +0.000 C 
ATOM     12  C   UNL     1      -4.156  11.320  16.563  0.00  0.00    +0.000 A 
ATOM     13  C   UNL     1      -3.986  10.519  15.431  0.00  0.00    +0.000 A 
ATOM     14  C   UNL     1      -2.866   9.699  15.319  0.00  0.00    +0.000 A 
ATOM     15  C   UNL     1      -1.913   9.666  16.337  0.00  0.00    +0.000 A 
ATOM     16  C   UNL     1      -2.063  10.456  17.479  0.00  0.00    +0.000 A 
ATOM     17  C   UNL     1      -3.189  11.285  17.581  0.00  0.00    +0.000 A 
ENDBRANCH   7  16
ENDBRANCH   1   8
BRANCH   5  18
ATOM     18  S   UNL     1      -0.867  13.057  22.136  0.00  0.00    +0.000 S 
ATOM     19  O   UNL     1      -0.427  13.019  23.517  0.00  0.00    +0.000 OA
ATOM     20  O   UNL     1      -0.350  14.043  21.216  0.00  0.00    +0.000 OA
BRANCH  18  21
ATOM     21  C   UNL     1      -2.637  13.277  22.124  0.00  0.00    +0.000 A 
ATOM     22  C   UNL     1      -3.306  13.361  20.880  0.00  0.00    +0.000 A 
ATOM     23  C   UNL     1      -4.703  13.311  20.815  0.00  0.00    +0.000 A 
ATOM     24  C   UNL     1      -5.380  13.153  22.006  0.00  0.00    +0.000 A 
ATOM     25  C   UNL     1      -4.732  13.055  23.221  0.00  0.00    +0.000 A 
ATOM     26  C   UNL     1      -3.354  13.113  23.321  0.00  0.00    +0.000 A 
ATOM     27  O   UNL     1      -5.611  12.844  24.268  0.00  0.00    +0.000 OA
ATOM     28  C   UNL     1      -6.868  12.809  23.630  0.00  0.00    +0.000 A 
ATOM     29  O   UNL     1      -7.916  12.623  24.225  0.00  0.00    +0.000 OA
ATOM     30  N   UNL     1      -6.721  13.011  22.273  0.00  0.00    +0.000 N 
ATOM     31  C   UNL     1      -7.771  13.035  21.291  0.00  0.00    +0.000 C 
ENDBRANCH  18  21
ENDBRANCH   5  18
TORSDOF 4
ENDMDL
