MODEL 1
REMARK VINA RESULT:      -8.6      0.000      0.000
REMARK  Name = 
REMARK  9 active torsions:
REMARK  status: ('A' for Active; 'I' for Inactive)
REMARK    1  A    between atoms: C_1  and  C_2
REMARK    2  A    between atoms: C_2  and  C_3
REMARK    3  A    between atoms: C_8  and  C_9
REMARK    4  A    between atoms: C_9  and  C_10
REMARK    5  A    between atoms: C_9  and  C_22
REMARK    6  A    between atoms: C_10  and  C_11
REMARK    7  A    between atoms: N_13  and  C_14
REMARK    8  A    between atoms: C_14  and  C_15
REMARK    9  A    between atoms: C_15  and  N_16
REMARK                            x       y       z     vdW  Elec       q    Type
REMARK                         _______ _______ _______ _____ _____    ______ ____
ROOT
ATOM      1  C   UNL     1       6.982   5.748  17.002  0.00  0.00    +0.000 C 
ENDROOT
BRANCH   1   7
ATOM      2  C   UNL     1       2.728   5.407  19.796  0.00  0.00    +0.000 A 
ATOM      3  C   UNL     1       2.057   6.518  19.254  0.00  0.00    +0.000 A 
ATOM      4  C   UNL     1       2.629   7.300  18.256  0.00  0.00    +0.000 A 
ATOM      5  C   UNL     1       3.898   7.004  17.758  0.00  0.00    +0.000 A 
ATOM      6  C   UNL     1       4.629   5.914  18.283  0.00  0.00    +0.000 A 
ATOM      7  C   UNL     1       5.920   5.340  18.005  0.00  0.00    +0.000 A 
ATOM      8  C   UNL     1       6.061   4.284  18.892  0.00  0.00    +0.000 A 
ATOM      9  N   UNL     1       4.926   4.175  19.642  0.00  0.00    +0.000 N 
ATOM     10  C   UNL     1       4.023   5.154  19.292  0.00  0.00    +0.000 A 
ATOM     11  H   UNL     1       4.769   3.484  20.362  0.00  0.00    +0.000 HD
BRANCH   2  13
ATOM     12  C   UNL     1       0.991   3.638  20.257  0.00  0.00    +0.000 C 
ATOM     13  C   UNL     1       2.043   4.565  20.847  0.00  0.00    +0.000 C 
ENDBRANCH   2  13
ENDBRANCH   1   7
BRANCH   1  14
ATOM     14  C   UNL     1       6.612   5.058  15.681  0.00  0.00    +0.000 A 
ATOM     15  C   UNL     1       7.483   5.152  14.579  0.00  0.00    +0.000 A 
ATOM     16  C   UNL     1       7.151   4.572  13.349  0.00  0.00    +0.000 A 
ATOM     17  C   UNL     1       5.951   3.889  13.212  0.00  0.00    +0.000 A 
ATOM     18  F   UNL     1       5.633   3.336  12.034  0.00  0.00    +0.000 F 
ATOM     19  C   UNL     1       5.076   3.770  14.279  0.00  0.00    +0.000 A 
ATOM     20  C   UNL     1       5.404   4.353  15.505  0.00  0.00    +0.000 A 
ENDBRANCH   1  14
BRANCH   1  21
ATOM     21  C   UNL     1       7.203   7.257  16.861  0.00  0.00    +0.000 C 
BRANCH  21  22
ATOM     22  C   UNL     1       8.029   7.893  17.959  0.00  0.00    +0.000 C 
ATOM     23  O   UNL     1       8.506   7.282  18.906  0.00  0.00    +0.000 OA
ATOM     24  N   UNL     1       8.259   9.240  17.720  0.00  0.00    +0.000 N 
ATOM     25  H   UNL     1       7.640   9.702  17.065  0.00  0.00    +0.000 HD
BRANCH  24  26
ATOM     26  C   UNL     1       8.887  10.097  18.712  0.00  0.00    +0.000 C 
BRANCH  26  27
ATOM     27  C   UNL     1       9.257  11.508  18.205  0.00  0.00    +0.000 C 
BRANCH  27  28
ATOM     28  N   UNL     1      10.683  11.660  17.844  0.00  0.00    +0.000 NA
ATOM     29  C   UNL     1      11.553  11.552  19.043  0.00  0.00    +0.000 C 
ATOM     30  C   UNL     1      11.592  12.813  19.931  0.00  0.00    +0.000 C 
ATOM     31  O   UNL     1      11.922  13.985  19.176  0.00  0.00    +0.000 OA
ATOM     32  C   UNL     1      10.988  14.163  18.104  0.00  0.00    +0.000 C 
ATOM     33  C   UNL     1      10.998  12.942  17.173  0.00  0.00    +0.000 C 
ENDBRANCH  27  28
ENDBRANCH  26  27
ENDBRANCH  24  26
ENDBRANCH  21  22
ENDBRANCH   1  21
TORSDOF 8
ENDMDL
MODEL 2
REMARK VINA RESULT:      -8.3      0.648      1.113
REMARK  Name = 
REMARK  9 active torsions:
REMARK  status: ('A' for Active; 'I' for Inactive)
REMARK    1  A    between atoms: C_1  and  C_2
REMARK    2  A    between atoms: C_2  and  C_3
REMARK    3  A    between atoms: C_8  and  C_9
REMARK    4  A    between atoms: C_9  and  C_10
REMARK    5  A    between atoms: C_9  and  C_22
REMARK    6  A    between atoms: C_10  and  C_11
REMARK    7  A    between atoms: N_13  and  C_14
REMARK    8  A    between atoms: C_14  and  C_15
REMARK    9  A    between atoms: C_15  and  N_16
REMARK                            x       y       z     vdW  Elec       q    Type
REMARK                         _______ _______ _______ _____ _____    ______ ____
ROOT
ATOM      1  C   UNL     1       6.844   5.881  17.089  0.00  0.00    +0.000 C 
ENDROOT
BRANCH   1   7
ATOM      2  C   UNL     1       2.419   5.716  19.622  0.00  0.00    +0.000 A 
ATOM      3  C   UNL     1       1.839   6.869  19.062  0.00  0.00    +0.000 A 
ATOM      4  C   UNL     1       2.507   7.635  18.114  0.00  0.00    +0.000 A 
ATOM      5  C   UNL     1       3.787   7.282  17.686  0.00  0.00    +0.000 A 
ATOM      6  C   UNL     1       4.430   6.148  18.233  0.00  0.00    +0.000 A 
ATOM      7  C   UNL     1       5.705   5.513  18.021  0.00  0.00    +0.000 A 
ATOM      8  C   UNL     1       5.739   4.437  18.895  0.00  0.00    +0.000 A 
ATOM      9  N   UNL     1       4.557   4.375  19.575  0.00  0.00    +0.000 N 
ATOM     10  C   UNL     1       3.727   5.405  19.191  0.00  0.00    +0.000 A 
ATOM     11  H   UNL     1       4.324   3.682  20.272  0.00  0.00    +0.000 HD
BRANCH   2  13
ATOM     12  C   UNL     1       0.910   3.725  19.964  0.00  0.00    +0.000 C 
ATOM     13  C   UNL     1       1.631   4.894  20.616  0.00  0.00    +0.000 C 
ENDBRANCH   2  13
ENDBRANCH   1   7
BRANCH   1  14
ATOM     14  C   UNL     1       6.528   5.215  15.742  0.00  0.00    +0.000 A 
ATOM     15  C   UNL     1       5.297   4.554  15.565  0.00  0.00    +0.000 A 
ATOM     16  C   UNL     1       5.000   3.898  14.364  0.00  0.00    +0.000 A 
ATOM     17  C   UNL     1       5.925   3.904  13.330  0.00  0.00    +0.000 A 
ATOM     18  F   UNL     1       5.641   3.275  12.182  0.00  0.00    +0.000 F 
ATOM     19  C   UNL     1       7.141   4.553  13.468  0.00  0.00    +0.000 A 
ATOM     20  C   UNL     1       7.441   5.202  14.668  0.00  0.00    +0.000 A 
ENDBRANCH   1  14
BRANCH   1  21
ATOM     21  C   UNL     1       7.138   7.380  16.976  0.00  0.00    +0.000 C 
BRANCH  21  22
ATOM     22  C   UNL     1       8.036   7.944  18.055  0.00  0.00    +0.000 C 
ATOM     23  O   UNL     1       8.558   7.276  18.939  0.00  0.00    +0.000 OA
ATOM     24  N   UNL     1       8.275   9.299  17.874  0.00  0.00    +0.000 N 
ATOM     25  H   UNL     1       7.626   9.804  17.283  0.00  0.00    +0.000 HD
BRANCH  24  26
ATOM     26  C   UNL     1       8.974  10.092  18.872  0.00  0.00    +0.000 C 
BRANCH  26  27
ATOM     27  C   UNL     1       9.905  11.181  18.294  0.00  0.00    +0.000 C 
BRANCH  27  28
ATOM     28  N   UNL     1      11.099  11.450  19.123  0.00  0.00    +0.000 NA
ATOM     29  C   UNL     1      10.716  11.851  20.501  0.00  0.00    +0.000 C 
ATOM     30  C   UNL     1      10.230  13.309  20.640  0.00  0.00    +0.000 C 
ATOM     31  O   UNL     1      11.173  14.238  20.091  0.00  0.00    +0.000 OA
ATOM     32  C   UNL     1      11.429  13.930  18.716  0.00  0.00    +0.000 C 
ATOM     33  C   UNL     1      11.983  12.504  18.577  0.00  0.00    +0.000 C 
ENDBRANCH  27  28
ENDBRANCH  26  27
ENDBRANCH  24  26
ENDBRANCH  21  22
ENDBRANCH   1  21
TORSDOF 8
ENDMDL
MODEL 3
REMARK VINA RESULT:      -8.3      0.641      1.409
REMARK  Name = 
REMARK  9 active torsions:
REMARK  status: ('A' for Active; 'I' for Inactive)
REMARK    1  A    between atoms: C_1  and  C_2
REMARK    2  A    between atoms: C_2  and  C_3
REMARK    3  A    between atoms: C_8  and  C_9
REMARK    4  A    between atoms: C_9  and  C_10
REMARK    5  A    between atoms: C_9  and  C_22
REMARK    6  A    between atoms: C_10  and  C_11
REMARK    7  A    between atoms: N_13  and  C_14
REMARK    8  A    between atoms: C_14  and  C_15
REMARK    9  A    between atoms: C_15  and  N_16
REMARK                            x       y       z     vdW  Elec       q    Type
REMARK                         _______ _______ _______ _____ _____    ______ ____
ROOT
ATOM      1  C   UNL     1       6.841   5.806  17.121  0.00  0.00    +0.000 C 
ENDROOT
BRANCH   1   7
ATOM      2  C   UNL     1       2.440   5.396  19.669  0.00  0.00    +0.000 A 
ATOM      3  C   UNL     1       1.823   6.556  19.165  0.00  0.00    +0.000 A 
ATOM      4  C   UNL     1       2.463   7.384  18.250  0.00  0.00    +0.000 A 
ATOM      5  C   UNL     1       3.749   7.088  17.799  0.00  0.00    +0.000 A 
ATOM      6  C   UNL     1       4.428   5.950  18.289  0.00  0.00    +0.000 A 
ATOM      7  C   UNL     1       5.719   5.363  18.041  0.00  0.00    +0.000 A 
ATOM      8  C   UNL     1       5.791   4.250  18.866  0.00  0.00    +0.000 A 
ATOM      9  N   UNL     1       4.616   4.123  19.548  0.00  0.00    +0.000 N 
ATOM     10  C   UNL     1       3.754   5.143  19.216  0.00  0.00    +0.000 A 
ATOM     11  H   UNL     1       4.408   3.392  20.214  0.00  0.00    +0.000 HD
BRANCH   2  13
ATOM     12  C   UNL     1       1.132   3.260  19.957  0.00  0.00    +0.000 C 
ATOM     13  C   UNL     1       1.684   4.508  20.629  0.00  0.00    +0.000 C 
ENDBRANCH   2  13
ENDBRANCH   1   7
BRANCH   1  14
ATOM     14  C   UNL     1       6.566   5.145  15.762  0.00  0.00    +0.000 A 
ATOM     15  C   UNL     1       5.419   4.346  15.597  0.00  0.00    +0.000 A 
ATOM     16  C   UNL     1       5.166   3.694  14.384  0.00  0.00    +0.000 A 
ATOM     17  C   UNL     1       6.053   3.839  13.326  0.00  0.00    +0.000 A 
ATOM     18  F   UNL     1       5.811   3.213  12.167  0.00  0.00    +0.000 F 
ATOM     19  C   UNL     1       7.186   4.625  13.453  0.00  0.00    +0.000 A 
ATOM     20  C   UNL     1       7.442   5.272  14.665  0.00  0.00    +0.000 A 
ENDBRANCH   1  14
BRANCH   1  21
ATOM     21  C   UNL     1       7.054   7.320  17.032  0.00  0.00    +0.000 C 
BRANCH  21  22
ATOM     22  C   UNL     1       7.971   7.905  18.085  0.00  0.00    +0.000 C 
ATOM     23  O   UNL     1       8.509   7.254  18.970  0.00  0.00    +0.000 OA
ATOM     24  N   UNL     1       8.204   9.256  17.875  0.00  0.00    +0.000 N 
ATOM     25  H   UNL     1       7.544   9.750  17.286  0.00  0.00    +0.000 HD
BRANCH  24  26
ATOM     26  C   UNL     1       8.920  10.068  18.845  0.00  0.00    +0.000 C 
BRANCH  26  27
ATOM     27  C   UNL     1       9.139  11.537  18.421  0.00  0.00    +0.000 C 
BRANCH  27  28
ATOM     28  N   UNL     1       9.495  12.437  19.540  0.00  0.00    +0.000 NA
ATOM     29  C   UNL     1       9.956  13.757  19.039  0.00  0.00    +0.000 C 
ATOM     30  C   UNL     1      11.400  13.776  18.497  0.00  0.00    +0.000 C 
ATOM     31  O   UNL     1      12.332  13.248  19.449  0.00  0.00    +0.000 OA
ATOM     32  C   UNL     1      11.959  11.915  19.820  0.00  0.00    +0.000 C 
ATOM     33  C   UNL     1      10.549  11.899  20.429  0.00  0.00    +0.000 C 
ENDBRANCH  27  28
ENDBRANCH  26  27
ENDBRANCH  24  26
ENDBRANCH  21  22
ENDBRANCH   1  21
TORSDOF 8
ENDMDL
MODEL 4
REMARK VINA RESULT:      -8.2      2.948      4.639
REMARK  Name = 
REMARK  9 active torsions:
REMARK  status: ('A' for Active; 'I' for Inactive)
REMARK    1  A    between atoms: C_1  and  C_2
REMARK    2  A    between atoms: C_2  and  C_3
REMARK    3  A    between atoms: C_8  and  C_9
REMARK    4  A    between atoms: C_9  and  C_10
REMARK    5  A    between atoms: C_9  and  C_22
REMARK    6  A    between atoms: C_10  and  C_11
REMARK    7  A    between atoms: N_13  and  C_14
REMARK    8  A    between atoms: C_14  and  C_15
REMARK    9  A    between atoms: C_15  and  N_16
REMARK                            x       y       z     vdW  Elec       q    Type
REMARK                         _______ _______ _______ _____ _____    ______ ____
ROOT
ATOM      1  C   UNL     1       4.006   6.296  18.487  0.00  0.00    +0.000 C 
ENDROOT
BRANCH   1   7
ATOM      2  C   UNL     1       0.438   9.742  19.677  0.00  0.00    +0.000 A 
ATOM      3  C   UNL     1       0.116   9.245  20.953  0.00  0.00    +0.000 A 
ATOM      4  C   UNL     1       0.748   8.125  21.481  0.00  0.00    +0.000 A 
ATOM      5  C   UNL     1       1.730   7.452  20.755  0.00  0.00    +0.000 A 
ATOM      6  C   UNL     1       2.078   7.892  19.457  0.00  0.00    +0.000 A 
ATOM      7  C   UNL     1       3.022   7.450  18.464  0.00  0.00    +0.000 A 
ATOM      8  C   UNL     1       2.856   8.302  17.382  0.00  0.00    +0.000 A 
ATOM      9  N   UNL     1       1.909   9.235  17.689  0.00  0.00    +0.000 N 
ATOM     10  C   UNL     1       1.414   9.019  18.956  0.00  0.00    +0.000 A 
ATOM     11  H   UNL     1       1.602   9.976  17.074  0.00  0.00    +0.000 HD
BRANCH   2  13
ATOM     12  C   UNL     1      -1.515  10.679  18.387  0.00  0.00    +0.000 C 
ATOM     13  C   UNL     1      -0.248  10.988  19.169  0.00  0.00    +0.000 C 
ENDBRANCH   2  13
ENDBRANCH   1   7
BRANCH   1  14
ATOM     14  C   UNL     1       3.166   5.019  18.634  0.00  0.00    +0.000 A 
ATOM     15  C   UNL     1       2.129   4.759  17.717  0.00  0.00    +0.000 A 
ATOM     16  C   UNL     1       1.317   3.627  17.853  0.00  0.00    +0.000 A 
ATOM     17  C   UNL     1       1.538   2.743  18.900  0.00  0.00    +0.000 A 
ATOM     18  F   UNL     1       0.759   1.662  19.031  0.00  0.00    +0.000 F 
ATOM     19  C   UNL     1       2.555   2.965  19.814  0.00  0.00    +0.000 A 
ATOM     20  C   UNL     1       3.362   4.097  19.683  0.00  0.00    +0.000 A 
ENDBRANCH   1  14
BRANCH   1  21
ATOM     21  C   UNL     1       4.987   6.250  17.311  0.00  0.00    +0.000 C 
BRANCH  21  22
ATOM     22  C   UNL     1       6.431   6.538  17.664  0.00  0.00    +0.000 C 
ATOM     23  O   UNL     1       7.224   5.698  18.069  0.00  0.00    +0.000 OA
ATOM     24  N   UNL     1       6.778   7.853  17.391  0.00  0.00    +0.000 N 
ATOM     25  H   UNL     1       6.020   8.518  17.296  0.00  0.00    +0.000 HD
BRANCH  24  26
ATOM     26  C   UNL     1       8.059   8.406  17.796  0.00  0.00    +0.000 C 
BRANCH  26  27
ATOM     27  C   UNL     1       8.090   9.945  17.914  0.00  0.00    +0.000 C 
BRANCH  27  28
ATOM     28  N   UNL     1       9.431  10.498  18.204  0.00  0.00    +0.000 NA
ATOM     29  C   UNL     1       9.768  10.359  19.643  0.00  0.00    +0.000 C 
ATOM     30  C   UNL     1       9.089  11.388  20.570  0.00  0.00    +0.000 C 
ATOM     31  O   UNL     1       9.317  12.732  20.129  0.00  0.00    +0.000 OA
ATOM     32  C   UNL     1       8.856  12.897  18.783  0.00  0.00    +0.000 C 
ATOM     33  C   UNL     1       9.582  11.925  17.841  0.00  0.00    +0.000 C 
ENDBRANCH  27  28
ENDBRANCH  26  27
ENDBRANCH  24  26
ENDBRANCH  21  22
ENDBRANCH   1  21
TORSDOF 8
ENDMDL
MODEL 5
REMARK VINA RESULT:      -8.1      0.667      1.143
REMARK  Name = 
REMARK  9 active torsions:
REMARK  status: ('A' for Active; 'I' for Inactive)
REMARK    1  A    between atoms: C_1  and  C_2
REMARK    2  A    between atoms: C_2  and  C_3
REMARK    3  A    between atoms: C_8  and  C_9
REMARK    4  A    between atoms: C_9  and  C_10
REMARK    5  A    between atoms: C_9  and  C_22
REMARK    6  A    between atoms: C_10  and  C_11
REMARK    7  A    between atoms: N_13  and  C_14
REMARK    8  A    between atoms: C_14  and  C_15
REMARK    9  A    between atoms: C_15  and  N_16
REMARK                            x       y       z     vdW  Elec       q    Type
REMARK                         _______ _______ _______ _____ _____    ______ ____
ROOT
ATOM      1  C   UNL     1       6.847   5.686  16.905  0.00  0.00    +0.000 C 
ENDROOT
BRANCH   1   7
ATOM      2  C   UNL     1       2.333   5.336  19.256  0.00  0.00    +0.000 A 
ATOM      3  C   UNL     1       1.831   6.597  18.887  0.00  0.00    +0.000 A 
ATOM      4  C   UNL     1       2.570   7.476  18.103  0.00  0.00    +0.000 A 
ATOM      5  C   UNL     1       3.845   7.131  17.654  0.00  0.00    +0.000 A 
ATOM      6  C   UNL     1       4.411   5.887  18.014  0.00  0.00    +0.000 A 
ATOM      7  C   UNL     1       5.659   5.228  17.730  0.00  0.00    +0.000 A 
ATOM      8  C   UNL     1       5.610   4.019  18.407  0.00  0.00    +0.000 A 
ATOM      9  N   UNL     1       4.403   3.908  19.035  0.00  0.00    +0.000 N 
ATOM     10  C   UNL     1       3.639   5.031  18.812  0.00  0.00    +0.000 A 
ATOM     11  H   UNL     1       4.110   3.120  19.596  0.00  0.00    +0.000 HD
BRANCH   2  13
ATOM     12  C   UNL     1       2.094   4.061  21.417  0.00  0.00    +0.000 C 
ATOM     13  C   UNL     1       1.471   4.402  20.073  0.00  0.00    +0.000 C 
ENDBRANCH   2  13
ENDBRANCH   1   7
BRANCH   1  14
ATOM     14  C   UNL     1       6.658   5.080  15.507  0.00  0.00    +0.000 A 
ATOM     15  C   UNL     1       7.647   5.275  14.525  0.00  0.00    +0.000 A 
ATOM     16  C   UNL     1       7.481   4.774  13.228  0.00  0.00    +0.000 A 
ATOM     17  C   UNL     1       6.330   4.069  12.905  0.00  0.00    +0.000 A 
ATOM     18  F   UNL     1       6.171   3.592  11.664  0.00  0.00    +0.000 F 
ATOM     19  C   UNL     1       5.342   3.852  13.851  0.00  0.00    +0.000 A 
ATOM     20  C   UNL     1       5.504   4.357  15.143  0.00  0.00    +0.000 A 
ENDBRANCH   1  14
BRANCH   1  21
ATOM     21  C   UNL     1       7.087   7.199  16.888  0.00  0.00    +0.000 C 
BRANCH  21  22
ATOM     22  C   UNL     1       7.953   7.727  18.011  0.00  0.00    +0.000 C 
ATOM     23  O   UNL     1       8.437   7.033  18.895  0.00  0.00    +0.000 OA
ATOM     24  N   UNL     1       8.211   9.083  17.872  0.00  0.00    +0.000 N 
ATOM     25  H   UNL     1       7.588   9.610  17.271  0.00  0.00    +0.000 HD
BRANCH  24  26
ATOM     26  C   UNL     1       8.883   9.845  18.912  0.00  0.00    +0.000 C 
BRANCH  26  27
ATOM     27  C   UNL     1       9.769  11.000  18.396  0.00  0.00    +0.000 C 
BRANCH  27  28
ATOM     28  N   UNL     1       9.811  12.172  19.297  0.00  0.00    +0.000 NA
ATOM     29  C   UNL     1       9.893  13.438  18.525  0.00  0.00    +0.000 C 
ATOM     30  C   UNL     1      11.290  13.761  17.957  0.00  0.00    +0.000 C 
ATOM     31  O   UNL     1      12.298  13.729  18.975  0.00  0.00    +0.000 OA
ATOM     32  C   UNL     1      12.310  12.450  19.620  0.00  0.00    +0.000 C 
ATOM     33  C   UNL     1      10.942  12.152  20.252  0.00  0.00    +0.000 C 
ENDBRANCH  27  28
ENDBRANCH  26  27
ENDBRANCH  24  26
ENDBRANCH  21  22
ENDBRANCH   1  21
TORSDOF 8
ENDMDL
MODEL 6
REMARK VINA RESULT:      -8.1      2.960      4.656
REMARK  Name = 
REMARK  9 active torsions:
REMARK  status: ('A' for Active; 'I' for Inactive)
REMARK    1  A    between atoms: C_1  and  C_2
REMARK    2  A    between atoms: C_2  and  C_3
REMARK    3  A    between atoms: C_8  and  C_9
REMARK    4  A    between atoms: C_9  and  C_10
REMARK    5  A    between atoms: C_9  and  C_22
REMARK    6  A    between atoms: C_10  and  C_11
REMARK    7  A    between atoms: N_13  and  C_14
REMARK    8  A    between atoms: C_14  and  C_15
REMARK    9  A    between atoms: C_15  and  N_16
REMARK                            x       y       z     vdW  Elec       q    Type
REMARK                         _______ _______ _______ _____ _____    ______ ____
ROOT
ATOM      1  C   UNL     1       4.024   6.493  18.258  0.00  0.00    +0.000 C 
ENDROOT
BRANCH   1   7
ATOM      2  C   UNL     1       0.401   9.793  19.676  0.00  0.00    +0.000 A 
ATOM      3  C   UNL     1       0.132   9.243  20.943  0.00  0.00    +0.000 A 
ATOM      4  C   UNL     1       0.812   8.125  21.412  0.00  0.00    +0.000 A 
ATOM      5  C   UNL     1       1.789   7.506  20.633  0.00  0.00    +0.000 A 
ATOM      6  C   UNL     1       2.083   7.999  19.342  0.00  0.00    +0.000 A 
ATOM      7  C   UNL     1       3.008   7.618  18.306  0.00  0.00    +0.000 A 
ATOM      8  C   UNL     1       2.785   8.501  17.260  0.00  0.00    +0.000 A 
ATOM      9  N   UNL     1       1.822   9.396  17.628  0.00  0.00    +0.000 N 
ATOM     10  C   UNL     1       1.373   9.123  18.900  0.00  0.00    +0.000 A 
ATOM     11  H   UNL     1       1.476  10.148  17.048  0.00  0.00    +0.000 HD
BRANCH   2  13
ATOM     12  C   UNL     1       0.520  12.288  19.338  0.00  0.00    +0.000 C 
ATOM     13  C   UNL     1      -0.335  11.035  19.232  0.00  0.00    +0.000 C 
ENDBRANCH   2  13
ENDBRANCH   1   7
BRANCH   1  14
ATOM     14  C   UNL     1       3.242   5.198  18.519  0.00  0.00    +0.000 A 
ATOM     15  C   UNL     1       3.666   4.321  19.536  0.00  0.00    +0.000 A 
ATOM     16  C   UNL     1       3.001   3.112  19.766  0.00  0.00    +0.000 A 
ATOM     17  C   UNL     1       1.904   2.770  18.987  0.00  0.00    +0.000 A 
ATOM     18  F   UNL     1       1.269   1.612  19.206  0.00  0.00    +0.000 F 
ATOM     19  C   UNL     1       1.455   3.615  17.985  0.00  0.00    +0.000 A 
ATOM     20  C   UNL     1       2.122   4.819  17.750  0.00  0.00    +0.000 A 
ENDBRANCH   1  14
BRANCH   1  21
ATOM     21  C   UNL     1       4.886   6.443  16.993  0.00  0.00    +0.000 C 
BRANCH  21  22
ATOM     22  C   UNL     1       6.372   6.618  17.217  0.00  0.00    +0.000 C 
ATOM     23  O   UNL     1       7.186   5.704  17.200  0.00  0.00    +0.000 OA
ATOM     24  N   UNL     1       6.721   7.954  17.358  0.00  0.00    +0.000 N 
ATOM     25  H   UNL     1       5.978   8.599  17.600  0.00  0.00    +0.000 HD
BRANCH  24  26
ATOM     26  C   UNL     1       8.063   8.357  17.743  0.00  0.00    +0.000 C 
BRANCH  26  27
ATOM     27  C   UNL     1       8.203   9.847  18.128  0.00  0.00    +0.000 C 
BRANCH  27  28
ATOM     28  N   UNL     1       9.532  10.203  18.669  0.00  0.00    +0.000 NA
ATOM     29  C   UNL     1       9.415  10.810  20.020  0.00  0.00    +0.000 C 
ATOM     30  C   UNL     1       8.960  12.284  20.031  0.00  0.00    +0.000 C 
ATOM     31  O   UNL     1       9.780  13.099  19.184  0.00  0.00    +0.000 OA
ATOM     32  C   UNL     1       9.772  12.588  17.846  0.00  0.00    +0.000 C 
ATOM     33  C   UNL     1      10.294  11.144  17.817  0.00  0.00    +0.000 C 
ENDBRANCH  27  28
ENDBRANCH  26  27
ENDBRANCH  24  26
ENDBRANCH  21  22
ENDBRANCH   1  21
TORSDOF 8
ENDMDL
MODEL 7
REMARK VINA RESULT:      -8.0      6.620     10.646
REMARK  Name = 
REMARK  9 active torsions:
REMARK  status: ('A' for Active; 'I' for Inactive)
REMARK    1  A    between atoms: C_1  and  C_2
REMARK    2  A    between atoms: C_2  and  C_3
REMARK    3  A    between atoms: C_8  and  C_9
REMARK    4  A    between atoms: C_9  and  C_10
REMARK    5  A    between atoms: C_9  and  C_22
REMARK    6  A    between atoms: C_10  and  C_11
REMARK    7  A    between atoms: N_13  and  C_14
REMARK    8  A    between atoms: C_14  and  C_15
REMARK    9  A    between atoms: C_15  and  N_16
REMARK                            x       y       z     vdW  Elec       q    Type
REMARK                         _______ _______ _______ _____ _____    ______ ____
ROOT
ATOM      1  C   UNL     1      -0.005  10.823  19.854  0.00  0.00    +0.000 C 
ENDROOT
BRANCH   1   7
ATOM      2  C   UNL     1      -4.256  11.515  17.120  0.00  0.00    +0.000 A 
ATOM      3  C   UNL     1      -3.928  10.667  16.046  0.00  0.00    +0.000 A 
ATOM      4  C   UNL     1      -2.727   9.969  16.008  0.00  0.00    +0.000 A 
ATOM      5  C   UNL     1      -1.800  10.089  17.042  0.00  0.00    +0.000 A 
ATOM      6  C   UNL     1      -2.064  10.945  18.135  0.00  0.00    +0.000 A 
ATOM      7  C   UNL     1      -1.354  11.290  19.339  0.00  0.00    +0.000 A 
ATOM      8  C   UNL     1      -2.152  12.216  19.995  0.00  0.00    +0.000 A 
ATOM      9  N   UNL     1      -3.298  12.405  19.278  0.00  0.00    +0.000 N 
ATOM     10  C   UNL     1      -3.282  11.638  18.135  0.00  0.00    +0.000 A 
ATOM     11  H   UNL     1      -4.049  13.028  19.539  0.00  0.00    +0.000 HD
BRANCH   2  13
ATOM     12  C   UNL     1      -6.599  11.539  18.050  0.00  0.00    +0.000 C 
ATOM     13  C   UNL     1      -5.594  12.216  17.132  0.00  0.00    +0.000 C 
ENDBRANCH   2  13
ENDBRANCH   1   7
BRANCH   1  14
ATOM     14  C   UNL     1       0.955  12.007  19.677  0.00  0.00    +0.000 A 
ATOM     15  C   UNL     1       1.564  12.228  18.427  0.00  0.00    +0.000 A 
ATOM     16  C   UNL     1       2.480  13.272  18.248  0.00  0.00    +0.000 A 
ATOM     17  C   UNL     1       2.789  14.106  19.313  0.00  0.00    +0.000 A 
ATOM     18  F   UNL     1       3.667  15.104  19.142  0.00  0.00    +0.000 F 
ATOM     19  C   UNL     1       2.201  13.922  20.553  0.00  0.00    +0.000 A 
ATOM     20  C   UNL     1       1.292  12.877  20.735  0.00  0.00    +0.000 A 
ENDBRANCH   1  14
BRANCH   1  21
ATOM     21  C   UNL     1      -0.012  10.247  21.274  0.00  0.00    +0.000 C 
BRANCH  21  22
ATOM     22  C   UNL     1       1.058   9.214  21.555  0.00  0.00    +0.000 C 
ATOM     23  O   UNL     1       1.760   9.202  22.557  0.00  0.00    +0.000 OA
ATOM     24  N   UNL     1       1.089   8.224  20.583  0.00  0.00    +0.000 N 
ATOM     25  H   UNL     1       0.657   8.440  19.693  0.00  0.00    +0.000 HD
BRANCH  24  26
ATOM     26  C   UNL     1       2.136   7.216  20.552  0.00  0.00    +0.000 C 
BRANCH  26  27
ATOM     27  C   UNL     1       1.634   5.760  20.661  0.00  0.00    +0.000 C 
BRANCH  27  28
ATOM     28  N   UNL     1       2.557   4.762  20.078  0.00  0.00    +0.000 NA
ATOM     29  C   UNL     1       2.711   4.967  18.615  0.00  0.00    +0.000 C 
ATOM     30  C   UNL     1       1.534   4.451  17.761  0.00  0.00    +0.000 C 
ATOM     31  O   UNL     1       1.231   3.081  18.046  0.00  0.00    +0.000 OA
ATOM     32  C   UNL     1       0.941   2.917  19.439  0.00  0.00    +0.000 C 
ATOM     33  C   UNL     1       2.137   3.359  20.295  0.00  0.00    +0.000 C 
ENDBRANCH  27  28
ENDBRANCH  26  27
ENDBRANCH  24  26
ENDBRANCH  21  22
ENDBRANCH   1  21
TORSDOF 8
ENDMDL
MODEL 8
REMARK VINA RESULT:      -7.8      1.130      1.977
REMARK  Name = 
REMARK  9 active torsions:
REMARK  status: ('A' for Active; 'I' for Inactive)
REMARK    1  A    between atoms: C_1  and  C_2
REMARK    2  A    between atoms: C_2  and  C_3
REMARK    3  A    between atoms: C_8  and  C_9
REMARK    4  A    between atoms: C_9  and  C_10
REMARK    5  A    between atoms: C_9  and  C_22
REMARK    6  A    between atoms: C_10  and  C_11
REMARK    7  A    between atoms: N_13  and  C_14
REMARK    8  A    between atoms: C_14  and  C_15
REMARK    9  A    between atoms: C_15  and  N_16
REMARK                            x       y       z     vdW  Elec       q    Type
REMARK                         _______ _______ _______ _____ _____    ______ ____
ROOT
ATOM      1  C   UNL     1       6.584   5.901  17.002  0.00  0.00    +0.000 C 
ENDROOT
BRANCH   1   7
ATOM      2  C   UNL     1       2.661   4.135  19.744  0.00  0.00    +0.000 A 
ATOM      3  C   UNL     1       3.252   2.929  20.162  0.00  0.00    +0.000 A 
ATOM      4  C   UNL     1       4.545   2.581  19.786  0.00  0.00    +0.000 A 
ATOM      5  C   UNL     1       5.302   3.424  18.973  0.00  0.00    +0.000 A 
ATOM      6  C   UNL     1       4.751   4.638  18.502  0.00  0.00    +0.000 A 
ATOM      7  C   UNL     1       5.239   5.713  17.678  0.00  0.00    +0.000 A 
ATOM      8  C   UNL     1       4.188   6.611  17.569  0.00  0.00    +0.000 A 
ATOM      9  N   UNL     1       3.133   6.155  18.305  0.00  0.00    +0.000 N 
ATOM     10  C   UNL     1       3.443   4.951  18.896  0.00  0.00    +0.000 A 
ATOM     11  H   UNL     1       2.243   6.625  18.397  0.00  0.00    +0.000 HD
BRANCH   2  13
ATOM     12  C   UNL     1       0.324   3.295  20.178  0.00  0.00    +0.000 C 
ATOM     13  C   UNL     1       1.270   4.485  20.217  0.00  0.00    +0.000 C 
ENDBRANCH   2  13
ENDBRANCH   1   7
BRANCH   1  14
ATOM     14  C   UNL     1       6.484   5.196  15.643  0.00  0.00    +0.000 A 
ATOM     15  C   UNL     1       7.485   5.405  14.675  0.00  0.00    +0.000 A 
ATOM     16  C   UNL     1       7.397   4.812  13.410  0.00  0.00    +0.000 A 
ATOM     17  C   UNL     1       6.313   4.001  13.104  0.00  0.00    +0.000 A 
ATOM     18  F   UNL     1       6.228   3.436  11.892  0.00  0.00    +0.000 F 
ATOM     19  C   UNL     1       5.315   3.768  14.036  0.00  0.00    +0.000 A 
ATOM     20  C   UNL     1       5.399   4.364  15.297  0.00  0.00    +0.000 A 
ENDBRANCH   1  14
BRANCH   1  21
ATOM     21  C   UNL     1       7.069   7.351  16.904  0.00  0.00    +0.000 C 
BRANCH  21  22
ATOM     22  C   UNL     1       7.967   7.809  18.033  0.00  0.00    +0.000 C 
ATOM     23  O   UNL     1       8.452   7.064  18.875  0.00  0.00    +0.000 OA
ATOM     24  N   UNL     1       8.253   9.164  17.951  0.00  0.00    +0.000 N 
ATOM     25  H   UNL     1       7.631   9.731  17.387  0.00  0.00    +0.000 HD
BRANCH  24  26
ATOM     26  C   UNL     1       8.960   9.862  19.011  0.00  0.00    +0.000 C 
BRANCH  26  27
ATOM     27  C   UNL     1       9.856  11.025  18.533  0.00  0.00    +0.000 C 
BRANCH  27  28
ATOM     28  N   UNL     1       9.383  12.360  18.958  0.00  0.00    +0.000 NA
ATOM     29  C   UNL     1       9.360  13.309  17.815  0.00  0.00    +0.000 C 
ATOM     30  C   UNL     1      10.739  13.871  17.412  0.00  0.00    +0.000 C 
ATOM     31  O   UNL     1      11.425  14.448  18.529  0.00  0.00    +0.000 OA
ATOM     32  C   UNL     1      11.572  13.480  19.574  0.00  0.00    +0.000 C 
ATOM     33  C   UNL     1      10.198  12.970  20.033  0.00  0.00    +0.000 C 
ENDBRANCH  27  28
ENDBRANCH  26  27
ENDBRANCH  24  26
ENDBRANCH  21  22
ENDBRANCH   1  21
TORSDOF 8
ENDMDL
MODEL 9
REMARK VINA RESULT:      -7.8      4.979      7.511
REMARK  Name = 
REMARK  9 active torsions:
REMARK  status: ('A' for Active; 'I' for Inactive)
REMARK    1  A    between atoms: C_1  and  C_2
REMARK    2  A    between atoms: C_2  and  C_3
REMARK    3  A    between atoms: C_8  and  C_9
REMARK    4  A    between atoms: C_9  and  C_10
REMARK    5  A    between atoms: C_9  and  C_22
REMARK    6  A    between atoms: C_10  and  C_11
REMARK    7  A    between atoms: N_13  and  C_14
REMARK    8  A    between atoms: C_14  and  C_15
REMARK    9  A    between atoms: C_15  and  N_16
REMARK                            x       y       z     vdW  Elec       q    Type
REMARK                         _______ _______ _______ _____ _____    ______ ____
ROOT
ATOM      1  C   UNL     1       3.169   6.982  19.134  0.00  0.00    +0.000 C 
ENDROOT
BRANCH   1   7
ATOM      2  C   UNL     1      -0.375  10.551  19.987  0.00  0.00    +0.000 A 
ATOM      3  C   UNL     1      -0.519  10.345  21.371  0.00  0.00    +0.000 A 
ATOM      4  C   UNL     1       0.221   9.381  22.047  0.00  0.00    +0.000 A 
ATOM      5  C   UNL     1       1.136   8.579  21.366  0.00  0.00    +0.000 A 
ATOM      6  C   UNL     1       1.304   8.723  19.970  0.00  0.00    +0.000 A 
ATOM      7  C   UNL     1       2.139   8.086  18.985  0.00  0.00    +0.000 A 
ATOM      8  C   UNL     1       1.807   8.673  17.773  0.00  0.00    +0.000 A 
ATOM      9  N   UNL     1       0.864   9.637  17.987  0.00  0.00    +0.000 N 
ATOM     10  C   UNL     1       0.536   9.701  19.323  0.00  0.00    +0.000 A 
ATOM     11  H   UNL     1       0.453  10.217  17.269  0.00  0.00    +0.000 HD
BRANCH   2  13
ATOM     12  C   UNL     1      -2.312  11.094  18.467  0.00  0.00    +0.000 C 
ATOM     13  C   UNL     1      -1.172  11.642  19.310  0.00  0.00    +0.000 C 
ENDBRANCH   2  13
ENDBRANCH   1   7
BRANCH   1  14
ATOM     14  C   UNL     1       2.382   5.663  19.150  0.00  0.00    +0.000 A 
ATOM     15  C   UNL     1       2.106   5.003  17.938  0.00  0.00    +0.000 A 
ATOM     16  C   UNL     1       1.352   3.824  17.917  0.00  0.00    +0.000 A 
ATOM     17  C   UNL     1       0.874   3.291  19.107  0.00  0.00    +0.000 A 
ATOM     18  F   UNL     1       0.151   2.164  19.086  0.00  0.00    +0.000 F 
ATOM     19  C   UNL     1       1.136   3.911  20.317  0.00  0.00    +0.000 A 
ATOM     20  C   UNL     1       1.883   5.091  20.338  0.00  0.00    +0.000 A 
ENDBRANCH   1  14
BRANCH   1  21
ATOM     21  C   UNL     1       4.304   7.003  18.105  0.00  0.00    +0.000 C 
BRANCH  21  22
ATOM     22  C   UNL     1       5.225   5.803  18.137  0.00  0.00    +0.000 C 
ATOM     23  O   UNL     1       5.606   5.251  19.161  0.00  0.00    +0.000 OA
ATOM     24  N   UNL     1       5.517   5.341  16.862  0.00  0.00    +0.000 N 
ATOM     25  H   UNL     1       5.366   5.985  16.094  0.00  0.00    +0.000 HD
BRANCH  24  26
ATOM     26  C   UNL     1       6.508   4.302  16.633  0.00  0.00    +0.000 C 
BRANCH  26  27
ATOM     27  C   UNL     1       6.395   3.592  15.266  0.00  0.00    +0.000 C 
BRANCH  27  28
ATOM     28  N   UNL     1       5.804   4.432  14.201  0.00  0.00    +0.000 NA
ATOM     29  C   UNL     1       5.401   3.609  13.033  0.00  0.00    +0.000 C 
ATOM     30  C   UNL     1       6.561   3.174  12.115  0.00  0.00    +0.000 C 
ATOM     31  O   UNL     1       7.352   4.291  11.691  0.00  0.00    +0.000 OA
ATOM     32  C   UNL     1       7.859   4.998  12.829  0.00  0.00    +0.000 C 
ATOM     33  C   UNL     1       6.705   5.499  13.711  0.00  0.00    +0.000 C 
ENDBRANCH  27  28
ENDBRANCH  26  27
ENDBRANCH  24  26
ENDBRANCH  21  22
ENDBRANCH   1  21
TORSDOF 8
ENDMDL
