MODEL 1
REMARK VINA RESULT:      -6.2      0.000      0.000
REMARK  Name = 
REMARK  7 active torsions:
REMARK  status: ('A' for Active; 'I' for Inactive)
REMARK    1  A    between atoms: C_1  and  O_2
REMARK    2  A    between atoms: O_2  and  C_3
REMARK    3  A    between atoms: C_8  and  C_9
REMARK    4  A    between atoms: C_12  and  S_13
REMARK    5  A    between atoms: S_13  and  C_14
REMARK    6  A    between atoms: C_14  and  C_15
REMARK    7  A    between atoms: C_15  and  N_16
REMARK                            x       y       z     vdW  Elec       q    Type
REMARK                         _______ _______ _______ _____ _____    ______ ____
ROOT
ATOM      1  C   UNL     1       6.015   5.758  16.629  0.00  0.00    +0.000 A 
ATOM      2  C   UNL     1       5.256   6.919  16.595  0.00  0.00    +0.000 A 
ATOM      3  C   UNL     1       4.158   7.072  17.443  0.00  0.00    +0.000 A 
ATOM      4  C   UNL     1       3.826   6.036  18.338  0.00  0.00    +0.000 A 
ATOM      5  S   UNL     1       2.537   6.058  19.461  0.00  0.00    +0.000 S 
ATOM      6  C   UNL     1       2.853   4.469  20.009  0.00  0.00    +0.000 A 
ATOM      7  C   UNL     1       3.970   3.939  19.374  0.00  0.00    +0.000 A 
ATOM      8  C   UNL     1       4.550   4.843  18.396  0.00  0.00    +0.000 A 
ATOM      9  C   UNL     1       5.662   4.726  17.514  0.00  0.00    +0.000 A 
ENDROOT
BRANCH   6  10
ATOM     10  C   UNL     1       1.941   3.934  21.008  0.00  0.00    +0.000 C 
ATOM     11  N   UNL     1       0.661   3.680  20.602  0.00  0.00    +0.000 N 
ATOM     12  O   UNL     1       2.225   3.728  22.186  0.00  0.00    +0.000 OA
ATOM     13  H   UNL     1       0.343   3.882  19.665  0.00  0.00    +0.000 HD
ATOM     14  H   UNL     1       0.002   3.371  21.302  0.00  0.00    +0.000 HD
ENDBRANCH   6  10
BRANCH   1  16
ATOM     15  C   UNL     1       6.889   4.857  14.610  0.00  0.00    +0.000 C 
ATOM     16  O   UNL     1       7.117   5.506  15.857  0.00  0.00    +0.000 OA
ENDBRANCH   1  16
BRANCH   7  17
ATOM     17  S   UNL     1       4.586   2.298  19.657  0.00  0.00    +0.000 S 
BRANCH  17  18
ATOM     18  C   UNL     1       3.602   1.266  18.523  0.00  0.00    +0.000 C 
BRANCH  18  19
ATOM     19  C   UNL     1       2.571   2.039  17.695  0.00  0.00    +0.000 C 
BRANCH  19  20
ATOM     20  N   UNL     1       1.218   1.803  18.208  0.00  0.00    +0.000 NA
ATOM     21  H   UNL     1       1.256   1.186  19.019  0.00  0.00    +0.000 HD
ATOM     22  H   UNL     1       0.670   1.310  17.503  0.00  0.00    +0.000 HD
ENDBRANCH  19  20
ENDBRANCH  18  19
ENDBRANCH  17  18
ENDBRANCH   7  17
TORSDOF 6
ENDMDL
MODEL 2
REMARK VINA RESULT:      -6.2      2.596      3.834
REMARK  Name = 
REMARK  7 active torsions:
REMARK  status: ('A' for Active; 'I' for Inactive)
REMARK    1  A    between atoms: C_1  and  O_2
REMARK    2  A    between atoms: O_2  and  C_3
REMARK    3  A    between atoms: C_8  and  C_9
REMARK    4  A    between atoms: C_12  and  S_13
REMARK    5  A    between atoms: S_13  and  C_14
REMARK    6  A    between atoms: C_14  and  C_15
REMARK    7  A    between atoms: C_15  and  N_16
REMARK                            x       y       z     vdW  Elec       q    Type
REMARK                         _______ _______ _______ _____ _____    ______ ____
ROOT
ATOM      1  C   UNL     1       2.449   7.980  18.586  0.00  0.00    +0.000 A 
ATOM      2  C   UNL     1       3.380   7.996  17.557  0.00  0.00    +0.000 A 
ATOM      3  C   UNL     1       4.168   6.874  17.298  0.00  0.00    +0.000 A 
ATOM      4  C   UNL     1       4.010   5.721  18.091  0.00  0.00    +0.000 A 
ATOM      5  S   UNL     1       4.867   4.253  17.904  0.00  0.00    +0.000 S 
ATOM      6  C   UNL     1       4.112   3.522  19.255  0.00  0.00    +0.000 A 
ATOM      7  C   UNL     1       3.171   4.377  19.817  0.00  0.00    +0.000 A 
ATOM      8  C   UNL     1       3.099   5.663  19.147  0.00  0.00    +0.000 A 
ATOM      9  C   UNL     1       2.314   6.829  19.379  0.00  0.00    +0.000 A 
ENDROOT
BRANCH   6  10
ATOM     10  C   UNL     1       4.554   2.180  19.597  0.00  0.00    +0.000 C 
ATOM     11  N   UNL     1       4.242   1.183  18.716  0.00  0.00    +0.000 N 
ATOM     12  O   UNL     1       5.153   1.874  20.626  0.00  0.00    +0.000 OA
ATOM     13  H   UNL     1       3.700   1.353  17.880  0.00  0.00    +0.000 HD
ATOM     14  H   UNL     1       4.486   0.238  18.974  0.00  0.00    +0.000 HD
ENDBRANCH   6  10
BRANCH   1  16
ATOM     15  C   UNL     1       1.712  10.194  18.127  0.00  0.00    +0.000 C 
ATOM     16  O   UNL     1       1.615   9.014  18.919  0.00  0.00    +0.000 OA
ENDBRANCH   1  16
BRANCH   7  17
ATOM     17  S   UNL     1       2.208   3.981  21.255  0.00  0.00    +0.000 S 
BRANCH  17  18
ATOM     18  C   UNL     1       1.095   2.659  20.680  0.00  0.00    +0.000 C 
BRANCH  18  19
ATOM     19  C   UNL     1       0.583   2.840  19.247  0.00  0.00    +0.000 C 
BRANCH  19  20
ATOM     20  N   UNL     1       1.083   1.765  18.384  0.00  0.00    +0.000 NA
ATOM     21  H   UNL     1       1.511   1.033  18.950  0.00  0.00    +0.000 HD
ATOM     22  H   UNL     1       1.823   2.130  17.784  0.00  0.00    +0.000 HD
ENDBRANCH  19  20
ENDBRANCH  18  19
ENDBRANCH  17  18
ENDBRANCH   7  17
TORSDOF 6
ENDMDL
MODEL 3
REMARK VINA RESULT:      -6.0      3.338      4.575
REMARK  Name = 
REMARK  7 active torsions:
REMARK  status: ('A' for Active; 'I' for Inactive)
REMARK    1  A    between atoms: C_1  and  O_2
REMARK    2  A    between atoms: O_2  and  C_3
REMARK    3  A    between atoms: C_8  and  C_9
REMARK    4  A    between atoms: C_12  and  S_13
REMARK    5  A    between atoms: S_13  and  C_14
REMARK    6  A    between atoms: C_14  and  C_15
REMARK    7  A    between atoms: C_15  and  N_16
REMARK                            x       y       z     vdW  Elec       q    Type
REMARK                         _______ _______ _______ _____ _____    ______ ____
ROOT
ATOM      1  C   UNL     1       2.312   8.411  18.318  0.00  0.00    +0.000 A 
ATOM      2  C   UNL     1       1.689   8.274  19.550  0.00  0.00    +0.000 A 
ATOM      3  C   UNL     1       1.779   7.076  20.260  0.00  0.00    +0.000 A 
ATOM      4  C   UNL     1       2.511   6.003  19.714  0.00  0.00    +0.000 A 
ATOM      5  S   UNL     1       2.747   4.477  20.448  0.00  0.00    +0.000 S 
ATOM      6  C   UNL     1       3.627   3.860  19.117  0.00  0.00    +0.000 A 
ATOM      7  C   UNL     1       3.784   4.831  18.135  0.00  0.00    +0.000 A 
ATOM      8  C   UNL     1       3.139   6.088  18.470  0.00  0.00    +0.000 A 
ATOM      9  C   UNL     1       3.023   7.328  17.777  0.00  0.00    +0.000 A 
ENDROOT
BRANCH   6  10
ATOM     10  C   UNL     1       4.053   2.473  19.208  0.00  0.00    +0.000 C 
ATOM     11  N   UNL     1       5.102   2.202  20.042  0.00  0.00    +0.000 N 
ATOM     12  O   UNL     1       3.566   1.540  18.572  0.00  0.00    +0.000 OA
ATOM     13  H   UNL     1       5.588   2.928  20.549  0.00  0.00    +0.000 HD
ATOM     14  H   UNL     1       5.449   1.254  20.064  0.00  0.00    +0.000 HD
ENDBRANCH   6  10
BRANCH   1  16
ATOM     15  C   UNL     1       1.882  10.746  18.177  0.00  0.00    +0.000 C 
ATOM     16  O   UNL     1       2.302   9.541  17.544  0.00  0.00    +0.000 OA
ENDBRANCH   1  16
BRANCH   7  17
ATOM     17  S   UNL     1       4.614   4.552  16.590  0.00  0.00    +0.000 S 
BRANCH  17  18
ATOM     18  C   UNL     1       6.098   5.602  16.702  0.00  0.00    +0.000 C 
BRANCH  18  19
ATOM     19  C   UNL     1       6.848   5.501  18.034  0.00  0.00    +0.000 C 
BRANCH  19  20
ATOM     20  N   UNL     1       7.676   4.291  18.067  0.00  0.00    +0.000 NA
ATOM     21  H   UNL     1       8.578   4.473  17.629  0.00  0.00    +0.000 HD
ATOM     22  H   UNL     1       7.231   3.562  17.508  0.00  0.00    +0.000 HD
ENDBRANCH  19  20
ENDBRANCH  18  19
ENDBRANCH  17  18
ENDBRANCH   7  17
TORSDOF 6
ENDMDL
MODEL 4
REMARK VINA RESULT:      -6.0      3.180      4.502
REMARK  Name = 
REMARK  7 active torsions:
REMARK  status: ('A' for Active; 'I' for Inactive)
REMARK    1  A    between atoms: C_1  and  O_2
REMARK    2  A    between atoms: O_2  and  C_3
REMARK    3  A    between atoms: C_8  and  C_9
REMARK    4  A    between atoms: C_12  and  S_13
REMARK    5  A    between atoms: S_13  and  C_14
REMARK    6  A    between atoms: C_14  and  C_15
REMARK    7  A    between atoms: C_15  and  N_16
REMARK                            x       y       z     vdW  Elec       q    Type
REMARK                         _______ _______ _______ _____ _____    ______ ____
ROOT
ATOM      1  C   UNL     1       2.481   8.235  18.329  0.00  0.00    +0.000 A 
ATOM      2  C   UNL     1       1.667   8.063  19.440  0.00  0.00    +0.000 A 
ATOM      3  C   UNL     1       1.706   6.873  20.168  0.00  0.00    +0.000 A 
ATOM      4  C   UNL     1       2.583   5.846  19.767  0.00  0.00    +0.000 A 
ATOM      5  S   UNL     1       2.782   4.338  20.549  0.00  0.00    +0.000 S 
ATOM      6  C   UNL     1       3.911   3.774  19.394  0.00  0.00    +0.000 A 
ATOM      7  C   UNL     1       4.175   4.751  18.442  0.00  0.00    +0.000 A 
ATOM      8  C   UNL     1       3.408   5.967  18.647  0.00  0.00    +0.000 A 
ATOM      9  C   UNL     1       3.337   7.196  17.931  0.00  0.00    +0.000 A 
ENDROOT
BRANCH   6  10
ATOM     10  C   UNL     1       4.397   2.415  19.573  0.00  0.00    +0.000 C 
ATOM     11  N   UNL     1       3.981   1.486  18.662  0.00  0.00    +0.000 N 
ATOM     12  O   UNL     1       5.120   2.038  20.493  0.00  0.00    +0.000 OA
ATOM     13  H   UNL     1       3.340   1.713  17.915  0.00  0.00    +0.000 HD
ATOM     14  H   UNL     1       4.258   0.526  18.813  0.00  0.00    +0.000 HD
ENDBRANCH   6  10
BRANCH   1  16
ATOM     15  C   UNL     1       1.941  10.539  18.089  0.00  0.00    +0.000 C 
ATOM     16  O   UNL     1       2.536   9.361  17.552  0.00  0.00    +0.000 OA
ENDBRANCH   1  16
BRANCH   7  17
ATOM     17  S   UNL     1       5.271   4.521  17.064  0.00  0.00    +0.000 S 
BRANCH  17  18
ATOM     18  C   UNL     1       6.929   4.619  17.810  0.00  0.00    +0.000 C 
BRANCH  18  19
ATOM     19  C   UNL     1       7.162   5.860  18.678  0.00  0.00    +0.000 C 
BRANCH  19  20
ATOM     20  N   UNL     1       7.689   5.476  19.992  0.00  0.00    +0.000 NA
ATOM     21  H   UNL     1       8.064   4.529  19.954  0.00  0.00    +0.000 HD
ATOM     22  H   UNL     1       6.925   5.452  20.668  0.00  0.00    +0.000 HD
ENDBRANCH  19  20
ENDBRANCH  18  19
ENDBRANCH  17  18
ENDBRANCH   7  17
TORSDOF 6
ENDMDL
MODEL 5
REMARK VINA RESULT:      -5.9      1.155      1.266
REMARK  Name = 
REMARK  7 active torsions:
REMARK  status: ('A' for Active; 'I' for Inactive)
REMARK    1  A    between atoms: C_1  and  O_2
REMARK    2  A    between atoms: O_2  and  C_3
REMARK    3  A    between atoms: C_8  and  C_9
REMARK    4  A    between atoms: C_12  and  S_13
REMARK    5  A    between atoms: S_13  and  C_14
REMARK    6  A    between atoms: C_14  and  C_15
REMARK    7  A    between atoms: C_15  and  N_16
REMARK                            x       y       z     vdW  Elec       q    Type
REMARK                         _______ _______ _______ _____ _____    ______ ____
ROOT
ATOM      1  C   UNL     1       4.970   6.766  17.193  0.00  0.00    +0.000 A 
ATOM      2  C   UNL     1       3.973   7.707  17.406  0.00  0.00    +0.000 A 
ATOM      3  C   UNL     1       2.948   7.458  18.320  0.00  0.00    +0.000 A 
ATOM      4  C   UNL     1       2.936   6.240  19.028  0.00  0.00    +0.000 A 
ATOM      5  S   UNL     1       1.779   5.775  20.199  0.00  0.00    +0.000 S 
ATOM      6  C   UNL     1       2.486   4.235  20.433  0.00  0.00    +0.000 A 
ATOM      7  C   UNL     1       3.631   4.093  19.659  0.00  0.00    +0.000 A 
ATOM      8  C   UNL     1       3.908   5.256  18.834  0.00  0.00    +0.000 A 
ATOM      9  C   UNL     1       4.935   5.550  17.892  0.00  0.00    +0.000 A 
ENDROOT
BRANCH   6  10
ATOM     10  C   UNL     1       1.808   3.345  21.362  0.00  0.00    +0.000 C 
ATOM     11  N   UNL     1       0.602   2.840  20.964  0.00  0.00    +0.000 N 
ATOM     12  O   UNL     1       2.220   3.043  22.481  0.00  0.00    +0.000 OA
ATOM     13  H   UNL     1       0.177   3.092  20.084  0.00  0.00    +0.000 HD
ATOM     14  H   UNL     1       0.092   2.274  21.626  0.00  0.00    +0.000 HD
ENDBRANCH   6  10
BRANCH   1  16
ATOM     15  C   UNL     1       7.313   7.074  16.925  0.00  0.00    +0.000 C 
ATOM     16  O   UNL     1       6.027   6.911  16.334  0.00  0.00    +0.000 OA
ENDBRANCH   1  16
BRANCH   7  17
ATOM     17  S   UNL     1       4.618   2.618  19.610  0.00  0.00    +0.000 S 
BRANCH  17  18
ATOM     18  C   UNL     1       3.590   1.442  18.674  0.00  0.00    +0.000 C 
BRANCH  18  19
ATOM     19  C   UNL     1       2.614   2.095  17.690  0.00  0.00    +0.000 C 
BRANCH  19  20
ATOM     20  N   UNL     1       1.228   1.842  18.095  0.00  0.00    +0.000 NA
ATOM     21  H   UNL     1       0.590   2.382  17.512  0.00  0.00    +0.000 HD
ATOM     22  H   UNL     1       1.090   2.174  19.050  0.00  0.00    +0.000 HD
ENDBRANCH  19  20
ENDBRANCH  18  19
ENDBRANCH  17  18
ENDBRANCH   7  17
TORSDOF 6
ENDMDL
MODEL 6
REMARK VINA RESULT:      -5.9      3.345      4.551
REMARK  Name = 
REMARK  7 active torsions:
REMARK  status: ('A' for Active; 'I' for Inactive)
REMARK    1  A    between atoms: C_1  and  O_2
REMARK    2  A    between atoms: O_2  and  C_3
REMARK    3  A    between atoms: C_8  and  C_9
REMARK    4  A    between atoms: C_12  and  S_13
REMARK    5  A    between atoms: S_13  and  C_14
REMARK    6  A    between atoms: C_14  and  C_15
REMARK    7  A    between atoms: C_15  and  N_16
REMARK                            x       y       z     vdW  Elec       q    Type
REMARK                         _______ _______ _______ _____ _____    ______ ____
ROOT
ATOM      1  C   UNL     1       2.348   8.097  18.427  0.00  0.00    +0.000 A 
ATOM      2  C   UNL     1       1.782   7.984  19.689  0.00  0.00    +0.000 A 
ATOM      3  C   UNL     1       1.880   6.790  20.404  0.00  0.00    +0.000 A 
ATOM      4  C   UNL     1       2.563   5.698  19.835  0.00  0.00    +0.000 A 
ATOM      5  S   UNL     1       2.803   4.173  20.571  0.00  0.00    +0.000 S 
ATOM      6  C   UNL     1       3.607   3.526  19.206  0.00  0.00    +0.000 A 
ATOM      7  C   UNL     1       3.737   4.486  18.209  0.00  0.00    +0.000 A 
ATOM      8  C   UNL     1       3.134   5.759  18.562  0.00  0.00    +0.000 A 
ATOM      9  C   UNL     1       3.011   6.995  17.864  0.00  0.00    +0.000 A 
ENDROOT
BRANCH   6  10
ATOM     10  C   UNL     1       4.008   2.131  19.290  0.00  0.00    +0.000 C 
ATOM     11  N   UNL     1       4.995   1.826  20.184  0.00  0.00    +0.000 N 
ATOM     12  O   UNL     1       3.552   1.221  18.600  0.00  0.00    +0.000 OA
ATOM     13  H   UNL     1       5.455   2.532  20.741  0.00  0.00    +0.000 HD
ATOM     14  H   UNL     1       5.328   0.873  20.205  0.00  0.00    +0.000 HD
ENDBRANCH   6  10
BRANCH   1  16
ATOM     15  C   UNL     1       1.638  10.352  18.170  0.00  0.00    +0.000 C 
ATOM     16  O   UNL     1       2.325   9.221  17.644  0.00  0.00    +0.000 OA
ENDBRANCH   1  16
BRANCH   7  17
ATOM     17  S   UNL     1       4.487   4.177  16.629  0.00  0.00    +0.000 S 
BRANCH  17  18
ATOM     18  C   UNL     1       6.237   4.612  16.890  0.00  0.00    +0.000 C 
BRANCH  18  19
ATOM     19  C   UNL     1       7.101   4.548  15.627  0.00  0.00    +0.000 C 
BRANCH  19  20
ATOM     20  N   UNL     1       6.731   5.618  14.696  0.00  0.00    +0.000 NA
ATOM     21  H   UNL     1       6.820   6.524  15.153  0.00  0.00    +0.000 HD
ATOM     22  H   UNL     1       5.747   5.522  14.445  0.00  0.00    +0.000 HD
ENDBRANCH  19  20
ENDBRANCH  18  19
ENDBRANCH  17  18
ENDBRANCH   7  17
TORSDOF 6
ENDMDL
MODEL 7
REMARK VINA RESULT:      -5.9      3.414      4.824
REMARK  Name = 
REMARK  7 active torsions:
REMARK  status: ('A' for Active; 'I' for Inactive)
REMARK    1  A    between atoms: C_1  and  O_2
REMARK    2  A    between atoms: O_2  and  C_3
REMARK    3  A    between atoms: C_8  and  C_9
REMARK    4  A    between atoms: C_12  and  S_13
REMARK    5  A    between atoms: S_13  and  C_14
REMARK    6  A    between atoms: C_14  and  C_15
REMARK    7  A    between atoms: C_15  and  N_16
REMARK                            x       y       z     vdW  Elec       q    Type
REMARK                         _______ _______ _______ _____ _____    ______ ____
ROOT
ATOM      1  C   UNL     1       2.153   8.956  18.281  0.00  0.00    +0.000 A 
ATOM      2  C   UNL     1       1.450   8.694  19.448  0.00  0.00    +0.000 A 
ATOM      3  C   UNL     1       1.606   7.474  20.109  0.00  0.00    +0.000 A 
ATOM      4  C   UNL     1       2.486   6.510  19.581  0.00  0.00    +0.000 A 
ATOM      5  S   UNL     1       2.819   4.978  20.264  0.00  0.00    +0.000 S 
ATOM      6  C   UNL     1       3.863   4.522  18.987  0.00  0.00    +0.000 A 
ATOM      7  C   UNL     1       3.997   5.554  18.066  0.00  0.00    +0.000 A 
ATOM      8  C   UNL     1       3.201   6.722  18.400  0.00  0.00    +0.000 A 
ATOM      9  C   UNL     1       3.013   7.979  17.756  0.00  0.00    +0.000 A 
ENDROOT
BRANCH   6  10
ATOM     10  C   UNL     1       4.420   3.181  19.053  0.00  0.00    +0.000 C 
ATOM     11  N   UNL     1       4.058   2.312  18.063  0.00  0.00    +0.000 N 
ATOM     12  O   UNL     1       5.160   2.766  19.944  0.00  0.00    +0.000 OA
ATOM     13  H   UNL     1       3.408   2.568  17.333  0.00  0.00    +0.000 HD
ATOM     14  H   UNL     1       4.386   1.360  18.134  0.00  0.00    +0.000 HD
ENDBRANCH   6  10
BRANCH   1  16
ATOM     15  C   UNL     1       1.861  11.316  18.297  0.00  0.00    +0.000 C 
ATOM     16  O   UNL     1       2.089  10.119  17.560  0.00  0.00    +0.000 OA
ENDBRANCH   1  16
BRANCH   7  17
ATOM     17  S   UNL     1       4.973   5.441  16.587  0.00  0.00    +0.000 S 
BRANCH  17  18
ATOM     18  C   UNL     1       6.552   6.223  17.051  0.00  0.00    +0.000 C 
BRANCH  18  19
ATOM     19  C   UNL     1       7.467   5.345  17.910  0.00  0.00    +0.000 C 
BRANCH  19  20
ATOM     20  N   UNL     1       7.924   4.180  17.147  0.00  0.00    +0.000 NA
ATOM     21  H   UNL     1       8.622   3.665  17.682  0.00  0.00    +0.000 HD
ATOM     22  H   UNL     1       8.395   4.495  16.298  0.00  0.00    +0.000 HD
ENDBRANCH  19  20
ENDBRANCH  18  19
ENDBRANCH  17  18
ENDBRANCH   7  17
TORSDOF 6
ENDMDL
MODEL 8
REMARK VINA RESULT:      -5.9      2.711      4.152
REMARK  Name = 
REMARK  7 active torsions:
REMARK  status: ('A' for Active; 'I' for Inactive)
REMARK    1  A    between atoms: C_1  and  O_2
REMARK    2  A    between atoms: O_2  and  C_3
REMARK    3  A    between atoms: C_8  and  C_9
REMARK    4  A    between atoms: C_12  and  S_13
REMARK    5  A    between atoms: S_13  and  C_14
REMARK    6  A    between atoms: C_14  and  C_15
REMARK    7  A    between atoms: C_15  and  N_16
REMARK                            x       y       z     vdW  Elec       q    Type
REMARK                         _______ _______ _______ _____ _____    ______ ____
ROOT
ATOM      1  C   UNL     1       6.780   6.322  16.801  0.00  0.00    +0.000 A 
ATOM      2  C   UNL     1       7.052   5.053  16.308  0.00  0.00    +0.000 A 
ATOM      3  C   UNL     1       6.127   4.020  16.466  0.00  0.00    +0.000 A 
ATOM      4  C   UNL     1       4.911   4.276  17.129  0.00  0.00    +0.000 A 
ATOM      5  S   UNL     1       3.656   3.144  17.392  0.00  0.00    +0.000 S 
ATOM      6  C   UNL     1       2.698   4.258  18.269  0.00  0.00    +0.000 A 
ATOM      7  C   UNL     1       3.310   5.504  18.319  0.00  0.00    +0.000 A 
ATOM      8  C   UNL     1       4.601   5.532  17.657  0.00  0.00    +0.000 A 
ATOM      9  C   UNL     1       5.572   6.559  17.476  0.00  0.00    +0.000 A 
ENDROOT
BRANCH   6  10
ATOM     10  C   UNL     1       1.447   3.750  18.810  0.00  0.00    +0.000 C 
ATOM     11  N   UNL     1       1.256   3.887  20.156  0.00  0.00    +0.000 N 
ATOM     12  O   UNL     1       0.573   3.183  18.158  0.00  0.00    +0.000 OA
ATOM     13  H   UNL     1       1.958   4.290  20.762  0.00  0.00    +0.000 HD
ATOM     14  H   UNL     1       0.422   3.481  20.554  0.00  0.00    +0.000 HD
ENDBRANCH   6  10
BRANCH   1  16
ATOM     15  C   UNL     1       7.904   8.109  17.896  0.00  0.00    +0.000 C 
ATOM     16  O   UNL     1       7.605   7.410  16.692  0.00  0.00    +0.000 OA
ENDBRANCH   1  16
BRANCH   7  17
ATOM     17  S   UNL     1       2.632   6.906  19.173  0.00  0.00    +0.000 S 
BRANCH  17  18
ATOM     18  C   UNL     1       2.200   8.060  17.831  0.00  0.00    +0.000 C 
BRANCH  18  19
ATOM     19  C   UNL     1       1.490   9.336  18.296  0.00  0.00    +0.000 C 
BRANCH  19  20
ATOM     20  N   UNL     1       1.982  10.498  17.551  0.00  0.00    +0.000 NA
ATOM     21  H   UNL     1       1.561  10.522  16.623  0.00  0.00    +0.000 HD
ATOM     22  H   UNL     1       2.987  10.405  17.404  0.00  0.00    +0.000 HD
ENDBRANCH  19  20
ENDBRANCH  18  19
ENDBRANCH  17  18
ENDBRANCH   7  17
TORSDOF 6
ENDMDL
MODEL 9
REMARK VINA RESULT:      -5.8      2.538      4.811
REMARK  Name = 
REMARK  7 active torsions:
REMARK  status: ('A' for Active; 'I' for Inactive)
REMARK    1  A    between atoms: C_1  and  O_2
REMARK    2  A    between atoms: O_2  and  C_3
REMARK    3  A    between atoms: C_8  and  C_9
REMARK    4  A    between atoms: C_12  and  S_13
REMARK    5  A    between atoms: S_13  and  C_14
REMARK    6  A    between atoms: C_14  and  C_15
REMARK    7  A    between atoms: C_15  and  N_16
REMARK                            x       y       z     vdW  Elec       q    Type
REMARK                         _______ _______ _______ _____ _____    ______ ____
ROOT
ATOM      1  C   UNL     1       2.019   7.406  19.672  0.00  0.00    +0.000 A 
ATOM      2  C   UNL     1       2.174   8.376  18.693  0.00  0.00    +0.000 A 
ATOM      3  C   UNL     1       3.076   8.187  17.645  0.00  0.00    +0.000 A 
ATOM      4  C   UNL     1       3.829   6.998  17.589  0.00  0.00    +0.000 A 
ATOM      5  S   UNL     1       4.959   6.585  16.373  0.00  0.00    +0.000 S 
ATOM      6  C   UNL     1       5.387   5.112  17.129  0.00  0.00    +0.000 A 
ATOM      7  C   UNL     1       4.635   4.909  18.280  0.00  0.00    +0.000 A 
ATOM      8  C   UNL     1       3.720   6.001  18.561  0.00  0.00    +0.000 A 
ATOM      9  C   UNL     1       2.789   6.233  19.613  0.00  0.00    +0.000 A 
ENDROOT
BRANCH   6  10
ATOM     10  C   UNL     1       6.432   4.332  16.484  0.00  0.00    +0.000 C 
ATOM     11  N   UNL     1       6.031   3.254  15.746  0.00  0.00    +0.000 N 
ATOM     12  O   UNL     1       7.638   4.549  16.580  0.00  0.00    +0.000 OA
ATOM     13  H   UNL     1       5.061   2.983  15.672  0.00  0.00    +0.000 HD
ATOM     14  H   UNL     1       6.750   2.667  15.347  0.00  0.00    +0.000 HD
ENDBRANCH   6  10
BRANCH   1  16
ATOM     15  C   UNL     1       1.297   8.603  21.596  0.00  0.00    +0.000 C 
ATOM     16  O   UNL     1       1.155   7.479  20.733  0.00  0.00    +0.000 OA
ENDBRANCH   1  16
BRANCH   7  17
ATOM     17  S   UNL     1       4.822   3.505  19.351  0.00  0.00    +0.000 S 
BRANCH  17  18
ATOM     18  C   UNL     1       3.612   2.306  18.705  0.00  0.00    +0.000 C 
BRANCH  18  19
ATOM     19  C   UNL     1       2.280   2.280  19.460  0.00  0.00    +0.000 C 
BRANCH  19  20
ATOM     20  N   UNL     1       1.200   1.820  18.581  0.00  0.00    +0.000 NA
ATOM     21  H   UNL     1       0.488   2.545  18.494  0.00  0.00    +0.000 HD
ATOM     22  H   UNL     1       0.736   1.017  19.007  0.00  0.00    +0.000 HD
ENDBRANCH  19  20
ENDBRANCH  18  19
ENDBRANCH  17  18
ENDBRANCH   7  17
TORSDOF 6
ENDMDL
