MODEL 1
REMARK VINA RESULT:      -8.7      0.000      0.000
REMARK  Name = 
REMARK  5 active torsions:
REMARK  status: ('A' for Active; 'I' for Inactive)
REMARK    1  A    between atoms: C_2  and  C_4
REMARK    2  A    between atoms: C_5  and  C_6
REMARK    3  A    between atoms: N_17  and  C_18
REMARK    4  A    between atoms: C_18  and  C_19
REMARK    5  A    between atoms: C_23  and  N_24
REMARK                            x       y       z     vdW  Elec       q    Type
REMARK                         _______ _______ _______ _____ _____    ______ ____
ROOT
ATOM      1  C   UNL     1       3.069   5.137  17.901  0.00  0.00    +0.000 A 
ATOM      2  C   UNL     1       3.316   6.542  18.058  0.00  0.00    +0.000 A 
ATOM      3  N   UNL     1       4.575   6.843  17.689  0.00  0.00    +0.000 NA
ATOM      4  N   UNL     1       5.127   5.673  17.327  0.00  0.00    +0.000 N 
ATOM      5  C   UNL     1       4.266   4.609  17.434  0.00  0.00    +0.000 A 
ENDROOT
BRANCH   2   6
ATOM      6  C   UNL     1       2.433   7.605  18.570  0.00  0.00    +0.000 A 
ATOM      7  C   UNL     1       1.965   8.607  17.707  0.00  0.00    +0.000 A 
ATOM      8  C   UNL     1       1.123   9.623  18.173  0.00  0.00    +0.000 A 
ATOM      9  C   UNL     1       0.729   9.668  19.518  0.00  0.00    +0.000 A 
ATOM     10  C   UNL     1      -0.134  10.667  20.002  0.00  0.00    +0.000 A 
ATOM     11  C   UNL     1      -0.521  10.690  21.343  0.00  0.00    +0.000 A 
ATOM     12  C   UNL     1      -0.049   9.718  22.219  0.00  0.00    +0.000 A 
ATOM     13  C   UNL     1       0.811   8.720  21.753  0.00  0.00    +0.000 A 
ATOM     14  C   UNL     1       1.208   8.680  20.405  0.00  0.00    +0.000 A 
ATOM     15  C   UNL     1       2.066   7.673  19.921  0.00  0.00    +0.000 A 
ENDBRANCH   2   6
BRANCH   1  17
ATOM     16  N   UNL     1       1.596   4.087  19.450  0.00  0.00    +0.000 N 
ATOM     17  C   UNL     1       1.846   4.391  18.139  0.00  0.00    +0.000 C 
ATOM     18  O   UNL     1       1.052   4.056  17.270  0.00  0.00    +0.000 OA
ATOM     19  H   UNL     1       0.697   3.678  19.664  0.00  0.00    +0.000 HD
ATOM     20  H   UNL     1       2.120   4.547  20.184  0.00  0.00    +0.000 HD
ENDBRANCH   1  17
BRANCH   5  21
ATOM     21  N   UNL     1       4.599   3.334  17.099  0.00  0.00    +0.000 N 
ATOM     22  H   UNL     1       4.585   3.020  16.127  0.00  0.00    +0.000 HD
ATOM     23  H   UNL     1       4.208   2.591  17.684  0.00  0.00    +0.000 HD
ENDBRANCH   5  21
BRANCH   4  24
ATOM     24  C   UNL     1       6.542   5.645  17.034  0.00  0.00    +0.000 C 
BRANCH  24  25
ATOM     25  C   UNL     1       7.418   5.437  18.243  0.00  0.00    +0.000 C 
ATOM     26  F   UNL     1       6.748   5.231  19.395  0.00  0.00    +0.000 F 
ATOM     27  F   UNL     1       8.256   4.389  18.072  0.00  0.00    +0.000 F 
ATOM     28  F   UNL     1       8.195   6.534  18.444  0.00  0.00    +0.000 F 
ENDBRANCH  24  25
ENDBRANCH   4  24
TORSDOF 5
ENDMDL
MODEL 2
REMARK VINA RESULT:      -8.4      1.386      1.578
REMARK  Name = 
REMARK  5 active torsions:
REMARK  status: ('A' for Active; 'I' for Inactive)
REMARK    1  A    between atoms: C_2  and  C_4
REMARK    2  A    between atoms: C_5  and  C_6
REMARK    3  A    between atoms: N_17  and  C_18
REMARK    4  A    between atoms: C_18  and  C_19
REMARK    5  A    between atoms: C_23  and  N_24
REMARK                            x       y       z     vdW  Elec       q    Type
REMARK                         _______ _______ _______ _____ _____    ______ ____
ROOT
ATOM      1  C   UNL     1       3.234   4.719  19.536  0.00  0.00    +0.000 A 
ATOM      2  C   UNL     1       3.325   6.011  18.919  0.00  0.00    +0.000 A 
ATOM      3  N   UNL     1       4.384   6.064  18.089  0.00  0.00    +0.000 NA
ATOM      4  N   UNL     1       4.965   4.856  18.183  0.00  0.00    +0.000 N 
ATOM      5  C   UNL     1       4.316   4.004  19.040  0.00  0.00    +0.000 A 
ENDROOT
BRANCH   2   6
ATOM      6  C   UNL     1       2.482   7.207  19.101  0.00  0.00    +0.000 A 
ATOM      7  C   UNL     1       2.251   8.075  18.023  0.00  0.00    +0.000 A 
ATOM      8  C   UNL     1       1.451   9.214  18.174  0.00  0.00    +0.000 A 
ATOM      9  C   UNL     1       0.864   9.519  19.410  0.00  0.00    +0.000 A 
ATOM     10  C   UNL     1       0.040  10.646  19.578  0.00  0.00    +0.000 A 
ATOM     11  C   UNL     1      -0.542  10.929  20.815  0.00  0.00    +0.000 A 
ATOM     12  C   UNL     1      -0.306  10.092  21.901  0.00  0.00    +0.000 A 
ATOM     13  C   UNL     1       0.513   8.970  21.751  0.00  0.00    +0.000 A 
ATOM     14  C   UNL     1       1.104   8.668  20.511  0.00  0.00    +0.000 A 
ATOM     15  C   UNL     1       1.923   7.535  20.344  0.00  0.00    +0.000 A 
ENDBRANCH   2   6
BRANCH   1  17
ATOM     16  N   UNL     1       1.052   3.827  19.884  0.00  0.00    +0.000 N 
ATOM     17  C   UNL     1       2.232   4.216  20.460  0.00  0.00    +0.000 C 
ATOM     18  O   UNL     1       2.390   4.106  21.669  0.00  0.00    +0.000 OA
ATOM     19  H   UNL     1       0.382   3.360  20.479  0.00  0.00    +0.000 HD
ATOM     20  H   UNL     1       0.997   3.704  18.881  0.00  0.00    +0.000 HD
ENDBRANCH   1  17
BRANCH   5  21
ATOM     21  N   UNL     1       4.711   2.724  19.273  0.00  0.00    +0.000 N 
ATOM     22  H   UNL     1       4.031   1.968  19.372  0.00  0.00    +0.000 HD
ATOM     23  H   UNL     1       5.443   2.592  19.975  0.00  0.00    +0.000 HD
ENDBRANCH   5  21
BRANCH   4  24
ATOM     24  C   UNL     1       6.237   4.657  17.526  0.00  0.00    +0.000 C 
BRANCH  24  25
ATOM     25  C   UNL     1       7.415   5.223  18.277  0.00  0.00    +0.000 C 
ATOM     26  F   UNL     1       7.853   6.414  17.822  0.00  0.00    +0.000 F 
ATOM     27  F   UNL     1       7.138   5.371  19.593  0.00  0.00    +0.000 F 
ATOM     28  F   UNL     1       8.470   4.370  18.191  0.00  0.00    +0.000 F 
ENDBRANCH  24  25
ENDBRANCH   4  24
TORSDOF 5
ENDMDL
MODEL 3
REMARK VINA RESULT:      -8.4      1.582      1.837
REMARK  Name = 
REMARK  5 active torsions:
REMARK  status: ('A' for Active; 'I' for Inactive)
REMARK    1  A    between atoms: C_2  and  C_4
REMARK    2  A    between atoms: C_5  and  C_6
REMARK    3  A    between atoms: N_17  and  C_18
REMARK    4  A    between atoms: C_18  and  C_19
REMARK    5  A    between atoms: C_23  and  N_24
REMARK                            x       y       z     vdW  Elec       q    Type
REMARK                         _______ _______ _______ _____ _____    ______ ____
ROOT
ATOM      1  C   UNL     1       2.914   4.585  18.189  0.00  0.00    +0.000 A 
ATOM      2  C   UNL     1       3.243   5.980  18.110  0.00  0.00    +0.000 A 
ATOM      3  N   UNL     1       4.448   6.148  17.533  0.00  0.00    +0.000 NA
ATOM      4  N   UNL     1       4.887   4.906  17.265  0.00  0.00    +0.000 N 
ATOM      5  C   UNL     1       4.005   3.924  17.640  0.00  0.00    +0.000 A 
ENDROOT
BRANCH   2   6
ATOM      6  C   UNL     1       2.493   7.156  18.585  0.00  0.00    +0.000 A 
ATOM      7  C   UNL     1       2.122   8.164  17.684  0.00  0.00    +0.000 A 
ATOM      8  C   UNL     1       1.406   9.288  18.114  0.00  0.00    +0.000 A 
ATOM      9  C   UNL     1       1.045   9.435  19.460  0.00  0.00    +0.000 A 
ATOM     10  C   UNL     1       0.307  10.545  19.910  0.00  0.00    +0.000 A 
ATOM     11  C   UNL     1      -0.049  10.671  21.253  0.00  0.00    +0.000 A 
ATOM     12  C   UNL     1       0.330   9.692  22.167  0.00  0.00    +0.000 A 
ATOM     13  C   UNL     1       1.065   8.585  21.736  0.00  0.00    +0.000 A 
ATOM     14  C   UNL     1       1.429   8.441  20.386  0.00  0.00    +0.000 A 
ATOM     15  C   UNL     1       2.162   7.325  19.937  0.00  0.00    +0.000 A 
ENDBRANCH   2   6
BRANCH   1  17
ATOM     16  N   UNL     1       1.628   3.868  20.061  0.00  0.00    +0.000 N 
ATOM     17  C   UNL     1       1.707   3.958  18.697  0.00  0.00    +0.000 C 
ATOM     18  O   UNL     1       0.788   3.545  18.001  0.00  0.00    +0.000 OA
ATOM     19  H   UNL     1       0.751   3.551  20.451  0.00  0.00    +0.000 HD
ATOM     20  H   UNL     1       2.265   4.400  20.640  0.00  0.00    +0.000 HD
ENDBRANCH   1  17
BRANCH   5  21
ATOM     21  N   UNL     1       4.229   2.597  17.445  0.00  0.00    +0.000 N 
ATOM     22  H   UNL     1       4.710   2.032  18.147  0.00  0.00    +0.000 HD
ATOM     23  H   UNL     1       4.568   2.322  16.521  0.00  0.00    +0.000 HD
ENDBRANCH   5  21
BRANCH   4  24
ATOM     24  C   UNL     1       6.242   4.749  16.786  0.00  0.00    +0.000 C 
BRANCH  24  25
ATOM     25  C   UNL     1       6.355   4.615  15.289  0.00  0.00    +0.000 C 
ATOM     26  F   UNL     1       5.428   5.303  14.591  0.00  0.00    +0.000 F 
ATOM     27  F   UNL     1       7.570   5.013  14.847  0.00  0.00    +0.000 F 
ATOM     28  F   UNL     1       6.213   3.312  14.930  0.00  0.00    +0.000 F 
ENDBRANCH  24  25
ENDBRANCH   4  24
TORSDOF 5
ENDMDL
MODEL 4
REMARK VINA RESULT:      -8.4      0.997      1.221
REMARK  Name = 
REMARK  5 active torsions:
REMARK  status: ('A' for Active; 'I' for Inactive)
REMARK    1  A    between atoms: C_2  and  C_4
REMARK    2  A    between atoms: C_5  and  C_6
REMARK    3  A    between atoms: N_17  and  C_18
REMARK    4  A    between atoms: C_18  and  C_19
REMARK    5  A    between atoms: C_23  and  N_24
REMARK                            x       y       z     vdW  Elec       q    Type
REMARK                         _______ _______ _______ _____ _____    ______ ____
ROOT
ATOM      1  C   UNL     1       2.885   4.701  18.623  0.00  0.00    +0.000 A 
ATOM      2  C   UNL     1       3.269   6.070  18.815  0.00  0.00    +0.000 A 
ATOM      3  N   UNL     1       4.610   6.184  18.839  0.00  0.00    +0.000 NA
ATOM      4  N   UNL     1       5.074   4.932  18.687  0.00  0.00    +0.000 N 
ATOM      5  C   UNL     1       4.079   3.996  18.552  0.00  0.00    +0.000 A 
ENDROOT
BRANCH   2   6
ATOM      6  C   UNL     1       2.433   7.268  19.012  0.00  0.00    +0.000 A 
ATOM      7  C   UNL     1       2.191   8.141  17.941  0.00  0.00    +0.000 A 
ATOM      8  C   UNL     1       1.397   9.281  18.106  0.00  0.00    +0.000 A 
ATOM      9  C   UNL     1       0.825   9.583  19.350  0.00  0.00    +0.000 A 
ATOM     10  C   UNL     1       0.007  10.712  19.532  0.00  0.00    +0.000 A 
ATOM     11  C   UNL     1      -0.559  10.992  20.777  0.00  0.00    +0.000 A 
ATOM     12  C   UNL     1      -0.313  10.150  21.857  0.00  0.00    +0.000 A 
ATOM     13  C   UNL     1       0.500   9.026  21.692  0.00  0.00    +0.000 A 
ATOM     14  C   UNL     1       1.076   8.727  20.445  0.00  0.00    +0.000 A 
ATOM     15  C   UNL     1       1.889   7.592  20.263  0.00  0.00    +0.000 A 
ENDBRANCH   2   6
BRANCH   1  17
ATOM     16  N   UNL     1       0.953   3.788  19.677  0.00  0.00    +0.000 N 
ATOM     17  C   UNL     1       1.554   4.134  18.496  0.00  0.00    +0.000 C 
ATOM     18  O   UNL     1       0.959   3.978  17.438  0.00  0.00    +0.000 OA
ATOM     19  H   UNL     1      -0.016   3.507  19.636  0.00  0.00    +0.000 HD
ATOM     20  H   UNL     1       1.338   4.117  20.554  0.00  0.00    +0.000 HD
ENDBRANCH   1  17
BRANCH   5  21
ATOM     21  N   UNL     1       4.313   2.670  18.364  0.00  0.00    +0.000 N 
ATOM     22  H   UNL     1       4.976   2.160  18.950  0.00  0.00    +0.000 HD
ATOM     23  H   UNL     1       4.435   2.361  17.396  0.00  0.00    +0.000 HD
ENDBRANCH   5  21
BRANCH   4  24
ATOM     24  C   UNL     1       6.493   4.705  18.837  0.00  0.00    +0.000 C 
BRANCH  24  25
ATOM     25  C   UNL     1       7.273   4.802  17.551  0.00  0.00    +0.000 C 
ATOM     26  F   UNL     1       7.601   6.058  17.184  0.00  0.00    +0.000 F 
ATOM     27  F   UNL     1       8.420   4.087  17.613  0.00  0.00    +0.000 F 
ATOM     28  F   UNL     1       6.542   4.284  16.528  0.00  0.00    +0.000 F 
ENDBRANCH  24  25
ENDBRANCH   4  24
TORSDOF 5
ENDMDL
MODEL 5
REMARK VINA RESULT:      -8.3      0.917      1.178
REMARK  Name = 
REMARK  5 active torsions:
REMARK  status: ('A' for Active; 'I' for Inactive)
REMARK    1  A    between atoms: C_2  and  C_4
REMARK    2  A    between atoms: C_5  and  C_6
REMARK    3  A    between atoms: N_17  and  C_18
REMARK    4  A    between atoms: C_18  and  C_19
REMARK    5  A    between atoms: C_23  and  N_24
REMARK                            x       y       z     vdW  Elec       q    Type
REMARK                         _______ _______ _______ _____ _____    ______ ____
ROOT
ATOM      1  C   UNL     1       3.069   4.795  19.019  0.00  0.00    +0.000 A 
ATOM      2  C   UNL     1       3.218   6.156  18.588  0.00  0.00    +0.000 A 
ATOM      3  N   UNL     1       4.304   6.285  17.803  0.00  0.00    +0.000 NA
ATOM      4  N   UNL     1       4.846   5.057  17.745  0.00  0.00    +0.000 N 
ATOM      5  C   UNL     1       4.144   4.118  18.460  0.00  0.00    +0.000 A 
ENDROOT
BRANCH   2   6
ATOM      6  C   UNL     1       2.407   7.344  18.910  0.00  0.00    +0.000 A 
ATOM      7  C   UNL     1       2.103   8.280  17.910  0.00  0.00    +0.000 A 
ATOM      8  C   UNL     1       1.332   9.412  18.194  0.00  0.00    +0.000 A 
ATOM      9  C   UNL     1       0.844   9.642  19.489  0.00  0.00    +0.000 A 
ATOM     10  C   UNL     1       0.049  10.762  19.791  0.00  0.00    +0.000 A 
ATOM     11  C   UNL     1      -0.432  10.969  21.084  0.00  0.00    +0.000 A 
ATOM     12  C   UNL     1      -0.124  10.064  22.094  0.00  0.00    +0.000 A 
ATOM     13  C   UNL     1       0.667   8.948  21.810  0.00  0.00    +0.000 A 
ATOM     14  C   UNL     1       1.158   8.721  20.512  0.00  0.00    +0.000 A 
ATOM     15  C   UNL     1       1.948   7.595  20.211  0.00  0.00    +0.000 A 
ENDBRANCH   2   6
BRANCH   1  17
ATOM     16  N   UNL     1       2.288   4.170  21.181  0.00  0.00    +0.000 N 
ATOM     17  C   UNL     1       2.024   4.205  19.838  0.00  0.00    +0.000 C 
ATOM     18  O   UNL     1       0.960   3.777  19.411  0.00  0.00    +0.000 OA
ATOM     19  H   UNL     1       1.535   3.880  21.790  0.00  0.00    +0.000 HD
ATOM     20  H   UNL     1       3.051   4.716  21.560  0.00  0.00    +0.000 HD
ENDBRANCH   1  17
BRANCH   5  21
ATOM     21  N   UNL     1       4.494   2.806  18.525  0.00  0.00    +0.000 N 
ATOM     22  H   UNL     1       3.838   2.068  18.260  0.00  0.00    +0.000 HD
ATOM     23  H   UNL     1       4.991   2.507  19.367  0.00  0.00    +0.000 HD
ENDBRANCH   5  21
BRANCH   4  24
ATOM     24  C   UNL     1       6.131   4.906  17.101  0.00  0.00    +0.000 C 
BRANCH  24  25
ATOM     25  C   UNL     1       7.308   5.194  17.998  0.00  0.00    +0.000 C 
ATOM     26  F   UNL     1       8.297   4.279  17.940  0.00  0.00    +0.000 F 
ATOM     27  F   UNL     1       7.856   6.399  17.723  0.00  0.00    +0.000 F 
ATOM     28  F   UNL     1       6.901   5.234  19.295  0.00  0.00    +0.000 F 
ENDBRANCH  24  25
ENDBRANCH   4  24
TORSDOF 5
ENDMDL
MODEL 6
REMARK VINA RESULT:      -8.3      2.660      3.434
REMARK  Name = 
REMARK  5 active torsions:
REMARK  status: ('A' for Active; 'I' for Inactive)
REMARK    1  A    between atoms: C_2  and  C_4
REMARK    2  A    between atoms: C_5  and  C_6
REMARK    3  A    between atoms: N_17  and  C_18
REMARK    4  A    between atoms: C_18  and  C_19
REMARK    5  A    between atoms: C_23  and  N_24
REMARK                            x       y       z     vdW  Elec       q    Type
REMARK                         _______ _______ _______ _____ _____    ______ ____
ROOT
ATOM      1  C   UNL     1       4.828   5.853  17.607  0.00  0.00    +0.000 A 
ATOM      2  C   UNL     1       3.737   6.051  18.518  0.00  0.00    +0.000 A 
ATOM      3  N   UNL     1       3.534   4.945  19.259  0.00  0.00    +0.000 NA
ATOM      4  N   UNL     1       4.449   4.060  18.828  0.00  0.00    +0.000 N 
ATOM      5  C   UNL     1       5.256   4.551  17.833  0.00  0.00    +0.000 A 
ENDROOT
BRANCH   2   6
ATOM      6  C   UNL     1       2.856   7.220  18.698  0.00  0.00    +0.000 A 
ATOM      7  C   UNL     1       2.697   8.147  17.657  0.00  0.00    +0.000 A 
ATOM      8  C   UNL     1       1.863   9.261  17.807  0.00  0.00    +0.000 A 
ATOM      9  C   UNL     1       1.167   9.480  19.004  0.00  0.00    +0.000 A 
ATOM     10  C   UNL     1       0.308  10.581  19.168  0.00  0.00    +0.000 A 
ATOM     11  C   UNL     1      -0.381  10.779  20.365  0.00  0.00    +0.000 A 
ATOM     12  C   UNL     1      -0.219   9.882  21.416  0.00  0.00    +0.000 A 
ATOM     13  C   UNL     1       0.634   8.785  21.270  0.00  0.00    +0.000 A 
ATOM     14  C   UNL     1       1.333   8.569  20.070  0.00  0.00    +0.000 A 
ATOM     15  C   UNL     1       2.188   7.461  19.906  0.00  0.00    +0.000 A 
ENDBRANCH   2   6
BRANCH   1  17
ATOM     16  N   UNL     1       6.466   7.517  17.135  0.00  0.00    +0.000 N 
ATOM     17  C   UNL     1       5.409   6.787  16.659  0.00  0.00    +0.000 C 
ATOM     18  O   UNL     1       5.034   6.934  15.503  0.00  0.00    +0.000 OA
ATOM     19  H   UNL     1       6.970   8.084  16.468  0.00  0.00    +0.000 HD
ATOM     20  H   UNL     1       6.919   7.245  17.998  0.00  0.00    +0.000 HD
ENDBRANCH   1  17
BRANCH   5  21
ATOM     21  N   UNL     1       6.266   3.841  17.263  0.00  0.00    +0.000 N 
ATOM     22  H   UNL     1       7.101   4.304  16.900  0.00  0.00    +0.000 HD
ATOM     23  H   UNL     1       5.993   3.107  16.605  0.00  0.00    +0.000 HD
ENDBRANCH   5  21
BRANCH   4  24
ATOM     24  C   UNL     1       4.375   2.705  19.325  0.00  0.00    +0.000 C 
BRANCH  24  25
ATOM     25  C   UNL     1       3.338   1.851  18.639  0.00  0.00    +0.000 C 
ATOM     26  F   UNL     1       2.188   1.702  19.326  0.00  0.00    +0.000 F 
ATOM     27  F   UNL     1       3.020   2.345  17.420  0.00  0.00    +0.000 F 
ATOM     28  F   UNL     1       3.829   0.600  18.440  0.00  0.00    +0.000 F 
ENDBRANCH  24  25
ENDBRANCH   4  24
TORSDOF 5
ENDMDL
MODEL 7
REMARK VINA RESULT:      -8.2      2.761      3.502
REMARK  Name = 
REMARK  5 active torsions:
REMARK  status: ('A' for Active; 'I' for Inactive)
REMARK    1  A    between atoms: C_2  and  C_4
REMARK    2  A    between atoms: C_5  and  C_6
REMARK    3  A    between atoms: N_17  and  C_18
REMARK    4  A    between atoms: C_18  and  C_19
REMARK    5  A    between atoms: C_23  and  N_24
REMARK                            x       y       z     vdW  Elec       q    Type
REMARK                         _______ _______ _______ _____ _____    ______ ____
ROOT
ATOM      1  C   UNL     1       4.823   5.895  17.836  0.00  0.00    +0.000 A 
ATOM      2  C   UNL     1       3.658   6.078  18.655  0.00  0.00    +0.000 A 
ATOM      3  N   UNL     1       3.391   4.957  19.351  0.00  0.00    +0.000 NA
ATOM      4  N   UNL     1       4.337   4.077  18.980  0.00  0.00    +0.000 N 
ATOM      5  C   UNL     1       5.227   4.587  18.068  0.00  0.00    +0.000 A 
ENDROOT
BRANCH   2   6
ATOM      6  C   UNL     1       2.768   7.246  18.785  0.00  0.00    +0.000 A 
ATOM      7  C   UNL     1       2.588   8.117  17.701  0.00  0.00    +0.000 A 
ATOM      8  C   UNL     1       1.744   9.229  17.803  0.00  0.00    +0.000 A 
ATOM      9  C   UNL     1       1.060   9.503  18.995  0.00  0.00    +0.000 A 
ATOM     10  C   UNL     1       0.191  10.603  19.113  0.00  0.00    +0.000 A 
ATOM     11  C   UNL     1      -0.486  10.855  20.306  0.00  0.00    +0.000 A 
ATOM     12  C   UNL     1      -0.303  10.015  21.400  0.00  0.00    +0.000 A 
ATOM     13  C   UNL     1       0.558   8.920  21.300  0.00  0.00    +0.000 A 
ATOM     14  C   UNL     1       1.246   8.649  20.104  0.00  0.00    +0.000 A 
ATOM     15  C   UNL     1       2.111   7.543  19.987  0.00  0.00    +0.000 A 
ENDBRANCH   2   6
BRANCH   1  17
ATOM     16  N   UNL     1       5.148   6.755  15.638  0.00  0.00    +0.000 N 
ATOM     17  C   UNL     1       5.485   6.848  16.962  0.00  0.00    +0.000 C 
ATOM     18  O   UNL     1       6.275   7.705  17.335  0.00  0.00    +0.000 OA
ATOM     19  H   UNL     1       5.494   7.479  15.024  0.00  0.00    +0.000 HD
ATOM     20  H   UNL     1       4.341   6.211  15.360  0.00  0.00    +0.000 HD
ENDBRANCH   1  17
BRANCH   5  21
ATOM     21  N   UNL     1       6.280   3.886  17.571  0.00  0.00    +0.000 N 
ATOM     22  H   UNL     1       7.113   3.708  18.134  0.00  0.00    +0.000 HD
ATOM     23  H   UNL     1       6.578   4.121  16.621  0.00  0.00    +0.000 HD
ENDBRANCH   5  21
BRANCH   4  24
ATOM     24  C   UNL     1       4.218   2.712  19.438  0.00  0.00    +0.000 C 
BRANCH  24  25
ATOM     25  C   UNL     1       3.302   1.857  18.600  0.00  0.00    +0.000 C 
ATOM     26  F   UNL     1       2.968   2.392  17.408  0.00  0.00    +0.000 F 
ATOM     27  F   UNL     1       3.843   0.641  18.360  0.00  0.00    +0.000 F 
ATOM     28  F   UNL     1       2.134   1.644  19.264  0.00  0.00    +0.000 F 
ENDBRANCH  24  25
ENDBRANCH   4  24
TORSDOF 5
ENDMDL
MODEL 8
REMARK VINA RESULT:      -8.1      1.947      2.107
REMARK  Name = 
REMARK  5 active torsions:
REMARK  status: ('A' for Active; 'I' for Inactive)
REMARK    1  A    between atoms: C_2  and  C_4
REMARK    2  A    between atoms: C_5  and  C_6
REMARK    3  A    between atoms: N_17  and  C_18
REMARK    4  A    between atoms: C_18  and  C_19
REMARK    5  A    between atoms: C_23  and  N_24
REMARK                            x       y       z     vdW  Elec       q    Type
REMARK                         _______ _______ _______ _____ _____    ______ ____
ROOT
ATOM      1  C   UNL     1       3.120   4.733  19.530  0.00  0.00    +0.000 A 
ATOM      2  C   UNL     1       3.214   6.033  18.929  0.00  0.00    +0.000 A 
ATOM      3  N   UNL     1       4.242   6.078  18.061  0.00  0.00    +0.000 NA
ATOM      4  N   UNL     1       4.802   4.857  18.114  0.00  0.00    +0.000 N 
ATOM      5  C   UNL     1       4.169   4.005  18.983  0.00  0.00    +0.000 A 
ENDROOT
BRANCH   2   6
ATOM      6  C   UNL     1       2.403   7.242  19.160  0.00  0.00    +0.000 A 
ATOM      7  C   UNL     1       2.166   8.141  18.110  0.00  0.00    +0.000 A 
ATOM      8  C   UNL     1       1.396   9.293  18.308  0.00  0.00    +0.000 A 
ATOM      9  C   UNL     1       0.845   9.580  19.565  0.00  0.00    +0.000 A 
ATOM     10  C   UNL     1       0.050  10.720  19.780  0.00  0.00    +0.000 A 
ATOM     11  C   UNL     1      -0.495  10.985  21.037  0.00  0.00    +0.000 A 
ATOM     12  C   UNL     1      -0.253  10.116  22.097  0.00  0.00    +0.000 A 
ATOM     13  C   UNL     1       0.536   8.981  21.899  0.00  0.00    +0.000 A 
ATOM     14  C   UNL     1       1.091   8.697  20.639  0.00  0.00    +0.000 A 
ATOM     15  C   UNL     1       1.881   7.550  20.424  0.00  0.00    +0.000 A 
ENDBRANCH   2   6
BRANCH   1  17
ATOM     16  N   UNL     1       0.926   3.909  19.953  0.00  0.00    +0.000 N 
ATOM     17  C   UNL     1       2.145   4.236  20.484  0.00  0.00    +0.000 C 
ATOM     18  O   UNL     1       2.354   4.080  21.680  0.00  0.00    +0.000 OA
ATOM     19  H   UNL     1       0.267   3.446  20.564  0.00  0.00    +0.000 HD
ATOM     20  H   UNL     1       0.819   3.822  18.950  0.00  0.00    +0.000 HD
ENDBRANCH   1  17
BRANCH   5  21
ATOM     21  N   UNL     1       4.547   2.714  19.182  0.00  0.00    +0.000 N 
ATOM     22  H   UNL     1       5.230   2.466  19.900  0.00  0.00    +0.000 HD
ATOM     23  H   UNL     1       4.744   2.162  18.345  0.00  0.00    +0.000 HD
ENDBRANCH   5  21
BRANCH   4  24
ATOM     24  C   UNL     1       6.044   4.643  17.406  0.00  0.00    +0.000 C 
BRANCH  24  25
ATOM     25  C   UNL     1       5.909   4.662  15.904  0.00  0.00    +0.000 C 
ATOM     26  F   UNL     1       5.858   5.895  15.359  0.00  0.00    +0.000 F 
ATOM     27  F   UNL     1       6.926   3.998  15.308  0.00  0.00    +0.000 F 
ATOM     28  F   UNL     1       4.761   4.034  15.536  0.00  0.00    +0.000 F 
ENDBRANCH  24  25
ENDBRANCH   4  24
TORSDOF 5
ENDMDL
MODEL 9
REMARK VINA RESULT:      -8.1      2.568      3.516
REMARK  Name = 
REMARK  5 active torsions:
REMARK  status: ('A' for Active; 'I' for Inactive)
REMARK    1  A    between atoms: C_2  and  C_4
REMARK    2  A    between atoms: C_5  and  C_6
REMARK    3  A    between atoms: N_17  and  C_18
REMARK    4  A    between atoms: C_18  and  C_19
REMARK    5  A    between atoms: C_23  and  N_24
REMARK                            x       y       z     vdW  Elec       q    Type
REMARK                         _______ _______ _______ _____ _____    ______ ____
ROOT
ATOM      1  C   UNL     1       4.413   5.720  17.152  0.00  0.00    +0.000 A 
ATOM      2  C   UNL     1       3.220   5.887  17.932  0.00  0.00    +0.000 A 
ATOM      3  N   UNL     1       2.657   4.692  18.192  0.00  0.00    +0.000 NA
ATOM      4  N   UNL     1       3.447   3.790  17.586  0.00  0.00    +0.000 N 
ATOM      5  C   UNL     1       4.521   4.352  16.943  0.00  0.00    +0.000 A 
ENDROOT
BRANCH   2   6
ATOM      6  C   UNL     1       2.569   7.119  18.413  0.00  0.00    +0.000 A 
ATOM      7  C   UNL     1       2.357   8.191  17.534  0.00  0.00    +0.000 A 
ATOM      8  C   UNL     1       1.737   9.368  17.969  0.00  0.00    +0.000 A 
ATOM      9  C   UNL     1       1.317   9.507  19.299  0.00  0.00    +0.000 A 
ATOM     10  C   UNL     1       0.673  10.672  19.753  0.00  0.00    +0.000 A 
ATOM     11  C   UNL     1       0.255  10.788  21.079  0.00  0.00    +0.000 A 
ATOM     12  C   UNL     1       0.477   9.745  21.971  0.00  0.00    +0.000 A 
ATOM     13  C   UNL     1       1.117   8.582  21.537  0.00  0.00    +0.000 A 
ATOM     14  C   UNL     1       1.542   8.446  20.204  0.00  0.00    +0.000 A 
ATOM     15  C   UNL     1       2.180   7.275  19.750  0.00  0.00    +0.000 A 
ENDBRANCH   2   6
BRANCH   1  17
ATOM     16  N   UNL     1       5.266   7.026  15.351  0.00  0.00    +0.000 N 
ATOM     17  C   UNL     1       5.348   6.729  16.685  0.00  0.00    +0.000 C 
ATOM     18  O   UNL     1       6.154   7.317  17.395  0.00  0.00    +0.000 OA
ATOM     19  H   UNL     1       5.814   7.807  15.018  0.00  0.00    +0.000 HD
ATOM     20  H   UNL     1       4.466   6.716  14.813  0.00  0.00    +0.000 HD
ENDBRANCH   1  17
BRANCH   5  21
ATOM     21  N   UNL     1       5.466   3.630  16.283  0.00  0.00    +0.000 N 
ATOM     22  H   UNL     1       5.414   3.487  15.272  0.00  0.00    +0.000 HD
ATOM     23  H   UNL     1       5.757   2.752  16.718  0.00  0.00    +0.000 HD
ENDBRANCH   5  21
BRANCH   4  24
ATOM     24  C   UNL     1       3.008   2.413  17.547  0.00  0.00    +0.000 C 
BRANCH  24  25
ATOM     25  C   UNL     1       3.207   1.665  18.840  0.00  0.00    +0.000 C 
ATOM     26  F   UNL     1       3.959   2.311  19.754  0.00  0.00    +0.000 F 
ATOM     27  F   UNL     1       2.025   1.369  19.427  0.00  0.00    +0.000 F 
ATOM     28  F   UNL     1       3.832   0.483  18.598  0.00  0.00    +0.000 F 
ENDBRANCH  24  25
ENDBRANCH   4  24
TORSDOF 5
ENDMDL
