MODEL 1
REMARK VINA RESULT:      -8.9      0.000      0.000
REMARK  Name = 
REMARK  4 active torsions:
REMARK  status: ('A' for Active; 'I' for Inactive)
REMARK    1  A    between atoms: O_1  and  C_2
REMARK    2  A    between atoms: C_6  and  C_7
REMARK    3  A    between atoms: C_11  and  O_12
REMARK    4  A    between atoms: O_12  and  C_13
REMARK                            x       y       z     vdW  Elec       q    Type
REMARK                         _______ _______ _______ _____ _____    ______ ____
ROOT
ATOM      1  C   UNL     1       2.226   5.900  20.147  0.00  0.00    +0.000 A 
ATOM      2  C   UNL     1       1.387   4.928  20.691  0.00  0.00    +0.000 A 
ATOM      3  C   UNL     1       1.858   3.624  20.847  0.00  0.00    +0.000 A 
ATOM      4  C   UNL     1       3.143   3.308  20.425  0.00  0.00    +0.000 A 
ATOM      5  C   UNL     1       3.896   4.314  19.846  0.00  0.00    +0.000 A 
ATOM      6  N   UNL     1       3.475   5.593  19.729  0.00  0.00    +0.000 NA
ENDROOT
BRANCH   1  11
ATOM      7  C   UNL     1       1.621   9.306  18.586  0.00  0.00    +0.000 A 
ATOM      8  C   UNL     1       1.015  10.001  19.628  0.00  0.00    +0.000 A 
ATOM      9  C   UNL     1       0.822   9.359  20.848  0.00  0.00    +0.000 A 
ATOM     10  C   UNL     1       1.230   8.031  21.012  0.00  0.00    +0.000 A 
ATOM     11  C   UNL     1       1.846   7.310  19.966  0.00  0.00    +0.000 A 
ATOM     12  C   UNL     1       2.032   7.982  18.752  0.00  0.00    +0.000 A 
ATOM     13  F   UNL     1       2.586   7.348  17.706  0.00  0.00    +0.000 F 
BRANCH   7  14
ATOM     14  O   UNL     1       1.817   9.906  17.372  0.00  0.00    +0.000 OA
ATOM     15  H   UNL     1       2.251  10.765  17.505  0.00  0.00    +0.000 HD
ENDBRANCH   7  14
ENDBRANCH   1  11
BRANCH   5  16
ATOM     16  O   UNL     1       5.154   3.974  19.368  0.00  0.00    +0.000 OA
BRANCH  16  17
ATOM     17  C   UNL     1       5.375   4.107  18.009  0.00  0.00    +0.000 A 
ATOM     18  C   UNL     1       4.593   3.464  17.040  0.00  0.00    +0.000 A 
ATOM     19  C   UNL     1       4.870   3.604  15.675  0.00  0.00    +0.000 A 
ATOM     20  C   UNL     1       5.981   4.368  15.291  0.00  0.00    +0.000 A 
ATOM     21  C   UNL     1       6.599   4.719  14.073  0.00  0.00    +0.000 A 
ATOM     22  N   UNL     1       7.676   5.491  14.244  0.00  0.00    +0.000 NA
ATOM     23  N   UNL     1       7.746   5.634  15.580  0.00  0.00    +0.000 N 
ATOM     24  C   UNL     1       6.761   4.978  16.269  0.00  0.00    +0.000 A 
ATOM     25  C   UNL     1       6.491   4.868  17.638  0.00  0.00    +0.000 A 
ATOM     26  H   UNL     1       8.498   6.197  15.964  0.00  0.00    +0.000 HD
ENDBRANCH  16  17
ENDBRANCH   5  16
TORSDOF 4
ENDMDL
MODEL 2
REMARK VINA RESULT:      -8.5      1.254      1.593
REMARK  Name = 
REMARK  4 active torsions:
REMARK  status: ('A' for Active; 'I' for Inactive)
REMARK    1  A    between atoms: O_1  and  C_2
REMARK    2  A    between atoms: C_6  and  C_7
REMARK    3  A    between atoms: C_11  and  O_12
REMARK    4  A    between atoms: O_12  and  C_13
REMARK                            x       y       z     vdW  Elec       q    Type
REMARK                         _______ _______ _______ _____ _____    ______ ____
ROOT
ATOM      1  C   UNL     1       2.316   6.148  19.933  0.00  0.00    +0.000 A 
ATOM      2  C   UNL     1       1.504   5.280  20.662  0.00  0.00    +0.000 A 
ATOM      3  C   UNL     1       1.982   4.014  21.000  0.00  0.00    +0.000 A 
ATOM      4  C   UNL     1       3.246   3.626  20.572  0.00  0.00    +0.000 A 
ATOM      5  C   UNL     1       3.970   4.522  19.806  0.00  0.00    +0.000 A 
ATOM      6  N   UNL     1       3.543   5.770  19.509  0.00  0.00    +0.000 NA
ENDROOT
BRANCH   1  11
ATOM      7  C   UNL     1       1.062   9.727  20.094  0.00  0.00    +0.000 A 
ATOM      8  C   UNL     1       1.278  10.171  18.794  0.00  0.00    +0.000 A 
ATOM      9  C   UNL     1       1.816   9.292  17.859  0.00  0.00    +0.000 A 
ATOM     10  C   UNL     1       2.138   7.983  18.234  0.00  0.00    +0.000 A 
ATOM     11  C   UNL     1       1.927   7.515  19.549  0.00  0.00    +0.000 A 
ATOM     12  C   UNL     1       1.379   8.419  20.467  0.00  0.00    +0.000 A 
ATOM     13  F   UNL     1       1.178   8.049  21.742  0.00  0.00    +0.000 F 
BRANCH   7  14
ATOM     14  O   UNL     1       0.541  10.569  21.039  0.00  0.00    +0.000 OA
ATOM     15  H   UNL     1       1.216  11.216  21.299  0.00  0.00    +0.000 HD
ENDBRANCH   7  14
ENDBRANCH   1  11
BRANCH   5  16
ATOM     16  O   UNL     1       5.203   4.102  19.328  0.00  0.00    +0.000 OA
BRANCH  16  17
ATOM     17  C   UNL     1       5.415   4.177  17.964  0.00  0.00    +0.000 A 
ATOM     18  C   UNL     1       4.659   3.455  17.031  0.00  0.00    +0.000 A 
ATOM     19  C   UNL     1       4.926   3.539  15.660  0.00  0.00    +0.000 A 
ATOM     20  C   UNL     1       6.004   4.328  15.234  0.00  0.00    +0.000 A 
ATOM     21  C   UNL     1       6.605   4.644  13.997  0.00  0.00    +0.000 A 
ATOM     22  N   UNL     1       7.650   5.466  14.125  0.00  0.00    +0.000 NA
ATOM     23  N   UNL     1       7.716   5.678  15.453  0.00  0.00    +0.000 N 
ATOM     24  C   UNL     1       6.760   5.017  16.177  0.00  0.00    +0.000 A 
ATOM     25  C   UNL     1       6.499   4.964  17.551  0.00  0.00    +0.000 A 
ATOM     26  H   UNL     1       8.445   6.289  15.805  0.00  0.00    +0.000 HD
ENDBRANCH  16  17
ENDBRANCH   5  16
TORSDOF 4
ENDMDL
MODEL 3
REMARK VINA RESULT:      -8.4      0.905      1.361
REMARK  Name = 
REMARK  4 active torsions:
REMARK  status: ('A' for Active; 'I' for Inactive)
REMARK    1  A    between atoms: O_1  and  C_2
REMARK    2  A    between atoms: C_6  and  C_7
REMARK    3  A    between atoms: C_11  and  O_12
REMARK    4  A    between atoms: O_12  and  C_13
REMARK                            x       y       z     vdW  Elec       q    Type
REMARK                         _______ _______ _______ _____ _____    ______ ____
ROOT
ATOM      1  C   UNL     1       2.420   5.833  19.830  0.00  0.00    +0.000 A 
ATOM      2  C   UNL     1       1.558   4.758  20.052  0.00  0.00    +0.000 A 
ATOM      3  C   UNL     1       2.078   3.466  20.124  0.00  0.00    +0.000 A 
ATOM      4  C   UNL     1       3.441   3.267  19.939  0.00  0.00    +0.000 A 
ATOM      5  C   UNL     1       4.222   4.377  19.669  0.00  0.00    +0.000 A 
ATOM      6  N   UNL     1       3.745   5.641  19.642  0.00  0.00    +0.000 NA
ENDROOT
BRANCH   1  11
ATOM      7  C   UNL     1       1.680   9.331  18.556  0.00  0.00    +0.000 A 
ATOM      8  C   UNL     1       1.054   9.915  19.653  0.00  0.00    +0.000 A 
ATOM      9  C   UNL     1       0.892   9.168  20.816  0.00  0.00    +0.000 A 
ATOM     10  C   UNL     1       1.350   7.847  20.870  0.00  0.00    +0.000 A 
ATOM     11  C   UNL     1       1.986   7.238  19.766  0.00  0.00    +0.000 A 
ATOM     12  C   UNL     1       2.141   8.014  18.612  0.00  0.00    +0.000 A 
ATOM     13  F   UNL     1       2.713   7.489  17.515  0.00  0.00    +0.000 F 
BRANCH   7  14
ATOM     14  O   UNL     1       1.847  10.035  17.395  0.00  0.00    +0.000 OA
ATOM     15  H   UNL     1       1.000  10.085  16.925  0.00  0.00    +0.000 HD
ENDBRANCH   7  14
ENDBRANCH   1  11
BRANCH   5  16
ATOM     16  O   UNL     1       5.570   4.161  19.420  0.00  0.00    +0.000 OA
BRANCH  16  17
ATOM     17  C   UNL     1       6.048   4.499  18.167  0.00  0.00    +0.000 A 
ATOM     18  C   UNL     1       6.798   5.657  17.922  0.00  0.00    +0.000 A 
ATOM     19  C   UNL     1       7.238   5.976  16.632  0.00  0.00    +0.000 A 
ATOM     20  C   UNL     1       6.872   5.134  15.571  0.00  0.00    +0.000 A 
ATOM     21  C   UNL     1       7.073   5.114  14.175  0.00  0.00    +0.000 A 
ATOM     22  N   UNL     1       6.495   4.064  13.585  0.00  0.00    +0.000 NA
ATOM     23  N   UNL     1       5.922   3.409  14.611  0.00  0.00    +0.000 N 
ATOM     24  C   UNL     1       6.104   4.003  15.831  0.00  0.00    +0.000 A 
ATOM     25  C   UNL     1       5.671   3.654  17.115  0.00  0.00    +0.000 A 
ATOM     26  H   UNL     1       5.414   2.554  14.410  0.00  0.00    +0.000 HD
ENDBRANCH  16  17
ENDBRANCH   5  16
TORSDOF 4
ENDMDL
MODEL 4
REMARK VINA RESULT:      -8.2      1.498      2.064
REMARK  Name = 
REMARK  4 active torsions:
REMARK  status: ('A' for Active; 'I' for Inactive)
REMARK    1  A    between atoms: O_1  and  C_2
REMARK    2  A    between atoms: C_6  and  C_7
REMARK    3  A    between atoms: C_11  and  O_12
REMARK    4  A    between atoms: O_12  and  C_13
REMARK                            x       y       z     vdW  Elec       q    Type
REMARK                         _______ _______ _______ _____ _____    ______ ____
ROOT
ATOM      1  C   UNL     1       2.428   5.994  19.664  0.00  0.00    +0.000 A 
ATOM      2  C   UNL     1       1.550   5.009  20.115  0.00  0.00    +0.000 A 
ATOM      3  C   UNL     1       2.037   3.734  20.402  0.00  0.00    +0.000 A 
ATOM      4  C   UNL     1       3.384   3.457  20.200  0.00  0.00    +0.000 A 
ATOM      5  C   UNL     1       4.181   4.470  19.699  0.00  0.00    +0.000 A 
ATOM      6  N   UNL     1       3.738   5.724  19.459  0.00  0.00    +0.000 NA
ENDROOT
BRANCH   1  11
ATOM      7  C   UNL     1       1.158   9.551  20.035  0.00  0.00    +0.000 A 
ATOM      8  C   UNL     1       1.363  10.069  18.760  0.00  0.00    +0.000 A 
ATOM      9  C   UNL     1       1.901   9.247  17.774  0.00  0.00    +0.000 A 
ATOM     10  C   UNL     1       2.231   7.920  18.072  0.00  0.00    +0.000 A 
ATOM     11  C   UNL     1       2.031   7.378  19.361  0.00  0.00    +0.000 A 
ATOM     12  C   UNL     1       1.484   8.226  20.331  0.00  0.00    +0.000 A 
ATOM     13  F   UNL     1       1.292   7.784  21.585  0.00  0.00    +0.000 F 
BRANCH   7  14
ATOM     14  O   UNL     1       0.639  10.336  21.028  0.00  0.00    +0.000 OA
ATOM     15  H   UNL     1       0.311   9.770  21.746  0.00  0.00    +0.000 HD
ENDBRANCH   7  14
ENDBRANCH   1  11
BRANCH   5  16
ATOM     16  O   UNL     1       5.510   4.165  19.438  0.00  0.00    +0.000 OA
BRANCH  16  17
ATOM     17  C   UNL     1       6.004   4.493  18.189  0.00  0.00    +0.000 A 
ATOM     18  C   UNL     1       6.787   5.630  17.950  0.00  0.00    +0.000 A 
ATOM     19  C   UNL     1       7.244   5.939  16.664  0.00  0.00    +0.000 A 
ATOM     20  C   UNL     1       6.862   5.110  15.600  0.00  0.00    +0.000 A 
ATOM     21  C   UNL     1       7.071   5.087  14.205  0.00  0.00    +0.000 A 
ATOM     22  N   UNL     1       6.469   4.054  13.608  0.00  0.00    +0.000 NA
ATOM     23  N   UNL     1       5.871   3.413  14.630  0.00  0.00    +0.000 N 
ATOM     24  C   UNL     1       6.062   4.000  15.852  0.00  0.00    +0.000 A 
ATOM     25  C   UNL     1       5.611   3.660  17.133  0.00  0.00    +0.000 A 
ATOM     26  H   UNL     1       5.341   2.573  14.424  0.00  0.00    +0.000 HD
ENDBRANCH  16  17
ENDBRANCH   5  16
TORSDOF 4
ENDMDL
MODEL 5
REMARK VINA RESULT:      -8.1      2.368      3.500
REMARK  Name = 
REMARK  4 active torsions:
REMARK  status: ('A' for Active; 'I' for Inactive)
REMARK    1  A    between atoms: O_1  and  C_2
REMARK    2  A    between atoms: C_6  and  C_7
REMARK    3  A    between atoms: C_11  and  O_12
REMARK    4  A    between atoms: O_12  and  C_13
REMARK                            x       y       z     vdW  Elec       q    Type
REMARK                         _______ _______ _______ _____ _____    ______ ____
ROOT
ATOM      1  C   UNL     1       1.219   9.051  19.803  0.00  0.00    +0.000 A 
ATOM      2  C   UNL     1       1.237   9.646  18.542  0.00  0.00    +0.000 A 
ATOM      3  C   UNL     1       1.934   9.031  17.503  0.00  0.00    +0.000 A 
ATOM      4  C   UNL     1       2.629   7.854  17.751  0.00  0.00    +0.000 A 
ATOM      5  C   UNL     1       2.609   7.354  19.041  0.00  0.00    +0.000 A 
ATOM      6  N   UNL     1       1.901   7.910  20.049  0.00  0.00    +0.000 NA
ENDROOT
BRANCH   1  11
ATOM      7  C   UNL     1      -1.104  11.148  21.951  0.00  0.00    +0.000 A 
ATOM      8  C   UNL     1      -0.962  10.554  23.201  0.00  0.00    +0.000 A 
ATOM      9  C   UNL     1      -0.091   9.478  23.343  0.00  0.00    +0.000 A 
ATOM     10  C   UNL     1       0.624   9.004  22.238  0.00  0.00    +0.000 A 
ATOM     11  C   UNL     1       0.492   9.595  20.962  0.00  0.00    +0.000 A 
ATOM     12  C   UNL     1      -0.387  10.678  20.848  0.00  0.00    +0.000 A 
ATOM     13  F   UNL     1      -0.582  11.269  19.658  0.00  0.00    +0.000 F 
BRANCH   7  14
ATOM     14  O   UNL     1      -1.958  12.202  21.776  0.00  0.00    +0.000 OA
ATOM     15  H   UNL     1      -1.691  12.705  20.990  0.00  0.00    +0.000 HD
ENDBRANCH   7  14
ENDBRANCH   1  11
BRANCH   5  16
ATOM     16  O   UNL     1       3.360   6.214  19.294  0.00  0.00    +0.000 OA
BRANCH  16  17
ATOM     17  C   UNL     1       4.051   5.659  18.233  0.00  0.00    +0.000 A 
ATOM     18  C   UNL     1       3.640   4.488  17.582  0.00  0.00    +0.000 A 
ATOM     19  C   UNL     1       4.385   3.944  16.530  0.00  0.00    +0.000 A 
ATOM     20  C   UNL     1       5.586   4.569  16.165  0.00  0.00    +0.000 A 
ATOM     21  C   UNL     1       6.606   4.335  15.219  0.00  0.00    +0.000 A 
ATOM     22  N   UNL     1       7.580   5.248  15.272  0.00  0.00    +0.000 NA
ATOM     23  N   UNL     1       7.178   6.072  16.258  0.00  0.00    +0.000 N 
ATOM     24  C   UNL     1       5.991   5.716  16.841  0.00  0.00    +0.000 A 
ATOM     25  C   UNL     1       5.252   6.289  17.882  0.00  0.00    +0.000 A 
ATOM     26  H   UNL     1       7.765   6.867  16.488  0.00  0.00    +0.000 HD
ENDBRANCH  16  17
ENDBRANCH   5  16
TORSDOF 4
ENDMDL
MODEL 6
REMARK VINA RESULT:      -8.0      2.809      7.322
REMARK  Name = 
REMARK  4 active torsions:
REMARK  status: ('A' for Active; 'I' for Inactive)
REMARK    1  A    between atoms: O_1  and  C_2
REMARK    2  A    between atoms: C_6  and  C_7
REMARK    3  A    between atoms: C_11  and  O_12
REMARK    4  A    between atoms: O_12  and  C_13
REMARK                            x       y       z     vdW  Elec       q    Type
REMARK                         _______ _______ _______ _____ _____    ______ ____
ROOT
ATOM      1  C   UNL     1       6.765   5.080  15.962  0.00  0.00    +0.000 A 
ATOM      2  C   UNL     1       7.731   4.814  16.933  0.00  0.00    +0.000 A 
ATOM      3  C   UNL     1       7.459   5.104  18.270  0.00  0.00    +0.000 A 
ATOM      4  C   UNL     1       6.243   5.686  18.608  0.00  0.00    +0.000 A 
ATOM      5  C   UNL     1       5.359   5.971  17.583  0.00  0.00    +0.000 A 
ATOM      6  N   UNL     1       5.585   5.655  16.288  0.00  0.00    +0.000 NA
ENDROOT
BRANCH   1  11
ATOM      7  C   UNL     1       6.399   3.496  12.533  0.00  0.00    +0.000 A 
ATOM      8  C   UNL     1       7.207   4.311  11.747  0.00  0.00    +0.000 A 
ATOM      9  C   UNL     1       7.887   5.368  12.345  0.00  0.00    +0.000 A 
ATOM     10  C   UNL     1       7.749   5.603  13.717  0.00  0.00    +0.000 A 
ATOM     11  C   UNL     1       6.932   4.787  14.530  0.00  0.00    +0.000 A 
ATOM     12  C   UNL     1       6.264   3.728  13.904  0.00  0.00    +0.000 A 
ATOM     13  F   UNL     1       5.449   2.929  14.612  0.00  0.00    +0.000 F 
BRANCH   7  14
ATOM     14  O   UNL     1       5.711   2.453  11.974  0.00  0.00    +0.000 OA
ATOM     15  H   UNL     1       5.136   2.052  12.645  0.00  0.00    +0.000 HD
ENDBRANCH   7  14
ENDBRANCH   1  11
BRANCH   5  16
ATOM     16  O   UNL     1       4.176   6.613  17.922  0.00  0.00    +0.000 OA
BRANCH  16  17
ATOM     17  C   UNL     1       3.218   5.871  18.588  0.00  0.00    +0.000 A 
ATOM     18  C   UNL     1       2.742   6.205  19.863  0.00  0.00    +0.000 A 
ATOM     19  C   UNL     1       1.792   5.410  20.514  0.00  0.00    +0.000 A 
ATOM     20  C   UNL     1       1.354   4.236  19.883  0.00  0.00    +0.000 A 
ATOM     21  C   UNL     1       0.467   3.185  20.197  0.00  0.00    +0.000 A 
ATOM     22  N   UNL     1       0.397   2.263  19.233  0.00  0.00    +0.000 NA
ATOM     23  N   UNL     1       1.244   2.729  18.297  0.00  0.00    +0.000 N 
ATOM     24  C   UNL     1       1.858   3.907  18.628  0.00  0.00    +0.000 A 
ATOM     25  C   UNL     1       2.793   4.698  17.951  0.00  0.00    +0.000 A 
ATOM     26  H   UNL     1       1.361   2.190  17.445  0.00  0.00    +0.000 HD
ENDBRANCH  16  17
ENDBRANCH   5  16
TORSDOF 4
ENDMDL
MODEL 7
REMARK VINA RESULT:      -8.0      4.247      8.412
REMARK  Name = 
REMARK  4 active torsions:
REMARK  status: ('A' for Active; 'I' for Inactive)
REMARK    1  A    between atoms: O_1  and  C_2
REMARK    2  A    between atoms: C_6  and  C_7
REMARK    3  A    between atoms: C_11  and  O_12
REMARK    4  A    between atoms: O_12  and  C_13
REMARK                            x       y       z     vdW  Elec       q    Type
REMARK                         _______ _______ _______ _____ _____    ______ ____
ROOT
ATOM      1  C   UNL     1       2.189   7.611  19.086  0.00  0.00    +0.000 A 
ATOM      2  C   UNL     1       1.981   7.445  20.455  0.00  0.00    +0.000 A 
ATOM      3  C   UNL     1       1.161   8.343  21.138  0.00  0.00    +0.000 A 
ATOM      4  C   UNL     1       0.594   9.409  20.449  0.00  0.00    +0.000 A 
ATOM      5  C   UNL     1       0.892   9.537  19.105  0.00  0.00    +0.000 A 
ATOM      6  N   UNL     1       1.645   8.652  18.415  0.00  0.00    +0.000 NA
ENDROOT
BRANCH   1  11
ATOM      7  C   UNL     1       3.473   4.515  17.304  0.00  0.00    +0.000 A 
ATOM      8  C   UNL     1       4.553   5.018  16.586  0.00  0.00    +0.000 A 
ATOM      9  C   UNL     1       4.872   6.368  16.701  0.00  0.00    +0.000 A 
ATOM     10  C   UNL     1       4.108   7.201  17.526  0.00  0.00    +0.000 A 
ATOM     11  C   UNL     1       3.007   6.708  18.261  0.00  0.00    +0.000 A 
ATOM     12  C   UNL     1       2.712   5.346  18.130  0.00  0.00    +0.000 A 
ATOM     13  F   UNL     1       1.662   4.815  18.779  0.00  0.00    +0.000 F 
BRANCH   7  14
ATOM     14  O   UNL     1       3.129   3.195  17.206  0.00  0.00    +0.000 OA
ATOM     15  H   UNL     1       2.858   3.000  16.294  0.00  0.00    +0.000 HD
ENDBRANCH   7  14
ENDBRANCH   1  11
BRANCH   5  16
ATOM     16  O   UNL     1       0.375  10.641  18.440  0.00  0.00    +0.000 OA
BRANCH  16  17
ATOM     17  C   UNL     1      -0.986  10.658  18.197  0.00  0.00    +0.000 A 
ATOM     18  C   UNL     1      -1.608   9.809  17.273  0.00  0.00    +0.000 A 
ATOM     19  C   UNL     1      -2.986   9.878  17.037  0.00  0.00    +0.000 A 
ATOM     20  C   UNL     1      -3.734  10.852  17.714  0.00  0.00    +0.000 A 
ATOM     21  C   UNL     1      -5.084  11.261  17.738  0.00  0.00    +0.000 A 
ATOM     22  N   UNL     1      -5.301  12.279  18.576  0.00  0.00    +0.000 NA
ATOM     23  N   UNL     1      -4.082  12.521  19.091  0.00  0.00    +0.000 N 
ATOM     24  C   UNL     1      -3.094  11.704  18.609  0.00  0.00    +0.000 A 
ATOM     25  C   UNL     1      -1.721  11.639  18.875  0.00  0.00    +0.000 A 
ATOM     26  H   UNL     1      -3.988  13.266  19.773  0.00  0.00    +0.000 HD
ENDBRANCH  16  17
ENDBRANCH   5  16
TORSDOF 4
ENDMDL
MODEL 8
REMARK VINA RESULT:      -7.9      3.167      4.411
REMARK  Name = 
REMARK  4 active torsions:
REMARK  status: ('A' for Active; 'I' for Inactive)
REMARK    1  A    between atoms: O_1  and  C_2
REMARK    2  A    between atoms: C_6  and  C_7
REMARK    3  A    between atoms: C_11  and  O_12
REMARK    4  A    between atoms: O_12  and  C_13
REMARK                            x       y       z     vdW  Elec       q    Type
REMARK                         _______ _______ _______ _____ _____    ______ ____
ROOT
ATOM      1  C   UNL     1       0.935   9.515  19.561  0.00  0.00    +0.000 A 
ATOM      2  C   UNL     1       0.630   8.976  20.811  0.00  0.00    +0.000 A 
ATOM      3  C   UNL     1       1.220   7.774  21.202  0.00  0.00    +0.000 A 
ATOM      4  C   UNL     1       2.073   7.116  20.325  0.00  0.00    +0.000 A 
ATOM      5  C   UNL     1       2.283   7.685  19.082  0.00  0.00    +0.000 A 
ATOM      6  N   UNL     1       1.759   8.871  18.703  0.00  0.00    +0.000 NA
ENDROOT
BRANCH   1  11
ATOM      7  C   UNL     1      -1.409  12.127  18.116  0.00  0.00    +0.000 A 
ATOM      8  C   UNL     1      -0.636  13.283  18.185  0.00  0.00    +0.000 A 
ATOM      9  C   UNL     1       0.659  13.201  18.688  0.00  0.00    +0.000 A 
ATOM     10  C   UNL     1       1.166  11.971  19.120  0.00  0.00    +0.000 A 
ATOM     11  C   UNL     1       0.397  10.789  19.058  0.00  0.00    +0.000 A 
ATOM     12  C   UNL     1      -0.900  10.899  18.544  0.00  0.00    +0.000 A 
ATOM     13  F   UNL     1      -1.698   9.820  18.482  0.00  0.00    +0.000 F 
BRANCH   7  14
ATOM     14  O   UNL     1      -2.689  12.175  17.635  0.00  0.00    +0.000 OA
ATOM     15  H   UNL     1      -2.691  11.907  16.702  0.00  0.00    +0.000 HD
ENDBRANCH   7  14
ENDBRANCH   1  11
BRANCH   5  16
ATOM     16  O   UNL     1       3.084   6.987  18.189  0.00  0.00    +0.000 OA
BRANCH  16  17
ATOM     17  C   UNL     1       3.037   5.606  18.237  0.00  0.00    +0.000 A 
ATOM     18  C   UNL     1       1.935   4.863  17.794  0.00  0.00    +0.000 A 
ATOM     19  C   UNL     1       1.917   3.466  17.887  0.00  0.00    +0.000 A 
ATOM     20  C   UNL     1       3.011   2.820  18.480  0.00  0.00    +0.000 A 
ATOM     21  C   UNL     1       3.361   1.487  18.783  0.00  0.00    +0.000 A 
ATOM     22  N   UNL     1       4.554   1.388  19.377  0.00  0.00    +0.000 NA
ATOM     23  N   UNL     1       4.969   2.666  19.453  0.00  0.00    +0.000 N 
ATOM     24  C   UNL     1       4.085   3.577  18.938  0.00  0.00    +0.000 A 
ATOM     25  C   UNL     1       4.133   4.972  18.837  0.00  0.00    +0.000 A 
ATOM     26  H   UNL     1       5.873   2.853  19.872  0.00  0.00    +0.000 HD
ENDBRANCH  16  17
ENDBRANCH   5  16
TORSDOF 4
ENDMDL
MODEL 9
REMARK VINA RESULT:      -7.9      2.791      7.073
REMARK  Name = 
REMARK  4 active torsions:
REMARK  status: ('A' for Active; 'I' for Inactive)
REMARK    1  A    between atoms: O_1  and  C_2
REMARK    2  A    between atoms: C_6  and  C_7
REMARK    3  A    between atoms: C_11  and  O_12
REMARK    4  A    between atoms: O_12  and  C_13
REMARK                            x       y       z     vdW  Elec       q    Type
REMARK                         _______ _______ _______ _____ _____    ______ ____
ROOT
ATOM      1  C   UNL     1       3.373   4.610  18.714  0.00  0.00    +0.000 A 
ATOM      2  C   UNL     1       2.492   3.559  18.965  0.00  0.00    +0.000 A 
ATOM      3  C   UNL     1       1.403   3.764  19.813  0.00  0.00    +0.000 A 
ATOM      4  C   UNL     1       1.235   5.002  20.420  0.00  0.00    +0.000 A 
ATOM      5  C   UNL     1       2.181   5.978  20.164  0.00  0.00    +0.000 A 
ATOM      6  N   UNL     1       3.216   5.814  19.310  0.00  0.00    +0.000 NA
ENDROOT
BRANCH   1  11
ATOM      7  C   UNL     1       6.939   4.441  17.425  0.00  0.00    +0.000 A 
ATOM      8  C   UNL     1       6.747   4.238  16.062  0.00  0.00    +0.000 A 
ATOM      9  C   UNL     1       5.449   4.176  15.563  0.00  0.00    +0.000 A 
ATOM     10  C   UNL     1       4.359   4.312  16.429  0.00  0.00    +0.000 A 
ATOM     11  C   UNL     1       4.534   4.517  17.815  0.00  0.00    +0.000 A 
ATOM     12  C   UNL     1       5.850   4.580  18.289  0.00  0.00    +0.000 A 
ATOM     13  F   UNL     1       6.090   4.746  19.600  0.00  0.00    +0.000 F 
BRANCH   7  14
ATOM     14  O   UNL     1       8.202   4.499  17.947  0.00  0.00    +0.000 OA
ATOM     15  H   UNL     1       8.850   4.445  17.227  0.00  0.00    +0.000 HD
ENDBRANCH   7  14
ENDBRANCH   1  11
BRANCH   5  16
ATOM     16  O   UNL     1       2.042   7.190  20.827  0.00  0.00    +0.000 OA
BRANCH  16  17
ATOM     17  C   UNL     1       1.446   8.228  20.134  0.00  0.00    +0.000 A 
ATOM     18  C   UNL     1       1.762   8.542  18.806  0.00  0.00    +0.000 A 
ATOM     19  C   UNL     1       1.155   9.620  18.151  0.00  0.00    +0.000 A 
ATOM     20  C   UNL     1       0.251  10.417  18.868  0.00  0.00    +0.000 A 
ATOM     21  C   UNL     1      -0.522  11.567  18.601  0.00  0.00    +0.000 A 
ATOM     22  N   UNL     1      -1.244  11.960  19.655  0.00  0.00    +0.000 NA
ATOM     23  N   UNL     1      -0.930  11.055  20.600  0.00  0.00    +0.000 N 
ATOM     24  C   UNL     1      -0.031  10.105  20.195  0.00  0.00    +0.000 A 
ATOM     25  C   UNL     1       0.549   9.021  20.863  0.00  0.00    +0.000 A 
ATOM     26  H   UNL     1      -1.367  11.143  21.511  0.00  0.00    +0.000 HD
ENDBRANCH  16  17
ENDBRANCH   5  16
TORSDOF 4
ENDMDL
