MODEL 1
REMARK VINA RESULT:      -7.9      0.000      0.000
REMARK  Name = 
REMARK  9 active torsions:
REMARK  status: ('A' for Active; 'I' for Inactive)
REMARK    1  A    between atoms: C_1  and  O_2
REMARK    2  A    between atoms: O_2  and  C_3
REMARK    3  A    between atoms: C_3  and  C_5
REMARK    4  A    between atoms: C_10  and  C_11
REMARK    5  A    between atoms: C_11  and  N_12
REMARK    6  A    between atoms: C_17  and  O_18
REMARK    7  A    between atoms: O_18  and  C_19
REMARK    8  A    between atoms: C_22  and  O_23
REMARK    9  A    between atoms: O_23  and  C_24
REMARK                            x       y       z     vdW  Elec       q    Type
REMARK                         _______ _______ _______ _____ _____    ______ ____
ROOT
ATOM      1  N   UNL     1       2.548   7.449  18.950  0.00  0.00    +0.000 N 
ATOM      2  N   UNL     1       2.257   6.850  20.158  0.00  0.00    +0.000 NA
ATOM      3  C   UNL     1       1.424   7.472  20.926  0.00  0.00    +0.000 A 
ATOM      4  C   UNL     1       0.858   8.801  20.668  0.00  0.00    +0.000 A 
ATOM      5 CL   UNL     1      -0.032   9.544  21.933  0.00  0.00    +0.000 Cl
ATOM      6  C   UNL     1       1.146   9.382  19.499  0.00  0.00    +0.000 A 
ATOM      7  C   UNL     1       1.863   8.566  18.472  0.00  0.00    +0.000 A 
ATOM      8  O   UNL     1       1.887   8.911  17.288  0.00  0.00    +0.000 OA
ENDROOT
BRANCH   1   9
ATOM      9  C   UNL     1       3.508   6.763  18.090  0.00  0.00    +0.000 C 
BRANCH   9  15
ATOM     10  C   UNL     1       4.326   4.312  18.299  0.00  0.00    +0.000 A 
ATOM     11  C   UNL     1       4.029   2.934  18.246  0.00  0.00    +0.000 A 
ATOM     12  C   UNL     1       2.739   2.483  17.974  0.00  0.00    +0.000 A 
ATOM     13  C   UNL     1       1.729   3.406  17.734  0.00  0.00    +0.000 A 
ATOM     14  C   UNL     1       2.010   4.776  17.783  0.00  0.00    +0.000 A 
ATOM     15  C   UNL     1       3.306   5.259  18.078  0.00  0.00    +0.000 A 
BRANCH  10  16
ATOM     16  C   UNL     1       5.753   4.617  18.575  0.00  0.00    +0.000 C 
ATOM     17  O   UNL     1       6.133   5.068  19.646  0.00  0.00    +0.000 OA
BRANCH  16  19
ATOM     18  C   UNL     1       6.906   5.727  16.869  0.00  0.00    +0.000 C 
ATOM     19  O   UNL     1       6.503   4.487  17.456  0.00  0.00    +0.000 OA
ENDBRANCH  16  19
ENDBRANCH  10  16
ENDBRANCH   9  15
ENDBRANCH   1   9
BRANCH   6  20
ATOM     20  O   UNL     1       0.743  10.693  19.234  0.00  0.00    +0.000 OA
BRANCH  20  21
ATOM     21  C   UNL     1      -0.563  10.950  18.872  0.00  0.00    +0.000 A 
ATOM     22  C   UNL     1      -1.202  11.984  19.558  0.00  0.00    +0.000 A 
ATOM     23  C   UNL     1      -2.546  12.273  19.299  0.00  0.00    +0.000 A 
ATOM     24  C   UNL     1      -3.257  11.539  18.348  0.00  0.00    +0.000 A 
ATOM     25  C   UNL     1      -2.611  10.526  17.644  0.00  0.00    +0.000 A 
ATOM     26  C   UNL     1      -1.260  10.261  17.876  0.00  0.00    +0.000 A 
BRANCH  24  27
ATOM     27  O   UNL     1      -4.576  11.871  18.200  0.00  0.00    +0.000 OA
ATOM     28  C   UNL     1      -5.495  10.796  18.365  0.00  0.00    +0.000 C 
ENDBRANCH  24  27
ENDBRANCH  20  21
ENDBRANCH   6  20
TORSDOF 7
ENDMDL
MODEL 2
REMARK VINA RESULT:      -7.8      0.479      1.228
REMARK  Name = 
REMARK  9 active torsions:
REMARK  status: ('A' for Active; 'I' for Inactive)
REMARK    1  A    between atoms: C_1  and  O_2
REMARK    2  A    between atoms: O_2  and  C_3
REMARK    3  A    between atoms: C_3  and  C_5
REMARK    4  A    between atoms: C_10  and  C_11
REMARK    5  A    between atoms: C_11  and  N_12
REMARK    6  A    between atoms: C_17  and  O_18
REMARK    7  A    between atoms: O_18  and  C_19
REMARK    8  A    between atoms: C_22  and  O_23
REMARK    9  A    between atoms: O_23  and  C_24
REMARK                            x       y       z     vdW  Elec       q    Type
REMARK                         _______ _______ _______ _____ _____    ______ ____
ROOT
ATOM      1  N   UNL     1       2.586   7.478  18.896  0.00  0.00    +0.000 N 
ATOM      2  N   UNL     1       2.326   6.881  20.113  0.00  0.00    +0.000 NA
ATOM      3  C   UNL     1       1.504   7.499  20.896  0.00  0.00    +0.000 A 
ATOM      4  C   UNL     1       0.922   8.822  20.645  0.00  0.00    +0.000 A 
ATOM      5 CL   UNL     1       0.052   9.562  21.926  0.00  0.00    +0.000 Cl
ATOM      6  C   UNL     1       1.180   9.401  19.468  0.00  0.00    +0.000 A 
ATOM      7  C   UNL     1       1.882   8.587  18.429  0.00  0.00    +0.000 A 
ATOM      8  O   UNL     1       1.879   8.927  17.244  0.00  0.00    +0.000 OA
ENDROOT
BRANCH   1   9
ATOM      9  C   UNL     1       3.534   6.796  18.019  0.00  0.00    +0.000 C 
BRANCH   9  15
ATOM     10  C   UNL     1       4.285   4.317  17.914  0.00  0.00    +0.000 A 
ATOM     11  C   UNL     1       3.931   2.954  17.815  0.00  0.00    +0.000 A 
ATOM     12  C   UNL     1       2.599   2.557  17.732  0.00  0.00    +0.000 A 
ATOM     13  C   UNL     1       1.598   3.520  17.732  0.00  0.00    +0.000 A 
ATOM     14  C   UNL     1       1.934   4.875  17.829  0.00  0.00    +0.000 A 
ATOM     15  C   UNL     1       3.277   5.302  17.935  0.00  0.00    +0.000 A 
BRANCH  10  16
ATOM     16  C   UNL     1       5.747   4.565  17.967  0.00  0.00    +0.000 C 
ATOM     17  O   UNL     1       6.472   4.429  16.992  0.00  0.00    +0.000 OA
BRANCH  16  19
ATOM     18  C   UNL     1       7.319   5.613  19.345  0.00  0.00    +0.000 C 
ATOM     19  O   UNL     1       6.157   4.787  19.237  0.00  0.00    +0.000 OA
ENDBRANCH  16  19
ENDBRANCH  10  16
ENDBRANCH   9  15
ENDBRANCH   1   9
BRANCH   6  20
ATOM     20  O   UNL     1       0.761  10.708  19.207  0.00  0.00    +0.000 OA
BRANCH  20  21
ATOM     21  C   UNL     1      -0.570  10.964  18.955  0.00  0.00    +0.000 A 
ATOM     22  C   UNL     1      -1.157  10.228  17.924  0.00  0.00    +0.000 A 
ATOM     23  C   UNL     1      -2.486  10.466  17.560  0.00  0.00    +0.000 A 
ATOM     24  C   UNL     1      -3.242  11.431  18.227  0.00  0.00    +0.000 A 
ATOM     25  C   UNL     1      -2.664  12.146  19.274  0.00  0.00    +0.000 A 
ATOM     26  C   UNL     1      -1.349  11.883  19.663  0.00  0.00    +0.000 A 
BRANCH  24  27
ATOM     27  O   UNL     1      -4.516  11.617  17.767  0.00  0.00    +0.000 OA
ATOM     28  C   UNL     1      -5.542  11.468  18.743  0.00  0.00    +0.000 C 
ENDBRANCH  24  27
ENDBRANCH  20  21
ENDBRANCH   6  20
TORSDOF 7
ENDMDL
MODEL 3
REMARK VINA RESULT:      -7.4      2.458      3.710
REMARK  Name = 
REMARK  9 active torsions:
REMARK  status: ('A' for Active; 'I' for Inactive)
REMARK    1  A    between atoms: C_1  and  O_2
REMARK    2  A    between atoms: O_2  and  C_3
REMARK    3  A    between atoms: C_3  and  C_5
REMARK    4  A    between atoms: C_10  and  C_11
REMARK    5  A    between atoms: C_11  and  N_12
REMARK    6  A    between atoms: C_17  and  O_18
REMARK    7  A    between atoms: O_18  and  C_19
REMARK    8  A    between atoms: C_22  and  O_23
REMARK    9  A    between atoms: O_23  and  C_24
REMARK                            x       y       z     vdW  Elec       q    Type
REMARK                         _______ _______ _______ _____ _____    ______ ____
ROOT
ATOM      1  N   UNL     1       2.432   7.763  18.931  0.00  0.00    +0.000 N 
ATOM      2  N   UNL     1       2.196   7.179  20.158  0.00  0.00    +0.000 NA
ATOM      3  C   UNL     1       1.367   7.790  20.939  0.00  0.00    +0.000 A 
ATOM      4  C   UNL     1       0.753   9.097  20.673  0.00  0.00    +0.000 A 
ATOM      5 CL   UNL     1      -0.123   9.837  21.950  0.00  0.00    +0.000 Cl
ATOM      6  C   UNL     1       0.989   9.663  19.486  0.00  0.00    +0.000 A 
ATOM      7  C   UNL     1       1.700   8.849  18.453  0.00  0.00    +0.000 A 
ATOM      8  O   UNL     1       1.679   9.171  17.263  0.00  0.00    +0.000 OA
ENDROOT
BRANCH   1   9
ATOM      9  C   UNL     1       3.388   7.090  18.056  0.00  0.00    +0.000 C 
BRANCH   9  15
ATOM     10  C   UNL     1       4.302   4.681  18.346  0.00  0.00    +0.000 A 
ATOM     11  C   UNL     1       4.058   3.291  18.338  0.00  0.00    +0.000 A 
ATOM     12  C   UNL     1       2.788   2.781  18.081  0.00  0.00    +0.000 A 
ATOM     13  C   UNL     1       1.743   3.655  17.810  0.00  0.00    +0.000 A 
ATOM     14  C   UNL     1       1.970   5.036  17.814  0.00  0.00    +0.000 A 
ATOM     15  C   UNL     1       3.245   5.579  18.093  0.00  0.00    +0.000 A 
BRANCH  10  16
ATOM     16  C   UNL     1       5.715   5.051  18.612  0.00  0.00    +0.000 C 
ATOM     17  O   UNL     1       6.174   5.118  19.743  0.00  0.00    +0.000 OA
BRANCH  16  19
ATOM     18  C   UNL     1       7.343   4.547  17.012  0.00  0.00    +0.000 C 
ATOM     19  O   UNL     1       6.335   5.448  17.478  0.00  0.00    +0.000 OA
ENDBRANCH  16  19
ENDBRANCH  10  16
ENDBRANCH   9  15
ENDBRANCH   1   9
BRANCH   6  20
ATOM     20  O   UNL     1       0.538  10.956  19.208  0.00  0.00    +0.000 OA
BRANCH  20  21
ATOM     21  C   UNL     1       1.382  12.031  19.394  0.00  0.00    +0.000 A 
ATOM     22  C   UNL     1       2.094  12.459  18.272  0.00  0.00    +0.000 A 
ATOM     23  C   UNL     1       3.018  13.503  18.383  0.00  0.00    +0.000 A 
ATOM     24  C   UNL     1       3.230  14.134  19.610  0.00  0.00    +0.000 A 
ATOM     25  C   UNL     1       2.499  13.725  20.723  0.00  0.00    +0.000 A 
ATOM     26  C   UNL     1       1.550  12.708  20.605  0.00  0.00    +0.000 A 
BRANCH  24  27
ATOM     27  O   UNL     1       4.184  15.113  19.622  0.00  0.00    +0.000 OA
ATOM     28  C   UNL     1       4.426  15.741  18.367  0.00  0.00    +0.000 C 
ENDBRANCH  24  27
ENDBRANCH  20  21
ENDBRANCH   6  20
TORSDOF 7
ENDMDL
MODEL 4
REMARK VINA RESULT:      -7.2      2.495      3.746
REMARK  Name = 
REMARK  9 active torsions:
REMARK  status: ('A' for Active; 'I' for Inactive)
REMARK    1  A    between atoms: C_1  and  O_2
REMARK    2  A    between atoms: O_2  and  C_3
REMARK    3  A    between atoms: C_3  and  C_5
REMARK    4  A    between atoms: C_10  and  C_11
REMARK    5  A    between atoms: C_11  and  N_12
REMARK    6  A    between atoms: C_17  and  O_18
REMARK    7  A    between atoms: O_18  and  C_19
REMARK    8  A    between atoms: C_22  and  O_23
REMARK    9  A    between atoms: O_23  and  C_24
REMARK                            x       y       z     vdW  Elec       q    Type
REMARK                         _______ _______ _______ _____ _____    ______ ____
ROOT
ATOM      1  N   UNL     1       2.503   7.683  18.856  0.00  0.00    +0.000 N 
ATOM      2  N   UNL     1       2.280   7.077  20.076  0.00  0.00    +0.000 NA
ATOM      3  C   UNL     1       1.453   7.670  20.873  0.00  0.00    +0.000 A 
ATOM      4  C   UNL     1       0.829   8.977  20.633  0.00  0.00    +0.000 A 
ATOM      5 CL   UNL     1      -0.042   9.689  21.929  0.00  0.00    +0.000 Cl
ATOM      6  C   UNL     1       1.051   9.564  19.453  0.00  0.00    +0.000 A 
ATOM      7  C   UNL     1       1.760   8.772  18.402  0.00  0.00    +0.000 A 
ATOM      8  O   UNL     1       1.728   9.113  17.217  0.00  0.00    +0.000 OA
ENDROOT
BRANCH   1   9
ATOM      9  C   UNL     1       3.457   7.030  17.963  0.00  0.00    +0.000 C 
BRANCH   9  15
ATOM     10  C   UNL     1       4.201   4.577  17.578  0.00  0.00    +0.000 A 
ATOM     11  C   UNL     1       3.849   3.216  17.457  0.00  0.00    +0.000 A 
ATOM     12  C   UNL     1       2.526   2.798  17.580  0.00  0.00    +0.000 A 
ATOM     13  C   UNL     1       1.531   3.739  17.811  0.00  0.00    +0.000 A 
ATOM     14  C   UNL     1       1.866   5.093  17.932  0.00  0.00    +0.000 A 
ATOM     15  C   UNL     1       3.203   5.539  17.833  0.00  0.00    +0.000 A 
BRANCH  10  16
ATOM     16  C   UNL     1       5.649   4.851  17.394  0.00  0.00    +0.000 C 
ATOM     17  O   UNL     1       6.109   5.272  16.343  0.00  0.00    +0.000 OA
BRANCH  16  19
ATOM     18  C   UNL     1       6.693   5.447  19.401  0.00  0.00    +0.000 C 
ATOM     19  O   UNL     1       6.364   4.421  18.459  0.00  0.00    +0.000 OA
ENDBRANCH  16  19
ENDBRANCH  10  16
ENDBRANCH   9  15
ENDBRANCH   1   9
BRANCH   6  20
ATOM     20  O   UNL     1       0.590  10.858  19.200  0.00  0.00    +0.000 OA
BRANCH  20  21
ATOM     21  C   UNL     1       1.458  11.926  19.292  0.00  0.00    +0.000 A 
ATOM     22  C   UNL     1       1.561  12.533  20.544  0.00  0.00    +0.000 A 
ATOM     23  C   UNL     1       2.372  13.660  20.713  0.00  0.00    +0.000 A 
ATOM     24  C   UNL     1       3.092  14.183  19.638  0.00  0.00    +0.000 A 
ATOM     25  C   UNL     1       3.010  13.561  18.395  0.00  0.00    +0.000 A 
ATOM     26  C   UNL     1       2.230  12.413  18.234  0.00  0.00    +0.000 A 
BRANCH  24  27
ATOM     27  O   UNL     1       3.820  15.312  19.897  0.00  0.00    +0.000 OA
ATOM     28  C   UNL     1       5.143  15.085  20.371  0.00  0.00    +0.000 C 
ENDBRANCH  24  27
ENDBRANCH  20  21
ENDBRANCH   6  20
TORSDOF 7
ENDMDL
MODEL 5
REMARK VINA RESULT:      -7.2      1.205      2.674
REMARK  Name = 
REMARK  9 active torsions:
REMARK  status: ('A' for Active; 'I' for Inactive)
REMARK    1  A    between atoms: C_1  and  O_2
REMARK    2  A    between atoms: O_2  and  C_3
REMARK    3  A    between atoms: C_3  and  C_5
REMARK    4  A    between atoms: C_10  and  C_11
REMARK    5  A    between atoms: C_11  and  N_12
REMARK    6  A    between atoms: C_17  and  O_18
REMARK    7  A    between atoms: O_18  and  C_19
REMARK    8  A    between atoms: C_22  and  O_23
REMARK    9  A    between atoms: O_23  and  C_24
REMARK                            x       y       z     vdW  Elec       q    Type
REMARK                         _______ _______ _______ _____ _____    ______ ____
ROOT
ATOM      1  N   UNL     1       2.766   6.885  18.427  0.00  0.00    +0.000 N 
ATOM      2  N   UNL     1       2.543   6.133  19.563  0.00  0.00    +0.000 NA
ATOM      3  C   UNL     1       1.881   6.706  20.514  0.00  0.00    +0.000 A 
ATOM      4  C   UNL     1       1.451   8.109  20.527  0.00  0.00    +0.000 A 
ATOM      5 CL   UNL     1       0.802   8.726  21.991  0.00  0.00    +0.000 Cl
ATOM      6  C   UNL     1       1.673   8.836  19.428  0.00  0.00    +0.000 A 
ATOM      7  C   UNL     1       2.168   8.126  18.209  0.00  0.00    +0.000 A 
ATOM      8  O   UNL     1       2.101   8.650  17.095  0.00  0.00    +0.000 OA
ENDROOT
BRANCH   1   9
ATOM      9  C   UNL     1       3.536   6.252  17.360  0.00  0.00    +0.000 C 
BRANCH   9  15
ATOM     10  C   UNL     1       5.630   5.027  18.274  0.00  0.00    +0.000 A 
ATOM     11  C   UNL     1       7.013   5.052  18.557  0.00  0.00    +0.000 A 
ATOM     12  C   UNL     1       7.788   6.174  18.274  0.00  0.00    +0.000 A 
ATOM     13  C   UNL     1       7.188   7.297  17.718  0.00  0.00    +0.000 A 
ATOM     14  C   UNL     1       5.818   7.286  17.434  0.00  0.00    +0.000 A 
ATOM     15  C   UNL     1       5.014   6.153  17.691  0.00  0.00    +0.000 A 
BRANCH  10  16
ATOM     16  C   UNL     1       4.952   3.765  18.661  0.00  0.00    +0.000 C 
ATOM     17  O   UNL     1       5.034   3.293  19.786  0.00  0.00    +0.000 OA
BRANCH  16  19
ATOM     18  C   UNL     1       3.098   2.612  17.821  0.00  0.00    +0.000 C 
ATOM     19  O   UNL     1       4.397   3.161  17.585  0.00  0.00    +0.000 OA
ENDBRANCH  16  19
ENDBRANCH  10  16
ENDBRANCH   9  15
ENDBRANCH   1   9
BRANCH   6  20
ATOM     20  O   UNL     1       1.401  10.206  19.410  0.00  0.00    +0.000 OA
BRANCH  20  21
ATOM     21  C   UNL     1       0.100  10.646  19.278  0.00  0.00    +0.000 A 
ATOM     22  C   UNL     1      -0.613  10.146  18.188  0.00  0.00    +0.000 A 
ATOM     23  C   UNL     1      -1.919  10.584  17.943  0.00  0.00    +0.000 A 
ATOM     24  C   UNL     1      -2.524  11.516  18.788  0.00  0.00    +0.000 A 
ATOM     25  C   UNL     1      -1.821  11.994  19.891  0.00  0.00    +0.000 A 
ATOM     26  C   UNL     1      -0.531  11.529  20.158  0.00  0.00    +0.000 A 
BRANCH  24  27
ATOM     27  O   UNL     1      -3.785  11.912  18.437  0.00  0.00    +0.000 OA
ATOM     28  C   UNL     1      -4.266  11.385  17.205  0.00  0.00    +0.000 C 
ENDBRANCH  24  27
ENDBRANCH  20  21
ENDBRANCH   6  20
TORSDOF 7
ENDMDL
MODEL 6
REMARK VINA RESULT:      -7.2      1.197      1.280
REMARK  Name = 
REMARK  9 active torsions:
REMARK  status: ('A' for Active; 'I' for Inactive)
REMARK    1  A    between atoms: C_1  and  O_2
REMARK    2  A    between atoms: O_2  and  C_3
REMARK    3  A    between atoms: C_3  and  C_5
REMARK    4  A    between atoms: C_10  and  C_11
REMARK    5  A    between atoms: C_11  and  N_12
REMARK    6  A    between atoms: C_17  and  O_18
REMARK    7  A    between atoms: O_18  and  C_19
REMARK    8  A    between atoms: C_22  and  O_23
REMARK    9  A    between atoms: O_23  and  C_24
REMARK                            x       y       z     vdW  Elec       q    Type
REMARK                         _______ _______ _______ _____ _____    ______ ____
ROOT
ATOM      1  N   UNL     1       2.464   7.943  18.941  0.00  0.00    +0.000 N 
ATOM      2  N   UNL     1       2.262   7.400  20.194  0.00  0.00    +0.000 NA
ATOM      3  C   UNL     1       1.341   7.945  20.918  0.00  0.00    +0.000 A 
ATOM      4  C   UNL     1       0.580   9.149  20.564  0.00  0.00    +0.000 A 
ATOM      5 CL   UNL     1      -0.419   9.842  21.775  0.00  0.00    +0.000 Cl
ATOM      6  C   UNL     1       0.782   9.676  19.352  0.00  0.00    +0.000 A 
ATOM      7  C   UNL     1       1.619   8.902  18.384  0.00  0.00    +0.000 A 
ATOM      8  O   UNL     1       1.596   9.156  17.178  0.00  0.00    +0.000 OA
ENDROOT
BRANCH   1   9
ATOM      9  C   UNL     1       3.521   7.347  18.129  0.00  0.00    +0.000 C 
BRANCH   9  15
ATOM     10  C   UNL     1       4.108   5.067  17.043  0.00  0.00    +0.000 A 
ATOM     11  C   UNL     1       3.758   3.721  16.803  0.00  0.00    +0.000 A 
ATOM     12  C   UNL     1       2.584   3.178  17.318  0.00  0.00    +0.000 A 
ATOM     13  C   UNL     1       1.732   3.978  18.068  0.00  0.00    +0.000 A 
ATOM     14  C   UNL     1       2.066   5.314  18.313  0.00  0.00    +0.000 A 
ATOM     15  C   UNL     1       3.262   5.884  17.820  0.00  0.00    +0.000 A 
BRANCH  10  16
ATOM     16  C   UNL     1       5.378   5.491  16.401  0.00  0.00    +0.000 C 
ATOM     17  O   UNL     1       5.614   6.657  16.118  0.00  0.00    +0.000 OA
BRANCH  16  19
ATOM     18  C   UNL     1       7.063   4.680  14.996  0.00  0.00    +0.000 C 
ATOM     19  O   UNL     1       6.121   4.420  16.040  0.00  0.00    +0.000 OA
ENDBRANCH  16  19
ENDBRANCH  10  16
ENDBRANCH   9  15
ENDBRANCH   1   9
BRANCH   6  20
ATOM     20  O   UNL     1       0.185  10.887  18.990  0.00  0.00    +0.000 OA
BRANCH  20  21
ATOM     21  C   UNL     1      -1.140  10.911  18.608  0.00  0.00    +0.000 A 
ATOM     22  C   UNL     1      -1.945  11.864  19.233  0.00  0.00    +0.000 A 
ATOM     23  C   UNL     1      -3.315  11.920  18.952  0.00  0.00    +0.000 A 
ATOM     24  C   UNL     1      -3.886  11.033  18.038  0.00  0.00    +0.000 A 
ATOM     25  C   UNL     1      -3.077  10.100  17.394  0.00  0.00    +0.000 A 
ATOM     26  C   UNL     1      -1.704  10.068  17.647  0.00  0.00    +0.000 A 
BRANCH  24  27
ATOM     27  O   UNL     1      -5.239  11.141  17.865  0.00  0.00    +0.000 OA
ATOM     28  C   UNL     1      -5.666  12.263  17.099  0.00  0.00    +0.000 C 
ENDBRANCH  24  27
ENDBRANCH  20  21
ENDBRANCH   6  20
TORSDOF 7
ENDMDL
MODEL 7
REMARK VINA RESULT:      -7.2      5.007      8.214
REMARK  Name = 
REMARK  9 active torsions:
REMARK  status: ('A' for Active; 'I' for Inactive)
REMARK    1  A    between atoms: C_1  and  O_2
REMARK    2  A    between atoms: O_2  and  C_3
REMARK    3  A    between atoms: C_3  and  C_5
REMARK    4  A    between atoms: C_10  and  C_11
REMARK    5  A    between atoms: C_11  and  N_12
REMARK    6  A    between atoms: C_17  and  O_18
REMARK    7  A    between atoms: O_18  and  C_19
REMARK    8  A    between atoms: C_22  and  O_23
REMARK    9  A    between atoms: O_23  and  C_24
REMARK                            x       y       z     vdW  Elec       q    Type
REMARK                         _______ _______ _______ _____ _____    ______ ____
ROOT
ATOM      1  N   UNL     1       4.848   6.160  17.908  0.00  0.00    +0.000 N 
ATOM      2  N   UNL     1       5.310   5.597  19.080  0.00  0.00    +0.000 NA
ATOM      3  C   UNL     1       6.524   5.152  19.068  0.00  0.00    +0.000 A 
ATOM      4  C   UNL     1       7.398   5.097  17.891  0.00  0.00    +0.000 A 
ATOM      5 CL   UNL     1       8.880   4.244  18.043  0.00  0.00    +0.000 Cl
ATOM      6  C   UNL     1       6.946   5.638  16.756  0.00  0.00    +0.000 A 
ATOM      7  C   UNL     1       5.672   6.419  16.814  0.00  0.00    +0.000 A 
ATOM      8  O   UNL     1       5.357   7.193  15.907  0.00  0.00    +0.000 OA
ENDROOT
BRANCH   1   9
ATOM      9  C   UNL     1       3.469   6.640  17.909  0.00  0.00    +0.000 C 
BRANCH   9  15
ATOM     10  C   UNL     1       2.234   4.484  18.650  0.00  0.00    +0.000 A 
ATOM     11  C   UNL     1       1.377   3.842  19.569  0.00  0.00    +0.000 A 
ATOM     12  C   UNL     1       0.854   4.522  20.666  0.00  0.00    +0.000 A 
ATOM     13  C   UNL     1       1.167   5.862  20.851  0.00  0.00    +0.000 A 
ATOM     14  C   UNL     1       2.014   6.513  19.947  0.00  0.00    +0.000 A 
ATOM     15  C   UNL     1       2.575   5.839  18.838  0.00  0.00    +0.000 A 
BRANCH  10  16
ATOM     16  C   UNL     1       2.679   3.622  17.526  0.00  0.00    +0.000 C 
ATOM     17  O   UNL     1       2.007   3.456  16.519  0.00  0.00    +0.000 OA
BRANCH  16  19
ATOM     18  C   UNL     1       3.607   1.555  18.109  0.00  0.00    +0.000 C 
ATOM     19  O   UNL     1       3.807   2.948  17.849  0.00  0.00    +0.000 OA
ENDBRANCH  16  19
ENDBRANCH  10  16
ENDBRANCH   9  15
ENDBRANCH   1   9
BRANCH   6  20
ATOM     20  O   UNL     1       7.671   5.518  15.567  0.00  0.00    +0.000 OA
BRANCH  20  21
ATOM     21  C   UNL     1       7.109   4.877  14.483  0.00  0.00    +0.000 A 
ATOM     22  C   UNL     1       5.973   4.108  14.741  0.00  0.00    +0.000 A 
ATOM     23  C   UNL     1       5.373   3.374  13.712  0.00  0.00    +0.000 A 
ATOM     24  C   UNL     1       5.896   3.411  12.418  0.00  0.00    +0.000 A 
ATOM     25  C   UNL     1       7.013   4.201  12.156  0.00  0.00    +0.000 A 
ATOM     26  C   UNL     1       7.590   4.962  13.174  0.00  0.00    +0.000 A 
BRANCH  24  27
ATOM     27  O   UNL     1       5.263   2.626  11.494  0.00  0.00    +0.000 OA
ATOM     28  C   UNL     1       3.960   3.061  11.117  0.00  0.00    +0.000 C 
ENDBRANCH  24  27
ENDBRANCH  20  21
ENDBRANCH   6  20
TORSDOF 7
ENDMDL
MODEL 8
REMARK VINA RESULT:      -7.1      5.131      8.135
REMARK  Name = 
REMARK  9 active torsions:
REMARK  status: ('A' for Active; 'I' for Inactive)
REMARK    1  A    between atoms: C_1  and  O_2
REMARK    2  A    between atoms: O_2  and  C_3
REMARK    3  A    between atoms: C_3  and  C_5
REMARK    4  A    between atoms: C_10  and  C_11
REMARK    5  A    between atoms: C_11  and  N_12
REMARK    6  A    between atoms: C_17  and  O_18
REMARK    7  A    between atoms: O_18  and  C_19
REMARK    8  A    between atoms: C_22  and  O_23
REMARK    9  A    between atoms: O_23  and  C_24
REMARK                            x       y       z     vdW  Elec       q    Type
REMARK                         _______ _______ _______ _____ _____    ______ ____
ROOT
ATOM      1  N   UNL     1       4.178   5.752  18.890  0.00  0.00    +0.000 N 
ATOM      2  N   UNL     1       5.028   4.975  19.649  0.00  0.00    +0.000 NA
ATOM      3  C   UNL     1       6.220   4.795  19.181  0.00  0.00    +0.000 A 
ATOM      4  C   UNL     1       6.697   5.251  17.871  0.00  0.00    +0.000 A 
ATOM      5 CL   UNL     1       8.233   4.693  17.347  0.00  0.00    +0.000 Cl
ATOM      6  C   UNL     1       5.869   5.999  17.135  0.00  0.00    +0.000 A 
ATOM      7  C   UNL     1       4.600   6.469  17.771  0.00  0.00    +0.000 A 
ATOM      8  O   UNL     1       3.949   7.395  17.284  0.00  0.00    +0.000 OA
ENDROOT
BRANCH   1   9
ATOM      9  C   UNL     1       2.823   5.936  19.402  0.00  0.00    +0.000 C 
BRANCH   9  15
ATOM     10  C   UNL     1       1.695   3.610  19.203  0.00  0.00    +0.000 A 
ATOM     11  C   UNL     1       1.160   2.472  19.843  0.00  0.00    +0.000 A 
ATOM     12  C   UNL     1       1.154   2.359  21.231  0.00  0.00    +0.000 A 
ATOM     13  C   UNL     1       1.669   3.393  22.002  0.00  0.00    +0.000 A 
ATOM     14  C   UNL     1       2.202   4.529  21.381  0.00  0.00    +0.000 A 
ATOM     15  C   UNL     1       2.239   4.657  19.974  0.00  0.00    +0.000 A 
BRANCH  10  16
ATOM     16  C   UNL     1       1.598   3.579  17.722  0.00  0.00    +0.000 C 
ATOM     17  O   UNL     1       0.888   4.350  17.093  0.00  0.00    +0.000 OA
BRANCH  16  19
ATOM     18  C   UNL     1       3.676   2.580  17.327  0.00  0.00    +0.000 C 
ATOM     19  O   UNL     1       2.252   2.509  17.214  0.00  0.00    +0.000 OA
ENDBRANCH  16  19
ENDBRANCH  10  16
ENDBRANCH   9  15
ENDBRANCH   1   9
BRANCH   6  20
ATOM     20  O   UNL     1       6.207   6.367  15.830  0.00  0.00    +0.000 OA
BRANCH  20  21
ATOM     21  C   UNL     1       6.244   5.414  14.835  0.00  0.00    +0.000 A 
ATOM     22  C   UNL     1       7.385   5.402  14.032  0.00  0.00    +0.000 A 
ATOM     23  C   UNL     1       7.480   4.508  12.960  0.00  0.00    +0.000 A 
ATOM     24  C   UNL     1       6.442   3.614  12.689  0.00  0.00    +0.000 A 
ATOM     25  C   UNL     1       5.316   3.608  13.507  0.00  0.00    +0.000 A 
ATOM     26  C   UNL     1       5.236   4.474  14.599  0.00  0.00    +0.000 A 
BRANCH  24  27
ATOM     27  O   UNL     1       6.614   2.813  11.593  0.00  0.00    +0.000 OA
ATOM     28  C   UNL     1       5.642   1.784  11.436  0.00  0.00    +0.000 C 
ENDBRANCH  24  27
ENDBRANCH  20  21
ENDBRANCH   6  20
TORSDOF 7
ENDMDL
MODEL 9
REMARK VINA RESULT:      -7.1      2.509      3.648
REMARK  Name = 
REMARK  9 active torsions:
REMARK  status: ('A' for Active; 'I' for Inactive)
REMARK    1  A    between atoms: C_1  and  O_2
REMARK    2  A    between atoms: O_2  and  C_3
REMARK    3  A    between atoms: C_3  and  C_5
REMARK    4  A    between atoms: C_10  and  C_11
REMARK    5  A    between atoms: C_11  and  N_12
REMARK    6  A    between atoms: C_17  and  O_18
REMARK    7  A    between atoms: O_18  and  C_19
REMARK    8  A    between atoms: C_22  and  O_23
REMARK    9  A    between atoms: O_23  and  C_24
REMARK                            x       y       z     vdW  Elec       q    Type
REMARK                         _______ _______ _______ _____ _____    ______ ____
ROOT
ATOM      1  N   UNL     1       2.482   7.722  18.870  0.00  0.00    +0.000 N 
ATOM      2  N   UNL     1       2.247   7.119  20.089  0.00  0.00    +0.000 NA
ATOM      3  C   UNL     1       1.422   7.720  20.882  0.00  0.00    +0.000 A 
ATOM      4  C   UNL     1       0.810   9.031  20.638  0.00  0.00    +0.000 A 
ATOM      5 CL   UNL     1      -0.061   9.753  21.928  0.00  0.00    +0.000 Cl
ATOM      6  C   UNL     1       1.043   9.616  19.459  0.00  0.00    +0.000 A 
ATOM      7  C   UNL     1       1.750   8.817  18.411  0.00  0.00    +0.000 A 
ATOM      8  O   UNL     1       1.727   9.157  17.226  0.00  0.00    +0.000 OA
ENDROOT
BRANCH   1   9
ATOM      9  C   UNL     1       3.434   7.061  17.982  0.00  0.00    +0.000 C 
BRANCH   9  15
ATOM     10  C   UNL     1       4.157   4.603  17.585  0.00  0.00    +0.000 A 
ATOM     11  C   UNL     1       3.793   3.244  17.465  0.00  0.00    +0.000 A 
ATOM     12  C   UNL     1       2.469   2.836  17.601  0.00  0.00    +0.000 A 
ATOM     13  C   UNL     1       1.483   3.784  17.844  0.00  0.00    +0.000 A 
ATOM     14  C   UNL     1       1.829   5.135  17.964  0.00  0.00    +0.000 A 
ATOM     15  C   UNL     1       3.168   5.572  17.851  0.00  0.00    +0.000 A 
BRANCH  10  16
ATOM     16  C   UNL     1       5.604   4.866  17.386  0.00  0.00    +0.000 C 
ATOM     17  O   UNL     1       6.406   4.860  18.309  0.00  0.00    +0.000 OA
BRANCH  16  19
ATOM     18  C   UNL     1       6.974   4.611  15.507  0.00  0.00    +0.000 C 
ATOM     19  O   UNL     1       5.856   5.263  16.117  0.00  0.00    +0.000 OA
ENDBRANCH  16  19
ENDBRANCH  10  16
ENDBRANCH   9  15
ENDBRANCH   1   9
BRANCH   6  20
ATOM     20  O   UNL     1       0.594  10.914  19.202  0.00  0.00    +0.000 OA
BRANCH  20  21
ATOM     21  C   UNL     1       1.472  11.973  19.289  0.00  0.00    +0.000 A 
ATOM     22  C   UNL     1       1.568  12.597  20.534  0.00  0.00    +0.000 A 
ATOM     23  C   UNL     1       2.388  13.718  20.697  0.00  0.00    +0.000 A 
ATOM     24  C   UNL     1       3.127  14.217  19.623  0.00  0.00    +0.000 A 
ATOM     25  C   UNL     1       3.052  13.578  18.388  0.00  0.00    +0.000 A 
ATOM     26  C   UNL     1       2.262  12.437  18.233  0.00  0.00    +0.000 A 
BRANCH  24  27
ATOM     27  O   UNL     1       3.863  15.342  19.875  0.00  0.00    +0.000 OA
ATOM     28  C   UNL     1       4.215  16.107  18.727  0.00  0.00    +0.000 C 
ENDBRANCH  24  27
ENDBRANCH  20  21
ENDBRANCH   6  20
TORSDOF 7
ENDMDL
