MODEL 1
REMARK VINA RESULT:      -6.7      0.000      0.000
REMARK  Name = 
REMARK  8 active torsions:
REMARK  status: ('A' for Active; 'I' for Inactive)
REMARK    1  A    between atoms: C_2  and  C_3
REMARK    2  A    between atoms: C_3  and  C_4
REMARK    3  A    between atoms: C_5  and  C_6
REMARK    4  A    between atoms: C_6  and  C_7
REMARK    5  A    between atoms: C_11  and  C_12
REMARK    6  A    between atoms: C_12  and  C_13
REMARK    7  A    between atoms: C_13  and  C_14
REMARK    8  A    between atoms: C_15  and  O_16
REMARK                            x       y       z     vdW  Elec       q    Type
REMARK                         _______ _______ _______ _____ _____    ______ ____
ROOT
ATOM      1  C   UNL     1       4.578   5.419  18.366  0.00  0.00    +0.000 C 
ATOM      2  C   UNL     1       4.388   6.665  17.485  0.00  0.00    +0.000 C 
ATOM      3  S   UNL     1       4.528   3.996  17.174  0.00  0.00    +0.000 S 
ATOM      4  C   UNL     1       2.851   3.667  17.524  0.00  0.00    +0.000 C 
ATOM      5  O   UNL     1       2.120   3.020  16.796  0.00  0.00    +0.000 OA
ATOM      6  C   UNL     1       2.443   4.264  18.813  0.00  0.00    +0.000 C 
ATOM      7  C   UNL     1       3.364   5.141  19.246  0.00  0.00    +0.000 C 
ENDROOT
BRANCH   1  10
ATOM      8  C   UNL     1       7.124   5.928  18.755  0.00  0.00    +0.000 C 
ATOM      9  C   UNL     1       8.286   5.656  19.686  0.00  0.00    +0.000 C 
ATOM     10  C   UNL     1       5.924   5.386  19.083  0.00  0.00    +0.000 C 
BRANCH   8  12
ATOM     11  C   UNL     1       7.740   8.023  17.500  0.00  0.00    +0.000 C 
ATOM     12  C   UNL     1       7.333   6.749  17.573  0.00  0.00    +0.000 C 
ENDBRANCH   8  12
ENDBRANCH   1  10
BRANCH   7  13
ATOM     13  O   UNL     1       3.234   5.861  20.414  0.00  0.00    +0.000 OA
ATOM     14  H   UNL     1       4.031   6.388  20.585  0.00  0.00    +0.000 HD
ENDBRANCH   7  13
BRANCH   6  15
ATOM     15  C   UNL     1       1.113   3.915  19.405  0.00  0.00    +0.000 C 
BRANCH  15  16
ATOM     16  C   UNL     1       1.092   2.662  20.286  0.00  0.00    +0.000 C 
ATOM     17  C   UNL     1       1.774   2.856  21.633  0.00  0.00    +0.000 C 
ENDBRANCH  15  16
ENDBRANCH   6  15
TORSDOF 5
ENDMDL
MODEL 2
REMARK VINA RESULT:      -6.6      2.521      3.639
REMARK  Name = 
REMARK  8 active torsions:
REMARK  status: ('A' for Active; 'I' for Inactive)
REMARK    1  A    between atoms: C_2  and  C_3
REMARK    2  A    between atoms: C_3  and  C_4
REMARK    3  A    between atoms: C_5  and  C_6
REMARK    4  A    between atoms: C_6  and  C_7
REMARK    5  A    between atoms: C_11  and  C_12
REMARK    6  A    between atoms: C_12  and  C_13
REMARK    7  A    between atoms: C_13  and  C_14
REMARK    8  A    between atoms: C_15  and  O_16
REMARK                            x       y       z     vdW  Elec       q    Type
REMARK                         _______ _______ _______ _____ _____    ______ ____
ROOT
ATOM      1  C   UNL     1       4.021   4.990  17.497  0.00  0.00    +0.000 C 
ATOM      2  C   UNL     1       4.819   4.501  16.277  0.00  0.00    +0.000 C 
ATOM      3  S   UNL     1       5.197   4.812  18.923  0.00  0.00    +0.000 S 
ATOM      4  C   UNL     1       4.498   3.287  19.404  0.00  0.00    +0.000 C 
ATOM      5  O   UNL     1       5.062   2.478  20.118  0.00  0.00    +0.000 OA
ATOM      6  C   UNL     1       3.142   3.116  18.842  0.00  0.00    +0.000 C 
ATOM      7  C   UNL     1       2.904   4.026  17.882  0.00  0.00    +0.000 C 
ENDROOT
BRANCH   1  10
ATOM      8  C   UNL     1       2.884   7.234  18.244  0.00  0.00    +0.000 C 
ATOM      9  C   UNL     1       2.622   8.662  17.816  0.00  0.00    +0.000 C 
ATOM     10  C   UNL     1       3.612   6.457  17.404  0.00  0.00    +0.000 C 
BRANCH   8  12
ATOM     11  C   UNL     1       1.791   7.472  20.501  0.00  0.00    +0.000 C 
ATOM     12  C   UNL     1       2.364   6.764  19.519  0.00  0.00    +0.000 C 
ENDBRANCH   8  12
ENDBRANCH   1  10
BRANCH   7  13
ATOM     13  O   UNL     1       1.724   4.087  17.172  0.00  0.00    +0.000 OA
ATOM     14  H   UNL     1       1.652   4.929  16.695  0.00  0.00    +0.000 HD
ENDBRANCH   7  13
BRANCH   6  15
ATOM     15  C   UNL     1       2.282   1.983  19.309  0.00  0.00    +0.000 C 
BRANCH  15  16
ATOM     16  C   UNL     1       1.119   2.374  20.227  0.00  0.00    +0.000 C 
ATOM     17  C   UNL     1       1.505   3.382  21.299  0.00  0.00    +0.000 C 
ENDBRANCH  15  16
ENDBRANCH   6  15
TORSDOF 5
ENDMDL
MODEL 3
REMARK VINA RESULT:      -6.5      0.863      1.066
REMARK  Name = 
REMARK  8 active torsions:
REMARK  status: ('A' for Active; 'I' for Inactive)
REMARK    1  A    between atoms: C_2  and  C_3
REMARK    2  A    between atoms: C_3  and  C_4
REMARK    3  A    between atoms: C_5  and  C_6
REMARK    4  A    between atoms: C_6  and  C_7
REMARK    5  A    between atoms: C_11  and  C_12
REMARK    6  A    between atoms: C_12  and  C_13
REMARK    7  A    between atoms: C_13  and  C_14
REMARK    8  A    between atoms: C_15  and  O_16
REMARK                            x       y       z     vdW  Elec       q    Type
REMARK                         _______ _______ _______ _____ _____    ______ ____
ROOT
ATOM      1  C   UNL     1       4.251   5.295  18.377  0.00  0.00    +0.000 C 
ATOM      2  C   UNL     1       3.915   6.334  17.295  0.00  0.00    +0.000 C 
ATOM      3  S   UNL     1       4.184   3.664  17.493  0.00  0.00    +0.000 S 
ATOM      4  C   UNL     1       2.564   3.342  18.056  0.00  0.00    +0.000 C 
ATOM      5  O   UNL     1       1.814   2.535  17.538  0.00  0.00    +0.000 OA
ATOM      6  C   UNL     1       2.232   4.165  19.237  0.00  0.00    +0.000 C 
ATOM      7  C   UNL     1       3.134   5.147  19.405  0.00  0.00    +0.000 C 
ENDROOT
BRANCH   1  10
ATOM      8  C   UNL     1       6.846   5.689  18.356  0.00  0.00    +0.000 C 
ATOM      9  C   UNL     1       8.070   5.751  19.244  0.00  0.00    +0.000 C 
ATOM     10  C   UNL     1       5.652   5.458  18.959  0.00  0.00    +0.000 C 
BRANCH   8  12
ATOM     11  C   UNL     1       7.222   4.969  15.973  0.00  0.00    +0.000 C 
ATOM     12  C   UNL     1       6.994   5.884  16.922  0.00  0.00    +0.000 C 
ENDBRANCH   8  12
ENDBRANCH   1  10
BRANCH   7  13
ATOM     13  O   UNL     1       3.061   6.078  20.419  0.00  0.00    +0.000 OA
ATOM     14  H   UNL     1       2.408   6.765  20.210  0.00  0.00    +0.000 HD
ENDBRANCH   7  13
BRANCH   6  15
ATOM     15  C   UNL     1       0.979   3.887  20.008  0.00  0.00    +0.000 C 
BRANCH  15  16
ATOM     16  C   UNL     1       1.116   2.865  21.143  0.00  0.00    +0.000 C 
ATOM     17  C   UNL     1       2.546   2.697  21.637  0.00  0.00    +0.000 C 
ENDBRANCH  15  16
ENDBRANCH   6  15
TORSDOF 5
ENDMDL
MODEL 4
REMARK VINA RESULT:      -6.5      2.000      5.703
REMARK  Name = 
REMARK  8 active torsions:
REMARK  status: ('A' for Active; 'I' for Inactive)
REMARK    1  A    between atoms: C_2  and  C_3
REMARK    2  A    between atoms: C_3  and  C_4
REMARK    3  A    between atoms: C_5  and  C_6
REMARK    4  A    between atoms: C_6  and  C_7
REMARK    5  A    between atoms: C_11  and  C_12
REMARK    6  A    between atoms: C_12  and  C_13
REMARK    7  A    between atoms: C_13  and  C_14
REMARK    8  A    between atoms: C_15  and  O_16
REMARK                            x       y       z     vdW  Elec       q    Type
REMARK                         _______ _______ _______ _____ _____    ______ ____
ROOT
ATOM      1  C   UNL     1       3.998   4.248  18.321  0.00  0.00    +0.000 C 
ATOM      2  C   UNL     1       3.561   3.241  17.243  0.00  0.00    +0.000 C 
ATOM      3  S   UNL     1       3.109   5.817  17.878  0.00  0.00    +0.000 S 
ATOM      4  C   UNL     1       4.511   6.470  17.071  0.00  0.00    +0.000 C 
ATOM      5  O   UNL     1       4.466   7.380  16.263  0.00  0.00    +0.000 OA
ATOM      6  C   UNL     1       5.747   5.784  17.501  0.00  0.00    +0.000 C 
ATOM      7  C   UNL     1       5.460   4.657  18.173  0.00  0.00    +0.000 C 
ENDROOT
BRANCH   1  10
ATOM      8  C   UNL     1       2.357   3.523  20.237  0.00  0.00    +0.000 C 
ATOM      9  C   UNL     1       2.281   3.216  21.717  0.00  0.00    +0.000 C 
ATOM     10  C   UNL     1       3.573   3.847  19.730  0.00  0.00    +0.000 C 
BRANCH   8  12
ATOM     11  C   UNL     1       0.551   2.372  18.912  0.00  0.00    +0.000 C 
ATOM     12  C   UNL     1       1.148   3.452  19.430  0.00  0.00    +0.000 C 
ENDBRANCH   8  12
ENDBRANCH   1  10
BRANCH   7  13
ATOM     13  O   UNL     1       6.422   3.808  18.675  0.00  0.00    +0.000 OA
ATOM     14  H   UNL     1       6.242   2.890  18.417  0.00  0.00    +0.000 HD
ENDBRANCH   7  13
BRANCH   6  15
ATOM     15  C   UNL     1       7.080   6.335  17.099  0.00  0.00    +0.000 C 
BRANCH  15  16
ATOM     16  C   UNL     1       7.811   7.143  18.177  0.00  0.00    +0.000 C 
ATOM     17  C   UNL     1       8.032   8.600  17.796  0.00  0.00    +0.000 C 
ENDBRANCH  15  16
ENDBRANCH   6  15
TORSDOF 5
ENDMDL
MODEL 5
REMARK VINA RESULT:      -6.4      2.767      5.648
REMARK  Name = 
REMARK  8 active torsions:
REMARK  status: ('A' for Active; 'I' for Inactive)
REMARK    1  A    between atoms: C_2  and  C_3
REMARK    2  A    between atoms: C_3  and  C_4
REMARK    3  A    between atoms: C_5  and  C_6
REMARK    4  A    between atoms: C_6  and  C_7
REMARK    5  A    between atoms: C_11  and  C_12
REMARK    6  A    between atoms: C_12  and  C_13
REMARK    7  A    between atoms: C_13  and  C_14
REMARK    8  A    between atoms: C_15  and  O_16
REMARK                            x       y       z     vdW  Elec       q    Type
REMARK                         _______ _______ _______ _____ _____    ______ ____
ROOT
ATOM      1  C   UNL     1       4.214   4.765  18.652  0.00  0.00    +0.000 C 
ATOM      2  C   UNL     1       3.321   5.980  18.350  0.00  0.00    +0.000 C 
ATOM      3  S   UNL     1       5.876   5.496  19.044  0.00  0.00    +0.000 S 
ATOM      4  C   UNL     1       6.468   5.202  17.430  0.00  0.00    +0.000 C 
ATOM      5  O   UNL     1       7.431   5.770  16.948  0.00  0.00    +0.000 OA
ATOM      6  C   UNL     1       5.659   4.179  16.738  0.00  0.00    +0.000 C 
ATOM      7  C   UNL     1       4.515   3.943  17.402  0.00  0.00    +0.000 C 
ENDROOT
BRANCH   1  10
ATOM      8  C   UNL     1       2.529   3.492  20.209  0.00  0.00    +0.000 C 
ATOM      9  C   UNL     1       2.414   2.760  21.529  0.00  0.00    +0.000 C 
ATOM     10  C   UNL     1       3.754   3.962  19.864  0.00  0.00    +0.000 C 
BRANCH   8  12
ATOM     11  C   UNL     1       0.616   2.708  18.772  0.00  0.00    +0.000 C 
ATOM     12  C   UNL     1       1.347   3.652  19.376  0.00  0.00    +0.000 C 
ENDBRANCH   8  12
ENDBRANCH   1  10
BRANCH   7  13
ATOM     13  O   UNL     1       3.560   3.048  16.973  0.00  0.00    +0.000 OA
ATOM     14  H   UNL     1       2.673   3.441  17.016  0.00  0.00    +0.000 HD
ENDBRANCH   7  13
BRANCH   6  15
ATOM     15  C   UNL     1       6.128   3.621  15.429  0.00  0.00    +0.000 C 
BRANCH  15  16
ATOM     16  C   UNL     1       5.609   4.344  14.182  0.00  0.00    +0.000 C 
ATOM     17  C   UNL     1       5.918   3.611  12.884  0.00  0.00    +0.000 C 
ENDBRANCH  15  16
ENDBRANCH   6  15
TORSDOF 5
ENDMDL
MODEL 6
REMARK VINA RESULT:      -6.3      3.199      4.113
REMARK  Name = 
REMARK  8 active torsions:
REMARK  status: ('A' for Active; 'I' for Inactive)
REMARK    1  A    between atoms: C_2  and  C_3
REMARK    2  A    between atoms: C_3  and  C_4
REMARK    3  A    between atoms: C_5  and  C_6
REMARK    4  A    between atoms: C_6  and  C_7
REMARK    5  A    between atoms: C_11  and  C_12
REMARK    6  A    between atoms: C_12  and  C_13
REMARK    7  A    between atoms: C_13  and  C_14
REMARK    8  A    between atoms: C_15  and  O_16
REMARK                            x       y       z     vdW  Elec       q    Type
REMARK                         _______ _______ _______ _____ _____    ______ ____
ROOT
ATOM      1  C   UNL     1       5.666   4.491  16.120  0.00  0.00    +0.000 C 
ATOM      2  C   UNL     1       7.044   4.554  16.798  0.00  0.00    +0.000 C 
ATOM      3  S   UNL     1       5.166   6.268  15.917  0.00  0.00    +0.000 S 
ATOM      4  C   UNL     1       4.173   6.229  17.351  0.00  0.00    +0.000 C 
ATOM      5  O   UNL     1       3.813   7.224  17.953  0.00  0.00    +0.000 OA
ATOM      6  C   UNL     1       3.825   4.843  17.727  0.00  0.00    +0.000 C 
ATOM      7  C   UNL     1       4.584   3.960  17.056  0.00  0.00    +0.000 C 
ENDROOT
BRANCH   1  10
ATOM      8  C   UNL     1       6.479   4.105  13.655  0.00  0.00    +0.000 C 
ATOM      9  C   UNL     1       6.213   3.298  12.403  0.00  0.00    +0.000 C 
ATOM     10  C   UNL     1       5.701   3.850  14.736  0.00  0.00    +0.000 C 
BRANCH   8  12
ATOM     11  C   UNL     1       8.146   5.675  12.606  0.00  0.00    +0.000 C 
ATOM     12  C   UNL     1       7.544   5.097  13.653  0.00  0.00    +0.000 C 
ENDBRANCH   8  12
ENDBRANCH   1  10
BRANCH   7  13
ATOM     13  O   UNL     1       4.487   2.596  17.224  0.00  0.00    +0.000 OA
ATOM     14  H   UNL     1       3.997   2.192  16.490  0.00  0.00    +0.000 HD
ENDBRANCH   7  13
BRANCH   6  15
ATOM     15  C   UNL     1       2.802   4.597  18.793  0.00  0.00    +0.000 C 
BRANCH  15  16
ATOM     16  C   UNL     1       1.439   4.102  18.296  0.00  0.00    +0.000 C 
ATOM     17  C   UNL     1       1.136   2.664  18.692  0.00  0.00    +0.000 C 
ENDBRANCH  15  16
ENDBRANCH   6  15
TORSDOF 5
ENDMDL
MODEL 7
REMARK VINA RESULT:      -6.2      1.723      2.795
REMARK  Name = 
REMARK  8 active torsions:
REMARK  status: ('A' for Active; 'I' for Inactive)
REMARK    1  A    between atoms: C_2  and  C_3
REMARK    2  A    between atoms: C_3  and  C_4
REMARK    3  A    between atoms: C_5  and  C_6
REMARK    4  A    between atoms: C_6  and  C_7
REMARK    5  A    between atoms: C_11  and  C_12
REMARK    6  A    between atoms: C_12  and  C_13
REMARK    7  A    between atoms: C_13  and  C_14
REMARK    8  A    between atoms: C_15  and  O_16
REMARK                            x       y       z     vdW  Elec       q    Type
REMARK                         _______ _______ _______ _____ _____    ______ ____
ROOT
ATOM      1  C   UNL     1       4.382   4.543  18.051  0.00  0.00    +0.000 C 
ATOM      2  C   UNL     1       5.527   4.335  19.056  0.00  0.00    +0.000 C 
ATOM      3  S   UNL     1       3.788   6.273  18.375  0.00  0.00    +0.000 S 
ATOM      4  C   UNL     1       2.467   5.713  19.367  0.00  0.00    +0.000 C 
ATOM      5  O   UNL     1       1.873   6.415  20.165  0.00  0.00    +0.000 OA
ATOM      6  C   UNL     1       2.164   4.291  19.106  0.00  0.00    +0.000 C 
ATOM      7  C   UNL     1       3.149   3.714  18.397  0.00  0.00    +0.000 C 
ENDROOT
BRANCH   1  10
ATOM      8  C   UNL     1       5.978   4.871  15.994  0.00  0.00    +0.000 C 
ATOM      9  C   UNL     1       6.080   4.678  14.496  0.00  0.00    +0.000 C 
ATOM     10  C   UNL     1       4.832   4.464  16.596  0.00  0.00    +0.000 C 
BRANCH   8  12
ATOM     11  C   UNL     1       7.293   6.748  17.037  0.00  0.00    +0.000 C 
ATOM     12  C   UNL     1       7.093   5.464  16.715  0.00  0.00    +0.000 C 
ENDBRANCH   8  12
ENDBRANCH   1  10
BRANCH   7  13
ATOM     13  O   UNL     1       3.140   2.386  18.028  0.00  0.00    +0.000 OA
ATOM     14  H   UNL     1       2.255   2.003  18.139  0.00  0.00    +0.000 HD
ENDBRANCH   7  13
BRANCH   6  15
ATOM     15  C   UNL     1       0.929   3.675  19.687  0.00  0.00    +0.000 C 
BRANCH  15  16
ATOM     16  C   UNL     1       1.163   2.681  20.830  0.00  0.00    +0.000 C 
ATOM     17  C   UNL     1       2.149   3.181  21.876  0.00  0.00    +0.000 C 
ENDBRANCH  15  16
ENDBRANCH   6  15
TORSDOF 5
ENDMDL
MODEL 8
REMARK VINA RESULT:      -6.2      2.896      5.417
REMARK  Name = 
REMARK  8 active torsions:
REMARK  status: ('A' for Active; 'I' for Inactive)
REMARK    1  A    between atoms: C_2  and  C_3
REMARK    2  A    between atoms: C_3  and  C_4
REMARK    3  A    between atoms: C_5  and  C_6
REMARK    4  A    between atoms: C_6  and  C_7
REMARK    5  A    between atoms: C_11  and  C_12
REMARK    6  A    between atoms: C_12  and  C_13
REMARK    7  A    between atoms: C_13  and  C_14
REMARK    8  A    between atoms: C_15  and  O_16
REMARK                            x       y       z     vdW  Elec       q    Type
REMARK                         _______ _______ _______ _____ _____    ______ ____
ROOT
ATOM      1  C   UNL     1       4.132   5.218  18.474  0.00  0.00    +0.000 C 
ATOM      2  C   UNL     1       3.775   6.678  18.148  0.00  0.00    +0.000 C 
ATOM      3  S   UNL     1       5.878   5.296  19.100  0.00  0.00    +0.000 S 
ATOM      4  C   UNL     1       6.533   4.836  17.549  0.00  0.00    +0.000 C 
ATOM      5  O   UNL     1       7.688   5.028  17.217  0.00  0.00    +0.000 OA
ATOM      6  C   UNL     1       5.510   4.184  16.706  0.00  0.00    +0.000 C 
ATOM      7  C   UNL     1       4.281   4.365  17.218  0.00  0.00    +0.000 C 
ENDROOT
BRANCH   1  10
ATOM      8  C   UNL     1       3.187   3.347  20.053  0.00  0.00    +0.000 C 
ATOM      9  C   UNL     1       2.164   3.077  21.135  0.00  0.00    +0.000 C 
ATOM     10  C   UNL     1       3.263   4.614  19.572  0.00  0.00    +0.000 C 
BRANCH   8  12
ATOM     11  C   UNL     1       3.729   1.255  18.760  0.00  0.00    +0.000 C 
ATOM     12  C   UNL     1       4.036   2.263  19.586  0.00  0.00    +0.000 C 
ENDBRANCH   8  12
ENDBRANCH   1  10
BRANCH   7  13
ATOM     13  O   UNL     1       3.134   3.880  16.627  0.00  0.00    +0.000 OA
ATOM     14  H   UNL     1       3.336   3.124  16.053  0.00  0.00    +0.000 HD
ENDBRANCH   7  13
BRANCH   6  15
ATOM     15  C   UNL     1       5.916   3.517  15.428  0.00  0.00    +0.000 C 
BRANCH  15  16
ATOM     16  C   UNL     1       5.799   4.382  14.168  0.00  0.00    +0.000 C 
ATOM     17  C   UNL     1       6.019   3.606  12.877  0.00  0.00    +0.000 C 
ENDBRANCH  15  16
ENDBRANCH   6  15
TORSDOF 5
ENDMDL
MODEL 9
REMARK VINA RESULT:      -6.2      2.071      5.262
REMARK  Name = 
REMARK  8 active torsions:
REMARK  status: ('A' for Active; 'I' for Inactive)
REMARK    1  A    between atoms: C_2  and  C_3
REMARK    2  A    between atoms: C_3  and  C_4
REMARK    3  A    between atoms: C_5  and  C_6
REMARK    4  A    between atoms: C_6  and  C_7
REMARK    5  A    between atoms: C_11  and  C_12
REMARK    6  A    between atoms: C_12  and  C_13
REMARK    7  A    between atoms: C_13  and  C_14
REMARK    8  A    between atoms: C_15  and  O_16
REMARK                            x       y       z     vdW  Elec       q    Type
REMARK                         _______ _______ _______ _____ _____    ______ ____
ROOT
ATOM      1  C   UNL     1       3.164   3.247  18.476  0.00  0.00    +0.000 C 
ATOM      2  C   UNL     1       3.125   2.291  17.272  0.00  0.00    +0.000 C 
ATOM      3  S   UNL     1       2.442   4.833  17.834  0.00  0.00    +0.000 S 
ATOM      4  C   UNL     1       4.019   5.527  17.563  0.00  0.00    +0.000 C 
ATOM      5  O   UNL     1       4.226   6.474  16.826  0.00  0.00    +0.000 OA
ATOM      6  C   UNL     1       5.057   4.826  18.346  0.00  0.00    +0.000 C 
ATOM      7  C   UNL     1       4.586   3.667  18.836  0.00  0.00    +0.000 C 
ENDROOT
BRANCH   1  10
ATOM      8  C   UNL     1       1.945   3.407  20.795  0.00  0.00    +0.000 C 
ATOM      9  C   UNL     1       1.110   2.621  21.782  0.00  0.00    +0.000 C 
ATOM     10  C   UNL     1       2.307   2.779  19.648  0.00  0.00    +0.000 C 
BRANCH   8  12
ATOM     11  C   UNL     1       1.610   5.900  20.900  0.00  0.00    +0.000 C 
ATOM     12  C   UNL     1       2.313   4.780  21.104  0.00  0.00    +0.000 C 
ENDBRANCH   8  12
ENDBRANCH   1  10
BRANCH   7  13
ATOM     13  O   UNL     1       5.345   2.798  19.590  0.00  0.00    +0.000 OA
ATOM     14  H   UNL     1       4.778   2.192  20.093  0.00  0.00    +0.000 HD
ENDBRANCH   7  13
BRANCH   6  15
ATOM     15  C   UNL     1       6.438   5.399  18.430  0.00  0.00    +0.000 C 
BRANCH  15  16
ATOM     16  C   UNL     1       7.504   4.671  17.604  0.00  0.00    +0.000 C 
ATOM     17  C   UNL     1       7.119   4.490  16.143  0.00  0.00    +0.000 C 
ENDBRANCH  15  16
ENDBRANCH   6  15
TORSDOF 5
ENDMDL
