MODEL 1
REMARK VINA RESULT:      -8.4      0.000      0.000
REMARK  Name = 
REMARK  10 active torsions:
REMARK  status: ('A' for Active; 'I' for Inactive)
REMARK    1  A    between atoms: C_1  and  C_2
REMARK    2  A    between atoms: C_2  and  O_3
REMARK    3  A    between atoms: O_3  and  C_4
REMARK    4  A    between atoms: C_4  and  C_6
REMARK    5  A    between atoms: C_9  and  S_10
REMARK    6  A    between atoms: S_10  and  C_11
REMARK    7  A    between atoms: C_13  and  O_14
REMARK    8  A    between atoms: O_14  and  C_15
REMARK    9  A    between atoms: C_19  and  N_20
REMARK   10  A    between atoms: C_21  and  C_23
REMARK                            x       y       z     vdW  Elec       q    Type
REMARK                         _______ _______ _______ _____ _____    ______ ____
ROOT
ATOM      1  C   UNL     1       2.463   7.200  19.394  0.00  0.00    +0.000 A 
ATOM      2  C   UNL     1       2.972   7.592  18.157  0.00  0.00    +0.000 A 
ATOM      3  C   UNL     1       2.488   8.747  17.551  0.00  0.00    +0.000 A 
ATOM      4  C   UNL     1       1.502   9.507  18.182  0.00  0.00    +0.000 A 
ATOM      5  C   UNL     1       1.010   9.150  19.441  0.00  0.00    +0.000 A 
ATOM      6  C   UNL     1       1.523   8.001  20.056  0.00  0.00    +0.000 A 
ENDROOT
BRANCH   5   7
ATOM      7  N   UNL     1      -0.006   9.870  20.118  0.00  0.00    +0.000 N 
ATOM      8  C   UNL     1       0.198  10.917  20.993  0.00  0.00    +0.000 C 
ATOM      9  O   UNL     1       1.304  11.326  21.354  0.00  0.00    +0.000 OA
ATOM     10  H   UNL     1      -0.959   9.544  19.982  0.00  0.00    +0.000 HD
BRANCH   8  11
ATOM     11  C   UNL     1      -0.973  11.639  21.567  0.00  0.00    +0.000 A 
ATOM     12  C   UNL     1      -1.251  11.304  22.911  0.00  0.00    +0.000 A 
ATOM     13  C   UNL     1      -2.399  11.755  23.553  0.00  0.00    +0.000 A 
ATOM     14  C   UNL     1      -3.293  12.555  22.856  0.00  0.00    +0.000 A 
ATOM     15  C   UNL     1      -3.019  12.932  21.534  0.00  0.00    +0.000 A 
ATOM     16 CL   UNL     1      -4.208  13.921  20.753  0.00  0.00    +0.000 Cl
ATOM     17  C   UNL     1      -1.849  12.491  20.880  0.00  0.00    +0.000 A 
ATOM     18 CL   UNL     1      -1.546  12.987  19.245  0.00  0.00    +0.000 Cl
ENDBRANCH   8  11
ENDBRANCH   5   7
BRANCH   1  19
ATOM     19  O   UNL     1       2.979   6.037  19.926  0.00  0.00    +0.000 OA
BRANCH  19  25
ATOM     20  C   UNL     1       2.999   4.231  18.361  0.00  0.00    +0.000 A 
ATOM     21  C   UNL     1       3.790   3.488  17.510  0.00  0.00    +0.000 A 
ATOM     22  N   UNL     1       5.122   3.656  17.370  0.00  0.00    +0.000 NA
ATOM     23  C   UNL     1       5.694   4.596  18.134  0.00  0.00    +0.000 A 
ATOM     24  N   UNL     1       5.028   5.348  19.015  0.00  0.00    +0.000 NA
ATOM     25  C   UNL     1       3.683   5.183  19.088  0.00  0.00    +0.000 A 
BRANCH  20  26
ATOM     26  C   UNL     1       1.543   4.022  18.298  0.00  0.00    +0.000 C 
ATOM     27  O   UNL     1       0.918   4.152  17.255  0.00  0.00    +0.000 OA
BRANCH  26  28
ATOM     28  O   UNL     1       1.006   3.794  19.514  0.00  0.00    +0.000 OA
BRANCH  28  30
ATOM     29  C   UNL     1       1.640   2.774  21.573  0.00  0.00    +0.000 C 
ATOM     30  C   UNL     1       1.343   2.529  20.104  0.00  0.00    +0.000 C 
ENDBRANCH  28  30
ENDBRANCH  26  28
ENDBRANCH  20  26
BRANCH  23  31
ATOM     31  S   UNL     1       7.416   4.911  17.847  0.00  0.00    +0.000 S 
ATOM     32  C   UNL     1       7.873   5.747  19.388  0.00  0.00    +0.000 C 
ENDBRANCH  23  31
ENDBRANCH  19  25
ENDBRANCH   1  19
TORSDOF 8
ENDMDL
MODEL 2
REMARK VINA RESULT:      -8.1      1.313      1.590
REMARK  Name = 
REMARK  10 active torsions:
REMARK  status: ('A' for Active; 'I' for Inactive)
REMARK    1  A    between atoms: C_1  and  C_2
REMARK    2  A    between atoms: C_2  and  O_3
REMARK    3  A    between atoms: O_3  and  C_4
REMARK    4  A    between atoms: C_4  and  C_6
REMARK    5  A    between atoms: C_9  and  S_10
REMARK    6  A    between atoms: S_10  and  C_11
REMARK    7  A    between atoms: C_13  and  O_14
REMARK    8  A    between atoms: O_14  and  C_15
REMARK    9  A    between atoms: C_19  and  N_20
REMARK   10  A    between atoms: C_21  and  C_23
REMARK                            x       y       z     vdW  Elec       q    Type
REMARK                         _______ _______ _______ _____ _____    ______ ____
ROOT
ATOM      1  C   UNL     1       2.287   7.401  19.457  0.00  0.00    +0.000 A 
ATOM      2  C   UNL     1       2.836   7.720  18.215  0.00  0.00    +0.000 A 
ATOM      3  C   UNL     1       2.407   8.864  17.549  0.00  0.00    +0.000 A 
ATOM      4  C   UNL     1       1.435   9.685  18.126  0.00  0.00    +0.000 A 
ATOM      5  C   UNL     1       0.905   9.400  19.388  0.00  0.00    +0.000 A 
ATOM      6  C   UNL     1       1.364   8.263  20.062  0.00  0.00    +0.000 A 
ENDROOT
BRANCH   5   7
ATOM      7  N   UNL     1      -0.098  10.185  20.010  0.00  0.00    +0.000 N 
ATOM      8  C   UNL     1       0.085  11.439  20.555  0.00  0.00    +0.000 C 
ATOM      9  O   UNL     1       1.170  12.021  20.631  0.00  0.00    +0.000 OA
ATOM     10  H   UNL     1      -1.014   9.755  20.106  0.00  0.00    +0.000 HD
BRANCH   8  11
ATOM     11  C   UNL     1      -1.083  12.184  21.103  0.00  0.00    +0.000 A 
ATOM     12  C   UNL     1      -1.467  13.302  20.328  0.00  0.00    +0.000 A 
ATOM     13  C   UNL     1      -2.427  14.203  20.772  0.00  0.00    +0.000 A 
ATOM     14  C   UNL     1      -3.025  14.000  22.008  0.00  0.00    +0.000 A 
ATOM     15  C   UNL     1      -2.689  12.877  22.777  0.00  0.00    +0.000 A 
ATOM     16 CL   UNL     1      -3.486  12.727  24.308  0.00  0.00    +0.000 Cl
ATOM     17  C   UNL     1      -1.727  11.949  22.327  0.00  0.00    +0.000 A 
ATOM     18 CL   UNL     1      -1.346  10.569  23.308  0.00  0.00    +0.000 Cl
ENDBRANCH   8  11
ENDBRANCH   5   7
BRANCH   1  19
ATOM     19  O   UNL     1       2.750   6.245  20.049  0.00  0.00    +0.000 OA
BRANCH  19  25
ATOM     20  C   UNL     1       3.069   4.394  18.570  0.00  0.00    +0.000 A 
ATOM     21  C   UNL     1       3.998   3.691  17.833  0.00  0.00    +0.000 A 
ATOM     22  N   UNL     1       5.321   3.963  17.817  0.00  0.00    +0.000 NA
ATOM     23  C   UNL     1       5.737   4.972  18.594  0.00  0.00    +0.000 A 
ATOM     24  N   UNL     1       4.928   5.696  19.373  0.00  0.00    +0.000 NA
ATOM     25  C   UNL     1       3.600   5.423  19.321  0.00  0.00    +0.000 A 
BRANCH  20  26
ATOM     26  C   UNL     1       1.649   4.065  18.374  0.00  0.00    +0.000 C 
ATOM     27  O   UNL     1       1.106   4.175  17.284  0.00  0.00    +0.000 OA
BRANCH  26  28
ATOM     28  O   UNL     1       1.031   3.753  19.532  0.00  0.00    +0.000 OA
BRANCH  28  30
ATOM     29  C   UNL     1       1.592   2.729  21.610  0.00  0.00    +0.000 C 
ATOM     30  C   UNL     1       1.425   2.503  20.118  0.00  0.00    +0.000 C 
ENDBRANCH  28  30
ENDBRANCH  26  28
ENDBRANCH  20  26
BRANCH  23  31
ATOM     31  S   UNL     1       7.450   5.417  18.465  0.00  0.00    +0.000 S 
ATOM     32  C   UNL     1       7.338   6.919  17.460  0.00  0.00    +0.000 C 
ENDBRANCH  23  31
ENDBRANCH  19  25
ENDBRANCH   1  19
TORSDOF 8
ENDMDL
MODEL 3
REMARK VINA RESULT:      -8.0      2.729      5.076
REMARK  Name = 
REMARK  10 active torsions:
REMARK  status: ('A' for Active; 'I' for Inactive)
REMARK    1  A    between atoms: C_1  and  C_2
REMARK    2  A    between atoms: C_2  and  O_3
REMARK    3  A    between atoms: O_3  and  C_4
REMARK    4  A    between atoms: C_4  and  C_6
REMARK    5  A    between atoms: C_9  and  S_10
REMARK    6  A    between atoms: S_10  and  C_11
REMARK    7  A    between atoms: C_13  and  O_14
REMARK    8  A    between atoms: O_14  and  C_15
REMARK    9  A    between atoms: C_19  and  N_20
REMARK   10  A    between atoms: C_21  and  C_23
REMARK                            x       y       z     vdW  Elec       q    Type
REMARK                         _______ _______ _______ _____ _____    ______ ____
ROOT
ATOM      1  C   UNL     1       4.361   3.978  19.236  0.00  0.00    +0.000 A 
ATOM      2  C   UNL     1       3.606   2.820  19.053  0.00  0.00    +0.000 A 
ATOM      3  C   UNL     1       2.255   2.821  19.388  0.00  0.00    +0.000 A 
ATOM      4  C   UNL     1       1.664   3.976  19.902  0.00  0.00    +0.000 A 
ATOM      5  C   UNL     1       2.397   5.157  20.054  0.00  0.00    +0.000 A 
ATOM      6  C   UNL     1       3.748   5.155  19.687  0.00  0.00    +0.000 A 
ENDROOT
BRANCH   5   7
ATOM      7  N   UNL     1       1.854   6.352  20.592  0.00  0.00    +0.000 N 
ATOM      8  C   UNL     1       1.856   7.584  19.972  0.00  0.00    +0.000 C 
ATOM      9  O   UNL     1       2.390   7.825  18.888  0.00  0.00    +0.000 OA
ATOM     10  H   UNL     1       1.484   6.296  21.536  0.00  0.00    +0.000 HD
BRANCH   8  11
ATOM     11  C   UNL     1       1.171   8.738  20.622  0.00  0.00    +0.000 A 
ATOM     12  C   UNL     1       1.211   8.709  22.034  0.00  0.00    +0.000 A 
ATOM     13  C   UNL     1       0.487   9.613  22.803  0.00  0.00    +0.000 A 
ATOM     14  C   UNL     1      -0.293  10.568  22.168  0.00  0.00    +0.000 A 
ATOM     15  C   UNL     1      -0.318  10.641  20.769  0.00  0.00    +0.000 A 
ATOM     16 CL   UNL     1      -1.335  11.862  20.079  0.00  0.00    +0.000 Cl
ATOM     17  C   UNL     1       0.425   9.737  19.980  0.00  0.00    +0.000 A 
ATOM     18 CL   UNL     1       0.371   9.867  18.250  0.00  0.00    +0.000 Cl
ENDBRANCH   8  11
ENDBRANCH   5   7
BRANCH   1  19
ATOM     19  O   UNL     1       5.694   3.898  18.896  0.00  0.00    +0.000 OA
BRANCH  19  25
ATOM     20  C   UNL     1       7.031   5.541  17.788  0.00  0.00    +0.000 A 
ATOM     21  C   UNL     1       7.431   6.024  16.560  0.00  0.00    +0.000 A 
ATOM     22  N   UNL     1       6.990   5.548  15.375  0.00  0.00    +0.000 NA
ATOM     23  C   UNL     1       6.089   4.557  15.422  0.00  0.00    +0.000 A 
ATOM     24  N   UNL     1       5.609   4.039  16.556  0.00  0.00    +0.000 NA
ATOM     25  C   UNL     1       6.115   4.510  17.723  0.00  0.00    +0.000 A 
BRANCH  20  26
ATOM     26  C   UNL     1       7.706   6.070  18.984  0.00  0.00    +0.000 C 
ATOM     27  O   UNL     1       7.509   5.601  20.096  0.00  0.00    +0.000 OA
BRANCH  26  28
ATOM     28  O   UNL     1       8.444   7.166  18.712  0.00  0.00    +0.000 OA
BRANCH  28  30
ATOM     29  C   UNL     1       8.569   9.496  18.224  0.00  0.00    +0.000 C 
ATOM     30  C   UNL     1       7.737   8.235  18.066  0.00  0.00    +0.000 C 
ENDBRANCH  28  30
ENDBRANCH  26  28
ENDBRANCH  20  26
BRANCH  23  31
ATOM     31  S   UNL     1       5.619   3.840  13.869  0.00  0.00    +0.000 S 
ATOM     32  C   UNL     1       7.033   4.301  12.836  0.00  0.00    +0.000 C 
ENDBRANCH  23  31
ENDBRANCH  19  25
ENDBRANCH   1  19
TORSDOF 8
ENDMDL
MODEL 4
REMARK VINA RESULT:      -7.9      1.583      1.592
REMARK  Name = 
REMARK  10 active torsions:
REMARK  status: ('A' for Active; 'I' for Inactive)
REMARK    1  A    between atoms: C_1  and  C_2
REMARK    2  A    between atoms: C_2  and  O_3
REMARK    3  A    between atoms: O_3  and  C_4
REMARK    4  A    between atoms: C_4  and  C_6
REMARK    5  A    between atoms: C_9  and  S_10
REMARK    6  A    between atoms: S_10  and  C_11
REMARK    7  A    between atoms: C_13  and  O_14
REMARK    8  A    between atoms: O_14  and  C_15
REMARK    9  A    between atoms: C_19  and  N_20
REMARK   10  A    between atoms: C_21  and  C_23
REMARK                            x       y       z     vdW  Elec       q    Type
REMARK                         _______ _______ _______ _____ _____    ______ ____
ROOT
ATOM      1  C   UNL     1       2.104   7.299  19.653  0.00  0.00    +0.000 A 
ATOM      2  C   UNL     1       2.228   7.532  18.284  0.00  0.00    +0.000 A 
ATOM      3  C   UNL     1       1.864   8.770  17.763  0.00  0.00    +0.000 A 
ATOM      4  C   UNL     1       1.381   9.770  18.610  0.00  0.00    +0.000 A 
ATOM      5  C   UNL     1       1.290   9.565  19.990  0.00  0.00    +0.000 A 
ATOM      6  C   UNL     1       1.685   8.326  20.508  0.00  0.00    +0.000 A 
ENDROOT
BRANCH   5   7
ATOM      7  N   UNL     1       0.787  10.535  20.894  0.00  0.00    +0.000 N 
ATOM      8  C   UNL     1      -0.420  11.193  20.776  0.00  0.00    +0.000 C 
ATOM      9  O   UNL     1      -1.198  11.070  19.827  0.00  0.00    +0.000 OA
ATOM     10  H   UNL     1       1.399  10.801  21.660  0.00  0.00    +0.000 HD
BRANCH   8  11
ATOM     11  C   UNL     1      -0.859  12.129  21.850  0.00  0.00    +0.000 A 
ATOM     12  C   UNL     1      -2.019  11.709  22.538  0.00  0.00    +0.000 A 
ATOM     13  C   UNL     1      -2.661  12.533  23.455  0.00  0.00    +0.000 A 
ATOM     14  C   UNL     1      -2.149  13.799  23.701  0.00  0.00    +0.000 A 
ATOM     15  C   UNL     1      -0.977  14.222  23.059  0.00  0.00    +0.000 A 
ATOM     16 CL   UNL     1      -0.433  15.825  23.429  0.00  0.00    +0.000 Cl
ATOM     17  C   UNL     1      -0.311  13.387  22.139  0.00  0.00    +0.000 A 
ATOM     18 CL   UNL     1       1.141  13.948  21.371  0.00  0.00    +0.000 Cl
ENDBRANCH   8  11
ENDBRANCH   5   7
BRANCH   1  19
ATOM     19  O   UNL     1       2.470   6.045  20.094  0.00  0.00    +0.000 OA
BRANCH  19  25
ATOM     20  C   UNL     1       2.957   4.304  18.529  0.00  0.00    +0.000 A 
ATOM     21  C   UNL     1       3.951   3.708  17.783  0.00  0.00    +0.000 A 
ATOM     22  N   UNL     1       5.251   4.072  17.820  0.00  0.00    +0.000 NA
ATOM     23  C   UNL     1       5.576   5.064  18.660  0.00  0.00    +0.000 A 
ATOM     24  N   UNL     1       4.698   5.686  19.452  0.00  0.00    +0.000 NA
ATOM     25  C   UNL     1       3.394   5.325  19.348  0.00  0.00    +0.000 A 
BRANCH  20  26
ATOM     26  C   UNL     1       1.568   3.887  18.275  0.00  0.00    +0.000 C 
ATOM     27  O   UNL     1       1.046   4.019  17.178  0.00  0.00    +0.000 OA
BRANCH  26  28
ATOM     28  O   UNL     1       0.946   3.470  19.397  0.00  0.00    +0.000 OA
BRANCH  28  30
ATOM     29  C   UNL     1       1.628   2.709  21.551  0.00  0.00    +0.000 C 
ATOM     30  C   UNL     1       1.574   2.369  20.072  0.00  0.00    +0.000 C 
ENDBRANCH  28  30
ENDBRANCH  26  28
ENDBRANCH  20  26
BRANCH  23  31
ATOM     31  S   UNL     1       7.254   5.634  18.603  0.00  0.00    +0.000 S 
ATOM     32  C   UNL     1       7.101   7.040  17.472  0.00  0.00    +0.000 C 
ENDBRANCH  23  31
ENDBRANCH  19  25
ENDBRANCH   1  19
TORSDOF 8
ENDMDL
MODEL 5
REMARK VINA RESULT:      -7.8      2.298      2.994
REMARK  Name = 
REMARK  10 active torsions:
REMARK  status: ('A' for Active; 'I' for Inactive)
REMARK    1  A    between atoms: C_1  and  C_2
REMARK    2  A    between atoms: C_2  and  O_3
REMARK    3  A    between atoms: O_3  and  C_4
REMARK    4  A    between atoms: C_4  and  C_6
REMARK    5  A    between atoms: C_9  and  S_10
REMARK    6  A    between atoms: S_10  and  C_11
REMARK    7  A    between atoms: C_13  and  O_14
REMARK    8  A    between atoms: O_14  and  C_15
REMARK    9  A    between atoms: C_19  and  N_20
REMARK   10  A    between atoms: C_21  and  C_23
REMARK                            x       y       z     vdW  Elec       q    Type
REMARK                         _______ _______ _______ _____ _____    ______ ____
ROOT
ATOM      1  C   UNL     1       2.199   7.385  18.756  0.00  0.00    +0.000 A 
ATOM      2  C   UNL     1       1.875   6.889  20.018  0.00  0.00    +0.000 A 
ATOM      3  C   UNL     1       1.329   7.742  20.972  0.00  0.00    +0.000 A 
ATOM      4  C   UNL     1       1.109   9.086  20.663  0.00  0.00    +0.000 A 
ATOM      5  C   UNL     1       1.391   9.590  19.390  0.00  0.00    +0.000 A 
ATOM      6  C   UNL     1       1.913   8.717  18.428  0.00  0.00    +0.000 A 
ENDROOT
BRANCH   5   7
ATOM      7  N   UNL     1       1.209  10.949  19.027  0.00  0.00    +0.000 N 
ATOM      8  C   UNL     1       1.281  12.025  19.886  0.00  0.00    +0.000 C 
ATOM      9  O   UNL     1       1.452  11.943  21.104  0.00  0.00    +0.000 OA
ATOM     10  H   UNL     1       0.949  11.128  18.061  0.00  0.00    +0.000 HD
BRANCH   8  11
ATOM     11  C   UNL     1       1.151  13.409  19.348  0.00  0.00    +0.000 A 
ATOM     12  C   UNL     1       2.348  13.929  18.804  0.00  0.00    +0.000 A 
ATOM     13  C   UNL     1       2.452  15.257  18.409  0.00  0.00    +0.000 A 
ATOM     14  C   UNL     1       1.354  16.094  18.550  0.00  0.00    +0.000 A 
ATOM     15  C   UNL     1       0.145  15.591  19.050  0.00  0.00    +0.000 A 
ATOM     16 CL   UNL     1      -1.157  16.723  19.197  0.00  0.00    +0.000 Cl
ATOM     17  C   UNL     1       0.025  14.241  19.440  0.00  0.00    +0.000 A 
ATOM     18 CL   UNL     1      -1.492  13.658  20.048  0.00  0.00    +0.000 Cl
ENDBRANCH   8  11
ENDBRANCH   5   7
BRANCH   1  19
ATOM     19  O   UNL     1       2.749   6.485  17.869  0.00  0.00    +0.000 OA
BRANCH  19  25
ATOM     20  C   UNL     1       3.399   4.287  18.548  0.00  0.00    +0.000 A 
ATOM     21  C   UNL     1       4.461   3.498  18.936  0.00  0.00    +0.000 A 
ATOM     22  N   UNL     1       5.724   3.947  19.096  0.00  0.00    +0.000 NA
ATOM     23  C   UNL     1       5.931   5.253  18.878  0.00  0.00    +0.000 A 
ATOM     24  N   UNL     1       4.968   6.112  18.531  0.00  0.00    +0.000 NA
ATOM     25  C   UNL     1       3.723   5.611  18.332  0.00  0.00    +0.000 A 
BRANCH  20  26
ATOM     26  C   UNL     1       2.113   3.622  18.284  0.00  0.00    +0.000 C 
ATOM     27  O   UNL     1       1.381   3.974  17.370  0.00  0.00    +0.000 OA
BRANCH  26  28
ATOM     28  O   UNL     1       1.816   2.694  19.217  0.00  0.00    +0.000 OA
BRANCH  28  30
ATOM     29  C   UNL     1       1.713   2.906  21.590  0.00  0.00    +0.000 C 
ATOM     30  C   UNL     1       0.973   3.150  20.286  0.00  0.00    +0.000 C 
ENDBRANCH  28  30
ENDBRANCH  26  28
ENDBRANCH  20  26
BRANCH  23  31
ATOM     31  S   UNL     1       7.613   5.812  18.950  0.00  0.00    +0.000 S 
ATOM     32  C   UNL     1       7.588   7.134  17.712  0.00  0.00    +0.000 C 
ENDBRANCH  23  31
ENDBRANCH  19  25
ENDBRANCH   1  19
TORSDOF 8
ENDMDL
MODEL 6
REMARK VINA RESULT:      -7.8      1.247      1.319
REMARK  Name = 
REMARK  10 active torsions:
REMARK  status: ('A' for Active; 'I' for Inactive)
REMARK    1  A    between atoms: C_1  and  C_2
REMARK    2  A    between atoms: C_2  and  O_3
REMARK    3  A    between atoms: O_3  and  C_4
REMARK    4  A    between atoms: C_4  and  C_6
REMARK    5  A    between atoms: C_9  and  S_10
REMARK    6  A    between atoms: S_10  and  C_11
REMARK    7  A    between atoms: C_13  and  O_14
REMARK    8  A    between atoms: O_14  and  C_15
REMARK    9  A    between atoms: C_19  and  N_20
REMARK   10  A    between atoms: C_21  and  C_23
REMARK                            x       y       z     vdW  Elec       q    Type
REMARK                         _______ _______ _______ _____ _____    ______ ____
ROOT
ATOM      1  C   UNL     1       2.309   7.244  19.373  0.00  0.00    +0.000 A 
ATOM      2  C   UNL     1       2.618   7.647  18.074  0.00  0.00    +0.000 A 
ATOM      3  C   UNL     1       2.135   8.863  17.600  0.00  0.00    +0.000 A 
ATOM      4  C   UNL     1       1.348   9.671  18.424  0.00  0.00    +0.000 A 
ATOM      5  C   UNL     1       1.064   9.300  19.741  0.00  0.00    +0.000 A 
ATOM      6  C   UNL     1       1.578   8.088  20.218  0.00  0.00    +0.000 A 
ENDROOT
BRANCH   5   7
ATOM      7  N   UNL     1       0.252  10.069  20.613  0.00  0.00    +0.000 N 
ATOM      8  C   UNL     1       0.615  11.261  21.204  0.00  0.00    +0.000 C 
ATOM      9  O   UNL     1       1.725  11.787  21.103  0.00  0.00    +0.000 OA
ATOM     10  H   UNL     1      -0.650   9.672  20.859  0.00  0.00    +0.000 HD
BRANCH   8  11
ATOM     11  C   UNL     1      -0.375  12.005  22.034  0.00  0.00    +0.000 A 
ATOM     12  C   UNL     1      -1.260  11.174  22.757  0.00  0.00    +0.000 A 
ATOM     13  C   UNL     1      -2.347  11.693  23.450  0.00  0.00    +0.000 A 
ATOM     14  C   UNL     1      -2.567  13.063  23.433  0.00  0.00    +0.000 A 
ATOM     15  C   UNL     1      -1.681  13.911  22.756  0.00  0.00    +0.000 A 
ATOM     16 CL   UNL     1      -2.057  15.602  22.788  0.00  0.00    +0.000 Cl
ATOM     17  C   UNL     1      -0.567  13.394  22.062  0.00  0.00    +0.000 A 
ATOM     18 CL   UNL     1       0.509  14.481  21.242  0.00  0.00    +0.000 Cl
ENDBRANCH   8  11
ENDBRANCH   5   7
BRANCH   1  19
ATOM     19  O   UNL     1       2.810   6.022  19.768  0.00  0.00    +0.000 OA
BRANCH  19  25
ATOM     20  C   UNL     1       3.089   4.200  18.245  0.00  0.00    +0.000 A 
ATOM     21  C   UNL     1       3.940   3.620  17.328  0.00  0.00    +0.000 A 
ATOM     22  N   UNL     1       5.177   4.079  17.042  0.00  0.00    +0.000 NA
ATOM     23  C   UNL     1       5.591   5.157  17.722  0.00  0.00    +0.000 A 
ATOM     24  N   UNL     1       4.861   5.776  18.655  0.00  0.00    +0.000 NA
ATOM     25  C   UNL     1       3.605   5.313  18.876  0.00  0.00    +0.000 A 
BRANCH  20  26
ATOM     26  C   UNL     1       1.721   3.665  18.343  0.00  0.00    +0.000 C 
ATOM     27  O   UNL     1       0.814   4.080  17.636  0.00  0.00    +0.000 OA
BRANCH  26  28
ATOM     28  O   UNL     1       1.590   2.779  19.352  0.00  0.00    +0.000 OA
BRANCH  28  30
ATOM     29  C   UNL     1       1.931   3.108  21.688  0.00  0.00    +0.000 C 
ATOM     30  C   UNL     1       0.958   3.289  20.536  0.00  0.00    +0.000 C 
ENDBRANCH  28  30
ENDBRANCH  26  28
ENDBRANCH  20  26
BRANCH  23  31
ATOM     31  S   UNL     1       7.157   5.842  17.246  0.00  0.00    +0.000 S 
ATOM     32  C   UNL     1       7.411   5.035  15.645  0.00  0.00    +0.000 C 
ENDBRANCH  23  31
ENDBRANCH  19  25
ENDBRANCH   1  19
TORSDOF 8
ENDMDL
MODEL 7
REMARK VINA RESULT:      -7.7      2.831      5.211
REMARK  Name = 
REMARK  10 active torsions:
REMARK  status: ('A' for Active; 'I' for Inactive)
REMARK    1  A    between atoms: C_1  and  C_2
REMARK    2  A    between atoms: C_2  and  O_3
REMARK    3  A    between atoms: O_3  and  C_4
REMARK    4  A    between atoms: C_4  and  C_6
REMARK    5  A    between atoms: C_9  and  S_10
REMARK    6  A    between atoms: S_10  and  C_11
REMARK    7  A    between atoms: C_13  and  O_14
REMARK    8  A    between atoms: O_14  and  C_15
REMARK    9  A    between atoms: C_19  and  N_20
REMARK   10  A    between atoms: C_21  and  C_23
REMARK                            x       y       z     vdW  Elec       q    Type
REMARK                         _______ _______ _______ _____ _____    ______ ____
ROOT
ATOM      1  C   UNL     1       4.255   4.302  19.381  0.00  0.00    +0.000 A 
ATOM      2  C   UNL     1       3.415   3.244  19.729  0.00  0.00    +0.000 A 
ATOM      3  C   UNL     1       2.138   3.512  20.214  0.00  0.00    +0.000 A 
ATOM      4  C   UNL     1       1.705   4.833  20.347  0.00  0.00    +0.000 A 
ATOM      5  C   UNL     1       2.519   5.902  19.965  0.00  0.00    +0.000 A 
ATOM      6  C   UNL     1       3.791   5.622  19.451  0.00  0.00    +0.000 A 
ENDROOT
BRANCH   5   7
ATOM      7  N   UNL     1       2.140   7.262  20.099  0.00  0.00    +0.000 N 
ATOM      8  C   UNL     1       1.778   8.101  19.065  0.00  0.00    +0.000 C 
ATOM      9  O   UNL     1       1.799   7.795  17.871  0.00  0.00    +0.000 OA
ATOM     10  H   UNL     1       2.195   7.657  21.034  0.00  0.00    +0.000 HD
BRANCH   8  11
ATOM     11  C   UNL     1       1.319   9.487  19.365  0.00  0.00    +0.000 A 
ATOM     12  C   UNL     1       1.850  10.468  18.498  0.00  0.00    +0.000 A 
ATOM     13  C   UNL     1       1.661  11.825  18.730  0.00  0.00    +0.000 A 
ATOM     14  C   UNL     1       0.933  12.227  19.840  0.00  0.00    +0.000 A 
ATOM     15  C   UNL     1       0.364  11.271  20.693  0.00  0.00    +0.000 A 
ATOM     16 CL   UNL     1      -0.515  11.882  22.055  0.00  0.00    +0.000 Cl
ATOM     17  C   UNL     1       0.537   9.891  20.457  0.00  0.00    +0.000 A 
ATOM     18 CL   UNL     1      -0.190   8.742  21.535  0.00  0.00    +0.000 Cl
ENDBRANCH   8  11
ENDBRANCH   5   7
BRANCH   1  19
ATOM     19  O   UNL     1       5.509   3.960  18.923  0.00  0.00    +0.000 OA
BRANCH  19  25
ATOM     20  C   UNL     1       6.925   5.487  17.749  0.00  0.00    +0.000 A 
ATOM     21  C   UNL     1       7.336   5.910  16.503  0.00  0.00    +0.000 A 
ATOM     22  N   UNL     1       6.851   5.427  15.338  0.00  0.00    +0.000 NA
ATOM     23  C   UNL     1       5.893   4.493  15.425  0.00  0.00    +0.000 A 
ATOM     24  N   UNL     1       5.399   4.038  16.580  0.00  0.00    +0.000 NA
ATOM     25  C   UNL     1       5.949   4.512  17.727  0.00  0.00    +0.000 A 
BRANCH  20  26
ATOM     26  C   UNL     1       7.647   6.010  18.921  0.00  0.00    +0.000 C 
ATOM     27  O   UNL     1       7.467   5.558  20.043  0.00  0.00    +0.000 OA
BRANCH  26  28
ATOM     28  O   UNL     1       8.409   7.081  18.616  0.00  0.00    +0.000 OA
BRANCH  28  30
ATOM     29  C   UNL     1       8.527   9.436  18.270  0.00  0.00    +0.000 C 
ATOM     30  C   UNL     1       7.706   8.183  18.024  0.00  0.00    +0.000 C 
ENDBRANCH  28  30
ENDBRANCH  26  28
ENDBRANCH  20  26
BRANCH  23  31
ATOM     31  S   UNL     1       5.359   3.761  13.901  0.00  0.00    +0.000 S 
ATOM     32  C   UNL     1       6.843   3.967  12.883  0.00  0.00    +0.000 C 
ENDBRANCH  23  31
ENDBRANCH  19  25
ENDBRANCH   1  19
TORSDOF 8
ENDMDL
MODEL 8
REMARK VINA RESULT:      -7.6      2.509      3.091
REMARK  Name = 
REMARK  10 active torsions:
REMARK  status: ('A' for Active; 'I' for Inactive)
REMARK    1  A    between atoms: C_1  and  C_2
REMARK    2  A    between atoms: C_2  and  O_3
REMARK    3  A    between atoms: O_3  and  C_4
REMARK    4  A    between atoms: C_4  and  C_6
REMARK    5  A    between atoms: C_9  and  S_10
REMARK    6  A    between atoms: S_10  and  C_11
REMARK    7  A    between atoms: C_13  and  O_14
REMARK    8  A    between atoms: O_14  and  C_15
REMARK    9  A    between atoms: C_19  and  N_20
REMARK   10  A    between atoms: C_21  and  C_23
REMARK                            x       y       z     vdW  Elec       q    Type
REMARK                         _______ _______ _______ _____ _____    ______ ____
ROOT
ATOM      1  C   UNL     1       2.121   7.536  18.842  0.00  0.00    +0.000 A 
ATOM      2  C   UNL     1       1.873   6.931  20.074  0.00  0.00    +0.000 A 
ATOM      3  C   UNL     1       1.307   7.677  21.104  0.00  0.00    +0.000 A 
ATOM      4  C   UNL     1       0.990   9.021  20.899  0.00  0.00    +0.000 A 
ATOM      5  C   UNL     1       1.195   9.631  19.658  0.00  0.00    +0.000 A 
ATOM      6  C   UNL     1       1.738   8.865  18.620  0.00  0.00    +0.000 A 
ENDROOT
BRANCH   5   7
ATOM      7  N   UNL     1       0.913  10.997  19.401  0.00  0.00    +0.000 N 
ATOM      8  C   UNL     1       1.220  12.051  20.235  0.00  0.00    +0.000 C 
ATOM      9  O   UNL     1       1.728  11.939  21.353  0.00  0.00    +0.000 OA
ATOM     10  H   UNL     1       0.391  11.199  18.553  0.00  0.00    +0.000 HD
BRANCH   8  11
ATOM     11  C   UNL     1       0.939  13.447  19.795  0.00  0.00    +0.000 A 
ATOM     12  C   UNL     1      -0.414  13.831  19.930  0.00  0.00    +0.000 A 
ATOM     13  C   UNL     1      -0.886  15.034  19.419  0.00  0.00    +0.000 A 
ATOM     14  C   UNL     1      -0.005  15.881  18.761  0.00  0.00    +0.000 A 
ATOM     15  C   UNL     1       1.349  15.539  18.650  0.00  0.00    +0.000 A 
ATOM     16 CL   UNL     1       2.358  16.662  17.798  0.00  0.00    +0.000 Cl
ATOM     17  C   UNL     1       1.840  14.327  19.178  0.00  0.00    +0.000 A 
ATOM     18 CL   UNL     1       3.526  13.947  19.023  0.00  0.00    +0.000 Cl
ENDBRANCH   8  11
ENDBRANCH   5   7
BRANCH   1  19
ATOM     19  O   UNL     1       2.696   6.739  17.876  0.00  0.00    +0.000 OA
BRANCH  19  25
ATOM     20  C   UNL     1       3.308   4.497  18.438  0.00  0.00    +0.000 A 
ATOM     21  C   UNL     1       4.360   3.664  18.753  0.00  0.00    +0.000 A 
ATOM     22  N   UNL     1       5.641   4.071  18.883  0.00  0.00    +0.000 NA
ATOM     23  C   UNL     1       5.877   5.379  18.712  0.00  0.00    +0.000 A 
ATOM     24  N   UNL     1       4.927   6.278  18.438  0.00  0.00    +0.000 NA
ATOM     25  C   UNL     1       3.662   5.820  18.265  0.00  0.00    +0.000 A 
BRANCH  20  26
ATOM     26  C   UNL     1       1.995   3.879  18.195  0.00  0.00    +0.000 C 
ATOM     27  O   UNL     1       1.242   4.286  17.322  0.00  0.00    +0.000 OA
BRANCH  26  28
ATOM     28  O   UNL     1       1.703   2.924  19.103  0.00  0.00    +0.000 OA
BRANCH  28  30
ATOM     29  C   UNL     1       1.753   3.145  21.476  0.00  0.00    +0.000 C 
ATOM     30  C   UNL     1       0.922   3.363  20.223  0.00  0.00    +0.000 C 
ENDBRANCH  28  30
ENDBRANCH  26  28
ENDBRANCH  20  26
BRANCH  23  31
ATOM     31  S   UNL     1       7.576   5.890  18.745  0.00  0.00    +0.000 S 
ATOM     32  C   UNL     1       7.529   7.305  17.616  0.00  0.00    +0.000 C 
ENDBRANCH  23  31
ENDBRANCH  19  25
ENDBRANCH   1  19
TORSDOF 8
ENDMDL
MODEL 9
REMARK VINA RESULT:      -7.5      1.972      2.622
REMARK  Name = 
REMARK  10 active torsions:
REMARK  status: ('A' for Active; 'I' for Inactive)
REMARK    1  A    between atoms: C_1  and  C_2
REMARK    2  A    between atoms: C_2  and  O_3
REMARK    3  A    between atoms: O_3  and  C_4
REMARK    4  A    between atoms: C_4  and  C_6
REMARK    5  A    between atoms: C_9  and  S_10
REMARK    6  A    between atoms: S_10  and  C_11
REMARK    7  A    between atoms: C_13  and  O_14
REMARK    8  A    between atoms: O_14  and  C_15
REMARK    9  A    between atoms: C_19  and  N_20
REMARK   10  A    between atoms: C_21  and  C_23
REMARK                            x       y       z     vdW  Elec       q    Type
REMARK                         _______ _______ _______ _____ _____    ______ ____
ROOT
ATOM      1  C   UNL     1       2.190   7.165  18.994  0.00  0.00    +0.000 A 
ATOM      2  C   UNL     1       1.868   6.477  20.163  0.00  0.00    +0.000 A 
ATOM      3  C   UNL     1       1.283   7.162  21.223  0.00  0.00    +0.000 A 
ATOM      4  C   UNL     1       1.020   8.529  21.111  0.00  0.00    +0.000 A 
ATOM      5  C   UNL     1       1.300   9.224  19.931  0.00  0.00    +0.000 A 
ATOM      6  C   UNL     1       1.862   8.520  18.860  0.00  0.00    +0.000 A 
ENDROOT
BRANCH   5   7
ATOM      7  N   UNL     1       1.075  10.615  19.770  0.00  0.00    +0.000 N 
ATOM      8  C   UNL     1      -0.084  11.191  19.294  0.00  0.00    +0.000 C 
ATOM      9  O   UNL     1      -1.063  10.565  18.882  0.00  0.00    +0.000 OA
ATOM     10  H   UNL     1       1.860  11.227  19.974  0.00  0.00    +0.000 HD
BRANCH   8  11
ATOM     11  C   UNL     1      -0.210  12.676  19.258  0.00  0.00    +0.000 A 
ATOM     12  C   UNL     1       0.870  13.329  18.622  0.00  0.00    +0.000 A 
ATOM     13  C   UNL     1       0.999  14.713  18.642  0.00  0.00    +0.000 A 
ATOM     14  C   UNL     1       0.043  15.472  19.302  0.00  0.00    +0.000 A 
ATOM     15  C   UNL     1      -1.057  14.849  19.907  0.00  0.00    +0.000 A 
ATOM     16 CL   UNL     1      -2.183  15.889  20.714  0.00  0.00    +0.000 Cl
ATOM     17  C   UNL     1      -1.204  13.446  19.879  0.00  0.00    +0.000 A 
ATOM     18 CL   UNL     1      -2.586  12.717  20.635  0.00  0.00    +0.000 Cl
ENDBRANCH   8  11
ENDBRANCH   5   7
BRANCH   1  19
ATOM     19  O   UNL     1       2.781   6.423  17.993  0.00  0.00    +0.000 OA
BRANCH  19  25
ATOM     20  C   UNL     1       3.625   4.226  18.410  0.00  0.00    +0.000 A 
ATOM     21  C   UNL     1       4.759   3.488  18.674  0.00  0.00    +0.000 A 
ATOM     22  N   UNL     1       5.991   4.018  18.836  0.00  0.00    +0.000 NA
ATOM     23  C   UNL     1       6.088   5.352  18.752  0.00  0.00    +0.000 A 
ATOM     24  N   UNL     1       5.049   6.163  18.533  0.00  0.00    +0.000 NA
ATOM     25  C   UNL     1       3.838   5.587  18.325  0.00  0.00    +0.000 A 
BRANCH  20  26
ATOM     26  C   UNL     1       2.383   3.491  18.122  0.00  0.00    +0.000 C 
ATOM     27  O   UNL     1       1.689   3.753  17.150  0.00  0.00    +0.000 OA
BRANCH  26  28
ATOM     28  O   UNL     1       2.071   2.612  19.097  0.00  0.00    +0.000 OA
BRANCH  28  30
ATOM     29  C   UNL     1       1.342   2.855  21.354  0.00  0.00    +0.000 C 
ATOM     30  C   UNL     1       0.931   2.963  19.896  0.00  0.00    +0.000 C 
ENDBRANCH  28  30
ENDBRANCH  26  28
ENDBRANCH  20  26
BRANCH  23  31
ATOM     31  S   UNL     1       7.724   6.033  18.824  0.00  0.00    +0.000 S 
ATOM     32  C   UNL     1       7.597   7.360  17.597  0.00  0.00    +0.000 C 
ENDBRANCH  23  31
ENDBRANCH  19  25
ENDBRANCH   1  19
TORSDOF 8
ENDMDL
