MODEL 1
REMARK VINA RESULT:      -7.3      0.000      0.000
REMARK  Name = 
REMARK  2 active torsions:
REMARK  status: ('A' for Active; 'I' for Inactive)
REMARK    1  A    between atoms: C_2  and  C_3
REMARK    2  A    between atoms: C_11  and  N_12
REMARK                            x       y       z     vdW  Elec       q    Type
REMARK                         _______ _______ _______ _____ _____    ______ ____
ROOT
ATOM      1  O   UNL     1       2.173   6.874  19.463  0.00  0.00    +0.000 OA
ATOM      2  C   UNL     1       2.684   5.758  19.374  0.00  0.00    +0.000 C 
ATOM      3  N   UNL     1       3.789   5.525  18.541  0.00  0.00    +0.000 N 
ATOM      4  C   UNL     1       4.517   4.263  18.427  0.00  0.00    +0.000 C 
ATOM      5  C   UNL     1       6.024   4.464  18.385  0.00  0.00    +0.000 C 
ATOM      6  C   UNL     1       6.463   5.520  17.372  0.00  0.00    +0.000 C 
ATOM      7  C   UNL     1       5.636   6.802  17.500  0.00  0.00    +0.000 C 
ATOM      8  C   UNL     1       4.134   6.541  17.546  0.00  0.00    +0.000 C 
ENDROOT
BRANCH   2   9
ATOM      9  C   UNL     1       2.170   4.656  20.180  0.00  0.00    +0.000 A 
ATOM     10  C   UNL     1       1.169   3.671  19.926  0.00  0.00    +0.000 A 
ATOM     11  C   UNL     1       1.153   2.831  21.013  0.00  0.00    +0.000 A 
ATOM     12  O   UNL     1       1.997   3.285  21.970  0.00  0.00    +0.000 OA
ATOM     13  C   UNL     1       2.585   4.404  21.476  0.00  0.00    +0.000 A 
ENDBRANCH   2   9
BRANCH   6  14
ATOM     14  N   UNL     1       6.501   5.003  16.009  0.00  0.00    +0.000 N 
ATOM     15  N   UNL     1       5.725   3.975  15.606  0.00  0.00    +0.000 NA
ATOM     16  C   UNL     1       6.091   3.847  14.327  0.00  0.00    +0.000 A 
ATOM     17  C   UNL     1       7.077   4.789  14.020  0.00  0.00    +0.000 A 
ATOM     18  N   UNL     1       7.347   5.529  15.098  0.00  0.00    +0.000 NA
ENDBRANCH   6  14
TORSDOF 2
ENDMDL
MODEL 2
REMARK VINA RESULT:      -7.2      0.600      1.302
REMARK  Name = 
REMARK  2 active torsions:
REMARK  status: ('A' for Active; 'I' for Inactive)
REMARK    1  A    between atoms: C_2  and  C_3
REMARK    2  A    between atoms: C_11  and  N_12
REMARK                            x       y       z     vdW  Elec       q    Type
REMARK                         _______ _______ _______ _____ _____    ______ ____
ROOT
ATOM      1  O   UNL     1       2.333   6.895  19.263  0.00  0.00    +0.000 OA
ATOM      2  C   UNL     1       2.785   5.758  19.129  0.00  0.00    +0.000 C 
ATOM      3  N   UNL     1       3.902   5.507  18.318  0.00  0.00    +0.000 N 
ATOM      4  C   UNL     1       4.563   4.213  18.158  0.00  0.00    +0.000 C 
ATOM      5  C   UNL     1       6.080   4.331  18.172  0.00  0.00    +0.000 C 
ATOM      6  C   UNL     1       6.608   5.412  17.230  0.00  0.00    +0.000 C 
ATOM      7  C   UNL     1       5.849   6.731  17.402  0.00  0.00    +0.000 C 
ATOM      8  C   UNL     1       4.333   6.551  17.389  0.00  0.00    +0.000 C 
ENDROOT
BRANCH   2   9
ATOM      9  C   UNL     1       2.185   4.645  19.859  0.00  0.00    +0.000 A 
ATOM     10  C   UNL     1       2.380   4.155  21.185  0.00  0.00    +0.000 A 
ATOM     11  C   UNL     1       1.489   3.125  21.363  0.00  0.00    +0.000 A 
ATOM     12  O   UNL     1       0.829   2.870  20.208  0.00  0.00    +0.000 OA
ATOM     13  C   UNL     1       1.275   3.769  19.294  0.00  0.00    +0.000 A 
ENDBRANCH   2   9
BRANCH   6  14
ATOM     14  N   UNL     1       6.662   4.965  15.843  0.00  0.00    +0.000 N 
ATOM     15  N   UNL     1       7.420   5.585  14.915  0.00  0.00    +0.000 NA
ATOM     16  C   UNL     1       7.158   4.858  13.824  0.00  0.00    +0.000 A 
ATOM     17  C   UNL     1       6.248   3.845  14.138  0.00  0.00    +0.000 A 
ATOM     18  N   UNL     1       5.922   3.913  15.432  0.00  0.00    +0.000 NA
ENDBRANCH   6  14
TORSDOF 2
ENDMDL
MODEL 3
REMARK VINA RESULT:      -7.0      2.744      6.232
REMARK  Name = 
REMARK  2 active torsions:
REMARK  status: ('A' for Active; 'I' for Inactive)
REMARK    1  A    between atoms: C_2  and  C_3
REMARK    2  A    between atoms: C_11  and  N_12
REMARK                            x       y       z     vdW  Elec       q    Type
REMARK                         _______ _______ _______ _____ _____    ______ ____
ROOT
ATOM      1  O   UNL     1       4.562   7.301  16.575  0.00  0.00    +0.000 OA
ATOM      2  C   UNL     1       4.718   6.081  16.595  0.00  0.00    +0.000 C 
ATOM      3  N   UNL     1       3.905   5.253  17.385  0.00  0.00    +0.000 N 
ATOM      4  C   UNL     1       3.955   3.793  17.416  0.00  0.00    +0.000 C 
ATOM      5  C   UNL     1       2.569   3.166  17.427  0.00  0.00    +0.000 C 
ATOM      6  C   UNL     1       1.641   3.772  18.478  0.00  0.00    +0.000 C 
ATOM      7  C   UNL     1       1.665   5.303  18.436  0.00  0.00    +0.000 C 
ATOM      8  C   UNL     1       3.079   5.876  18.419  0.00  0.00    +0.000 C 
ENDROOT
BRANCH   2   9
ATOM      9  C   UNL     1       5.736   5.463  15.751  0.00  0.00    +0.000 A 
ATOM     10  C   UNL     1       5.651   4.747  14.520  0.00  0.00    +0.000 A 
ATOM     11  C   UNL     1       6.939   4.460  14.137  0.00  0.00    +0.000 A 
ATOM     12  O   UNL     1       7.812   4.854  15.095  0.00  0.00    +0.000 OA
ATOM     13  C   UNL     1       7.079   5.430  16.081  0.00  0.00    +0.000 A 
ENDBRANCH   2   9
BRANCH   6  14
ATOM     14  N   UNL     1       1.885   3.237  19.812  0.00  0.00    +0.000 N 
ATOM     15  N   UNL     1       3.069   2.694  20.166  0.00  0.00    +0.000 NA
ATOM     16  C   UNL     1       2.837   2.345  21.434  0.00  0.00    +0.000 A 
ATOM     17  C   UNL     1       1.525   2.678  21.784  0.00  0.00    +0.000 A 
ATOM     18  N   UNL     1       0.909   3.245  20.745  0.00  0.00    +0.000 NA
ENDBRANCH   6  14
TORSDOF 2
ENDMDL
MODEL 4
REMARK VINA RESULT:      -6.9      1.291      1.654
REMARK  Name = 
REMARK  2 active torsions:
REMARK  status: ('A' for Active; 'I' for Inactive)
REMARK    1  A    between atoms: C_2  and  C_3
REMARK    2  A    between atoms: C_11  and  N_12
REMARK                            x       y       z     vdW  Elec       q    Type
REMARK                         _______ _______ _______ _____ _____    ______ ____
ROOT
ATOM      1  O   UNL     1       2.804   7.124  18.416  0.00  0.00    +0.000 OA
ATOM      2  C   UNL     1       3.030   5.943  18.155  0.00  0.00    +0.000 C 
ATOM      3  N   UNL     1       4.145   5.564  17.391  0.00  0.00    +0.000 N 
ATOM      4  C   UNL     1       4.545   4.189  17.096  0.00  0.00    +0.000 C 
ATOM      5  C   UNL     1       6.047   3.983  17.224  0.00  0.00    +0.000 C 
ATOM      6  C   UNL     1       6.866   5.036  16.479  0.00  0.00    +0.000 C 
ATOM      7  C   UNL     1       6.373   6.453  16.783  0.00  0.00    +0.000 C 
ATOM      8  C   UNL     1       4.860   6.600  16.647  0.00  0.00    +0.000 C 
ENDROOT
BRANCH   2   9
ATOM      9  C   UNL     1       2.155   4.901  18.682  0.00  0.00    +0.000 A 
ATOM     10  C   UNL     1       1.419   3.858  18.046  0.00  0.00    +0.000 A 
ATOM     11  C   UNL     1       0.826   3.123  19.044  0.00  0.00    +0.000 A 
ATOM     12  O   UNL     1       1.055   3.697  20.249  0.00  0.00    +0.000 OA
ATOM     13  C   UNL     1       1.831   4.788  20.023  0.00  0.00    +0.000 A 
ENDBRANCH   2   9
BRANCH   6  14
ATOM     14  N   UNL     1       6.957   4.761  15.049  0.00  0.00    +0.000 N 
ATOM     15  N   UNL     1       7.711   5.510  14.218  0.00  0.00    +0.000 NA
ATOM     16  C   UNL     1       7.491   4.913  13.043  0.00  0.00    +0.000 A 
ATOM     17  C   UNL     1       6.606   3.844  13.214  0.00  0.00    +0.000 A 
ATOM     18  N   UNL     1       6.256   3.747  14.499  0.00  0.00    +0.000 NA
ENDBRANCH   6  14
TORSDOF 2
ENDMDL
MODEL 5
REMARK VINA RESULT:      -6.8      2.186      3.113
REMARK  Name = 
REMARK  2 active torsions:
REMARK  status: ('A' for Active; 'I' for Inactive)
REMARK    1  A    between atoms: C_2  and  C_3
REMARK    2  A    between atoms: C_11  and  N_12
REMARK                            x       y       z     vdW  Elec       q    Type
REMARK                         _______ _______ _______ _____ _____    ______ ____
ROOT
ATOM      1  O   UNL     1       3.637   1.845  17.879  0.00  0.00    +0.000 OA
ATOM      2  C   UNL     1       3.550   2.844  18.593  0.00  0.00    +0.000 C 
ATOM      3  N   UNL     1       4.208   4.038  18.261  0.00  0.00    +0.000 N 
ATOM      4  C   UNL     1       4.103   5.298  18.994  0.00  0.00    +0.000 C 
ATOM      5  C   UNL     1       3.972   6.498  18.067  0.00  0.00    +0.000 C 
ATOM      6  C   UNL     1       5.019   6.519  16.956  0.00  0.00    +0.000 C 
ATOM      7  C   UNL     1       5.125   5.162  16.255  0.00  0.00    +0.000 C 
ATOM      8  C   UNL     1       5.246   3.995  17.231  0.00  0.00    +0.000 C 
ENDROOT
BRANCH   2   9
ATOM      9  C   UNL     1       2.712   2.814  19.787  0.00  0.00    +0.000 A 
ATOM     10  C   UNL     1       1.331   3.107  19.994  0.00  0.00    +0.000 A 
ATOM     11  C   UNL     1       1.060   2.836  21.313  0.00  0.00    +0.000 A 
ATOM     12  O   UNL     1       2.198   2.497  21.966  0.00  0.00    +0.000 OA
ATOM     13  C   UNL     1       3.197   2.516  21.048  0.00  0.00    +0.000 A 
ENDBRANCH   2   9
BRANCH   6  14
ATOM     14  N   UNL     1       6.308   7.023  17.414  0.00  0.00    +0.000 N 
ATOM     15  N   UNL     1       6.803   8.212  17.012  0.00  0.00    +0.000 NA
ATOM     16  C   UNL     1       7.971   8.251  17.660  0.00  0.00    +0.000 A 
ATOM     17  C   UNL     1       8.135   7.084  18.411  0.00  0.00    +0.000 A 
ATOM     18  N   UNL     1       7.073   6.290  18.252  0.00  0.00    +0.000 NA
ENDBRANCH   6  14
TORSDOF 2
ENDMDL
MODEL 6
REMARK VINA RESULT:      -6.8      2.173      3.157
REMARK  Name = 
REMARK  2 active torsions:
REMARK  status: ('A' for Active; 'I' for Inactive)
REMARK    1  A    between atoms: C_2  and  C_3
REMARK    2  A    between atoms: C_11  and  N_12
REMARK                            x       y       z     vdW  Elec       q    Type
REMARK                         _______ _______ _______ _____ _____    ______ ____
ROOT
ATOM      1  O   UNL     1       3.582   1.843  17.657  0.00  0.00    +0.000 OA
ATOM      2  C   UNL     1       3.459   2.850  18.354  0.00  0.00    +0.000 C 
ATOM      3  N   UNL     1       4.164   4.029  18.063  0.00  0.00    +0.000 N 
ATOM      4  C   UNL     1       4.028   5.298  18.776  0.00  0.00    +0.000 C 
ATOM      5  C   UNL     1       3.991   6.491  17.832  0.00  0.00    +0.000 C 
ATOM      6  C   UNL     1       5.120   6.482  16.804  0.00  0.00    +0.000 C 
ATOM      7  C   UNL     1       5.253   5.116  16.124  0.00  0.00    +0.000 C 
ATOM      8  C   UNL     1       5.277   3.956  17.116  0.00  0.00    +0.000 C 
ENDROOT
BRANCH   2   9
ATOM      9  C   UNL     1       2.532   2.848  19.481  0.00  0.00    +0.000 A 
ATOM     10  C   UNL     1       2.730   2.667  20.882  0.00  0.00    +0.000 A 
ATOM     11  C   UNL     1       1.507   2.842  21.482  0.00  0.00    +0.000 A 
ATOM     12  O   UNL     1       0.544   3.013  20.545  0.00  0.00    +0.000 OA
ATOM     13  C   UNL     1       1.163   2.984  19.337  0.00  0.00    +0.000 A 
ENDBRANCH   2   9
BRANCH   6  14
ATOM     14  N   UNL     1       6.380   6.965  17.356  0.00  0.00    +0.000 N 
ATOM     15  N   UNL     1       7.098   6.252  18.248  0.00  0.00    +0.000 NA
ATOM     16  C   UNL     1       8.136   7.064  18.470  0.00  0.00    +0.000 A 
ATOM     17  C   UNL     1       7.993   8.232  17.716  0.00  0.00    +0.000 A 
ATOM     18  N   UNL     1       6.864   8.176  17.004  0.00  0.00    +0.000 NA
ENDBRANCH   6  14
TORSDOF 2
ENDMDL
MODEL 7
REMARK VINA RESULT:      -6.7      2.879      6.372
REMARK  Name = 
REMARK  2 active torsions:
REMARK  status: ('A' for Active; 'I' for Inactive)
REMARK    1  A    between atoms: C_2  and  C_3
REMARK    2  A    between atoms: C_11  and  N_12
REMARK                            x       y       z     vdW  Elec       q    Type
REMARK                         _______ _______ _______ _____ _____    ______ ____
ROOT
ATOM      1  O   UNL     1       7.759   4.470  17.341  0.00  0.00    +0.000 OA
ATOM      2  C   UNL     1       6.671   4.421  16.769  0.00  0.00    +0.000 C 
ATOM      3  N   UNL     1       5.466   4.511  17.484  0.00  0.00    +0.000 N 
ATOM      4  C   UNL     1       4.129   4.546  16.894  0.00  0.00    +0.000 C 
ATOM      5  C   UNL     1       3.228   5.575  17.560  0.00  0.00    +0.000 C 
ATOM      6  C   UNL     1       3.225   5.477  19.085  0.00  0.00    +0.000 C 
ATOM      7  C   UNL     1       4.647   5.392  19.647  0.00  0.00    +0.000 C 
ATOM      8  C   UNL     1       5.508   4.351  18.937  0.00  0.00    +0.000 C 
ENDROOT
BRANCH   2   9
ATOM      9  C   UNL     1       6.616   4.312  15.315  0.00  0.00    +0.000 A 
ATOM     10  C   UNL     1       5.923   3.417  14.448  0.00  0.00    +0.000 A 
ATOM     11  C   UNL     1       6.179   3.828  13.163  0.00  0.00    +0.000 A 
ATOM     12  O   UNL     1       7.068   4.850  13.166  0.00  0.00    +0.000 OA
ATOM     13  C   UNL     1       7.354   5.118  14.465  0.00  0.00    +0.000 A 
ENDBRANCH   2   9
BRANCH   6  14
ATOM     14  N   UNL     1       2.358   4.412  19.573  0.00  0.00    +0.000 N 
ATOM     15  N   UNL     1       1.474   3.778  18.774  0.00  0.00    +0.000 NA
ATOM     16  C   UNL     1       0.914   2.913  19.625  0.00  0.00    +0.000 A 
ATOM     17  C   UNL     1       1.472   3.072  20.897  0.00  0.00    +0.000 A 
ATOM     18  N   UNL     1       2.395   4.036  20.870  0.00  0.00    +0.000 NA
ENDBRANCH   6  14
TORSDOF 2
ENDMDL
MODEL 8
REMARK VINA RESULT:      -6.6      1.665      1.931
REMARK  Name = 
REMARK  2 active torsions:
REMARK  status: ('A' for Active; 'I' for Inactive)
REMARK    1  A    between atoms: C_2  and  C_3
REMARK    2  A    between atoms: C_11  and  N_12
REMARK                            x       y       z     vdW  Elec       q    Type
REMARK                         _______ _______ _______ _____ _____    ______ ____
ROOT
ATOM      1  O   UNL     1       3.076   6.913  18.376  0.00  0.00    +0.000 OA
ATOM      2  C   UNL     1       3.235   5.750  18.008  0.00  0.00    +0.000 C 
ATOM      3  N   UNL     1       4.305   5.387  17.175  0.00  0.00    +0.000 N 
ATOM      4  C   UNL     1       4.628   4.027  16.749  0.00  0.00    +0.000 C 
ATOM      5  C   UNL     1       6.121   3.741  16.805  0.00  0.00    +0.000 C 
ATOM      6  C   UNL     1       6.967   4.816  16.124  0.00  0.00    +0.000 C 
ATOM      7  C   UNL     1       6.554   6.223  16.566  0.00  0.00    +0.000 C 
ATOM      8  C   UNL     1       5.047   6.451  16.497  0.00  0.00    +0.000 C 
ENDROOT
BRANCH   2   9
ATOM      9  C   UNL     1       2.327   4.707  18.475  0.00  0.00    +0.000 A 
ATOM     10  C   UNL     1       2.174   4.068  19.741  0.00  0.00    +0.000 A 
ATOM     11  C   UNL     1       1.107   3.212  19.629  0.00  0.00    +0.000 A 
ATOM     12  O   UNL     1       0.652   3.193  18.353  0.00  0.00    +0.000 OA
ATOM     13  C   UNL     1       1.412   4.073  17.653  0.00  0.00    +0.000 A 
ENDBRANCH   2   9
BRANCH   6  14
ATOM     14  N   UNL     1       6.999   4.663  14.675  0.00  0.00    +0.000 N 
ATOM     15  N   UNL     1       6.348   3.667  14.039  0.00  0.00    +0.000 NA
ATOM     16  C   UNL     1       6.657   3.913  12.763  0.00  0.00    +0.000 A 
ATOM     17  C   UNL     1       7.490   5.033  12.685  0.00  0.00    +0.000 A 
ATOM     18  N   UNL     1       7.717   5.514  13.910  0.00  0.00    +0.000 NA
ENDBRANCH   6  14
TORSDOF 2
ENDMDL
MODEL 9
REMARK VINA RESULT:      -6.4      2.741      6.225
REMARK  Name = 
REMARK  2 active torsions:
REMARK  status: ('A' for Active; 'I' for Inactive)
REMARK    1  A    between atoms: C_2  and  C_3
REMARK    2  A    between atoms: C_11  and  N_12
REMARK                            x       y       z     vdW  Elec       q    Type
REMARK                         _______ _______ _______ _____ _____    ______ ____
ROOT
ATOM      1  O   UNL     1       5.687   7.274  17.193  0.00  0.00    +0.000 OA
ATOM      2  C   UNL     1       5.320   6.123  16.954  0.00  0.00    +0.000 C 
ATOM      3  N   UNL     1       4.296   5.514  17.697  0.00  0.00    +0.000 N 
ATOM      4  C   UNL     1       3.734   4.190  17.441  0.00  0.00    +0.000 C 
ATOM      5  C   UNL     1       2.218   4.170  17.563  0.00  0.00    +0.000 C 
ATOM      6  C   UNL     1       1.708   4.817  18.850  0.00  0.00    +0.000 C 
ATOM      7  C   UNL     1       2.365   6.178  19.096  0.00  0.00    +0.000 C 
ATOM      8  C   UNL     1       3.884   6.140  18.953  0.00  0.00    +0.000 C 
ENDROOT
BRANCH   2   9
ATOM      9  C   UNL     1       5.921   5.382  15.851  0.00  0.00    +0.000 A 
ATOM     10  C   UNL     1       5.360   4.773  14.690  0.00  0.00    +0.000 A 
ATOM     11  C   UNL     1       6.408   4.276  13.954  0.00  0.00    +0.000 A 
ATOM     12  O   UNL     1       7.573   4.439  14.627  0.00  0.00    +0.000 OA
ATOM     13  C   UNL     1       7.270   5.078  15.786  0.00  0.00    +0.000 A 
ENDBRANCH   2   9
BRANCH   6  14
ATOM     14  N   UNL     1       1.804   3.925  19.998  0.00  0.00    +0.000 N 
ATOM     15  N   UNL     1       2.151   4.364  21.226  0.00  0.00    +0.000 NA
ATOM     16  C   UNL     1       2.117   3.232  21.937  0.00  0.00    +0.000 A 
ATOM     17  C   UNL     1       1.766   2.163  21.108  0.00  0.00    +0.000 A 
ATOM     18  N   UNL     1       1.570   2.602  19.861  0.00  0.00    +0.000 NA
ENDBRANCH   6  14
TORSDOF 2
ENDMDL
