MODEL 1
REMARK VINA RESULT:      -7.7      0.000      0.000
REMARK  Name = 
REMARK  2 active torsions:
REMARK  status: ('A' for Active; 'I' for Inactive)
REMARK    1  A    between atoms: C_2  and  C_11
REMARK    2  A    between atoms: N_3  and  C_4
REMARK                            x       y       z     vdW  Elec       q    Type
REMARK                         _______ _______ _______ _____ _____    ______ ____
ROOT
ATOM      1  O   UNL     1       6.515   4.351  17.269  0.00  0.00    +0.000 OA
ATOM      2  C   UNL     1       5.359   4.408  16.863  0.00  0.00    +0.000 C 
ATOM      3  N   UNL     1       4.954   4.433  15.537  0.00  0.00    +0.000 N 
ATOM      4  H   UNL     1       3.999   4.716  15.347  0.00  0.00    +0.000 HD
ENDROOT
BRANCH   2   5
ATOM      5  C   UNL     1       4.282   4.544  17.867  0.00  0.00    +0.000 A 
ATOM      6  C   UNL     1       3.222   5.453  17.731  0.00  0.00    +0.000 A 
ATOM      7  C   UNL     1       2.208   5.521  18.711  0.00  0.00    +0.000 A 
ATOM      8  C   UNL     1       2.239   4.686  19.836  0.00  0.00    +0.000 A 
ATOM      9  C   UNL     1       3.285   3.798  19.944  0.00  0.00    +0.000 A 
ATOM     10  O   UNL     1       3.477   2.888  20.971  0.00  0.00    +0.000 OA
ATOM     11  C   UNL     1       4.651   2.228  20.577  0.00  0.00    +0.000 A 
ATOM     12  O   UNL     1       5.167   1.323  21.213  0.00  0.00    +0.000 OA
ATOM     13  N   UNL     1       5.126   2.741  19.397  0.00  0.00    +0.000 N 
ATOM     14  C   UNL     1       4.271   3.728  18.983  0.00  0.00    +0.000 A 
ATOM     15  H   UNL     1       5.930   2.400  18.888  0.00  0.00    +0.000 HD
ENDBRANCH   2   5
BRANCH   3  16
ATOM     16  C   UNL     1       5.811   4.340  14.419  0.00  0.00    +0.000 A 
ATOM     17  C   UNL     1       6.879   5.216  14.203  0.00  0.00    +0.000 A 
ATOM     18  C   UNL     1       7.654   5.128  13.046  0.00  0.00    +0.000 A 
ATOM     19  C   UNL     1       7.371   4.154  12.093  0.00  0.00    +0.000 A 
ATOM     20  C   UNL     1       6.332   3.255  12.320  0.00  0.00    +0.000 A 
ATOM     21 CL   UNL     1       5.974   2.056  11.137  0.00  0.00    +0.000 Cl
ATOM     22  C   UNL     1       5.563   3.331  13.483  0.00  0.00    +0.000 A 
ENDBRANCH   3  16
TORSDOF 2
ENDMDL
MODEL 2
REMARK VINA RESULT:      -7.6      4.218      6.821
REMARK  Name = 
REMARK  2 active torsions:
REMARK  status: ('A' for Active; 'I' for Inactive)
REMARK    1  A    between atoms: C_2  and  C_11
REMARK    2  A    between atoms: N_3  and  C_4
REMARK                            x       y       z     vdW  Elec       q    Type
REMARK                         _______ _______ _______ _____ _____    ______ ____
ROOT
ATOM      1  O   UNL     1       2.527   5.222  17.835  0.00  0.00    +0.000 OA
ATOM      2  C   UNL     1       3.487   5.968  17.673  0.00  0.00    +0.000 C 
ATOM      3  N   UNL     1       3.514   7.335  17.898  0.00  0.00    +0.000 N 
ATOM      4  H   UNL     1       4.287   7.858  17.503  0.00  0.00    +0.000 HD
ENDROOT
BRANCH   2   5
ATOM      5  C   UNL     1       4.722   5.385  17.105  0.00  0.00    +0.000 A 
ATOM      6  C   UNL     1       4.832   4.989  15.763  0.00  0.00    +0.000 A 
ATOM      7  C   UNL     1       6.046   4.463  15.271  0.00  0.00    +0.000 A 
ATOM      8  C   UNL     1       7.162   4.325  16.107  0.00  0.00    +0.000 A 
ATOM      9  C   UNL     1       7.032   4.727  17.417  0.00  0.00    +0.000 A 
ATOM     10  O   UNL     1       8.024   4.682  18.384  0.00  0.00    +0.000 OA
ATOM     11  C   UNL     1       7.379   5.228  19.506  0.00  0.00    +0.000 A 
ATOM     12  O   UNL     1       7.918   5.384  20.589  0.00  0.00    +0.000 OA
ATOM     13  N   UNL     1       6.079   5.552  19.211  0.00  0.00    +0.000 N 
ATOM     14  C   UNL     1       5.848   5.247  17.895  0.00  0.00    +0.000 A 
ATOM     15  H   UNL     1       5.428   6.003  19.839  0.00  0.00    +0.000 HD
ENDBRANCH   2   5
BRANCH   3  16
ATOM     16  C   UNL     1       2.443   8.099  18.413  0.00  0.00    +0.000 A 
ATOM     17  C   UNL     1       1.706   8.997  17.636  0.00  0.00    +0.000 A 
ATOM     18  C   UNL     1       0.703   9.782  18.208  0.00  0.00    +0.000 A 
ATOM     19  C   UNL     1       0.424   9.671  19.567  0.00  0.00    +0.000 A 
ATOM     20  C   UNL     1       1.131   8.752  20.339  0.00  0.00    +0.000 A 
ATOM     21 CL   UNL     1       0.794   8.620  22.022  0.00  0.00    +0.000 Cl
ATOM     22  C   UNL     1       2.125   7.954  19.767  0.00  0.00    +0.000 A 
ENDBRANCH   3  16
TORSDOF 2
ENDMDL
MODEL 3
REMARK VINA RESULT:      -7.4      1.136      1.385
REMARK  Name = 
REMARK  2 active torsions:
REMARK  status: ('A' for Active; 'I' for Inactive)
REMARK    1  A    between atoms: C_2  and  C_11
REMARK    2  A    between atoms: N_3  and  C_4
REMARK                            x       y       z     vdW  Elec       q    Type
REMARK                         _______ _______ _______ _____ _____    ______ ____
ROOT
ATOM      1  O   UNL     1       4.729   6.117  17.762  0.00  0.00    +0.000 OA
ATOM      2  C   UNL     1       4.372   4.943  17.750  0.00  0.00    +0.000 C 
ATOM      3  N   UNL     1       4.715   3.989  16.805  0.00  0.00    +0.000 N 
ATOM      4  H   UNL     1       4.168   3.136  16.784  0.00  0.00    +0.000 HD
ENDROOT
BRANCH   2   5
ATOM      5  C   UNL     1       3.417   4.504  18.791  0.00  0.00    +0.000 A 
ATOM      6  C   UNL     1       2.115   5.015  18.896  0.00  0.00    +0.000 A 
ATOM      7  C   UNL     1       1.239   4.538  19.895  0.00  0.00    +0.000 A 
ATOM      8  C   UNL     1       1.649   3.549  20.800  0.00  0.00    +0.000 A 
ATOM      9  C   UNL     1       2.929   3.058  20.671  0.00  0.00    +0.000 A 
ATOM     10  O   UNL     1       3.505   2.074  21.458  0.00  0.00    +0.000 OA
ATOM     11  C   UNL     1       4.782   1.938  20.889  0.00  0.00    +0.000 A 
ATOM     12  O   UNL     1       5.620   1.147  21.286  0.00  0.00    +0.000 OA
ATOM     13  N   UNL     1       4.944   2.812  19.843  0.00  0.00    +0.000 N 
ATOM     14  C   UNL     1       3.781   3.520  19.691  0.00  0.00    +0.000 A 
ATOM     15  H   UNL     1       5.758   2.869  19.247  0.00  0.00    +0.000 HD
ENDBRANCH   2   5
BRANCH   3  16
ATOM     16  C   UNL     1       5.590   4.196  15.716  0.00  0.00    +0.000 A 
ATOM     17  C   UNL     1       6.764   4.948  15.814  0.00  0.00    +0.000 A 
ATOM     18  C   UNL     1       7.559   5.183  14.692  0.00  0.00    +0.000 A 
ATOM     19  C   UNL     1       7.188   4.661  13.456  0.00  0.00    +0.000 A 
ATOM     20  C   UNL     1       6.039   3.880  13.359  0.00  0.00    +0.000 A 
ATOM     21 CL   UNL     1       5.574   3.242  11.829  0.00  0.00    +0.000 Cl
ATOM     22  C   UNL     1       5.249   3.630  14.482  0.00  0.00    +0.000 A 
ENDBRANCH   3  16
TORSDOF 2
ENDMDL
MODEL 4
REMARK VINA RESULT:      -7.4      2.165      3.141
REMARK  Name = 
REMARK  2 active torsions:
REMARK  status: ('A' for Active; 'I' for Inactive)
REMARK    1  A    between atoms: C_2  and  C_11
REMARK    2  A    between atoms: N_3  and  C_4
REMARK                            x       y       z     vdW  Elec       q    Type
REMARK                         _______ _______ _______ _____ _____    ______ ____
ROOT
ATOM      1  O   UNL     1       6.109   4.079  19.097  0.00  0.00    +0.000 OA
ATOM      2  C   UNL     1       4.977   4.012  18.627  0.00  0.00    +0.000 C 
ATOM      3  N   UNL     1       4.631   4.158  17.292  0.00  0.00    +0.000 N 
ATOM      4  H   UNL     1       3.653   4.314  17.078  0.00  0.00    +0.000 HD
ENDROOT
BRANCH   2   5
ATOM      5  C   UNL     1       3.850   3.842  19.569  0.00  0.00    +0.000 A 
ATOM      6  C   UNL     1       3.547   2.618  20.183  0.00  0.00    +0.000 A 
ATOM      7  C   UNL     1       2.473   2.522  21.094  0.00  0.00    +0.000 A 
ATOM      8  C   UNL     1       1.689   3.642  21.403  0.00  0.00    +0.000 A 
ATOM      9  C   UNL     1       2.010   4.834  20.792  0.00  0.00    +0.000 A 
ATOM     10  O   UNL     1       1.364   6.045  20.982  0.00  0.00    +0.000 OA
ATOM     11  C   UNL     1       2.100   6.914  20.160  0.00  0.00    +0.000 A 
ATOM     12  O   UNL     1       1.862   8.105  20.048  0.00  0.00    +0.000 OA
ATOM     13  N   UNL     1       3.105   6.239  19.514  0.00  0.00    +0.000 N 
ATOM     14  C   UNL     1       3.064   4.927  19.908  0.00  0.00    +0.000 A 
ATOM     15  H   UNL     1       3.797   6.656  18.907  0.00  0.00    +0.000 HD
ENDBRANCH   2   5
BRANCH   3  16
ATOM     16  C   UNL     1       5.541   4.352  16.229  0.00  0.00    +0.000 A 
ATOM     17  C   UNL     1       6.703   5.118  16.352  0.00  0.00    +0.000 A 
ATOM     18  C   UNL     1       7.534   5.339  15.253  0.00  0.00    +0.000 A 
ATOM     19  C   UNL     1       7.210   4.789  14.015  0.00  0.00    +0.000 A 
ATOM     20  C   UNL     1       6.072   3.995  13.895  0.00  0.00    +0.000 A 
ATOM     21 CL   UNL     1       5.665   3.322  12.364  0.00  0.00    +0.000 Cl
ATOM     22  C   UNL     1       5.247   3.759  14.997  0.00  0.00    +0.000 A 
ENDBRANCH   3  16
TORSDOF 2
ENDMDL
MODEL 5
REMARK VINA RESULT:      -7.3      5.055      7.357
REMARK  Name = 
REMARK  2 active torsions:
REMARK  status: ('A' for Active; 'I' for Inactive)
REMARK    1  A    between atoms: C_2  and  C_11
REMARK    2  A    between atoms: N_3  and  C_4
REMARK                            x       y       z     vdW  Elec       q    Type
REMARK                         _______ _______ _______ _____ _____    ______ ____
ROOT
ATOM      1  O   UNL     1       2.142   7.508  19.706  0.00  0.00    +0.000 OA
ATOM      2  C   UNL     1       2.406   7.626  18.514  0.00  0.00    +0.000 C 
ATOM      3  N   UNL     1       1.958   8.628  17.668  0.00  0.00    +0.000 N 
ATOM      4  H   UNL     1       2.056   8.476  16.671  0.00  0.00    +0.000 HD
ENDROOT
BRANCH   2   5
ATOM      5  C   UNL     1       3.212   6.561  17.878  0.00  0.00    +0.000 A 
ATOM      6  C   UNL     1       4.447   6.806  17.258  0.00  0.00    +0.000 A 
ATOM      7  C   UNL     1       5.184   5.744  16.690  0.00  0.00    +0.000 A 
ATOM      8  C   UNL     1       4.701   4.429  16.734  0.00  0.00    +0.000 A 
ATOM      9  C   UNL     1       3.491   4.213  17.354  0.00  0.00    +0.000 A 
ATOM     10  O   UNL     1       2.863   2.988  17.507  0.00  0.00    +0.000 OA
ATOM     11  C   UNL     1       1.702   3.328  18.221  0.00  0.00    +0.000 A 
ATOM     12  O   UNL     1       0.864   2.518  18.578  0.00  0.00    +0.000 OA
ATOM     13  N   UNL     1       1.650   4.680  18.450  0.00  0.00    +0.000 N 
ATOM     14  C   UNL     1       2.775   5.250  17.913  0.00  0.00    +0.000 A 
ATOM     15  H   UNL     1       0.938   5.159  18.983  0.00  0.00    +0.000 HD
ENDBRANCH   2   5
BRANCH   3  16
ATOM     16  C   UNL     1       1.159   9.727  18.055  0.00  0.00    +0.000 A 
ATOM     17  C   UNL     1       1.687  10.886  18.631  0.00  0.00    +0.000 A 
ATOM     18  C   UNL     1       0.850  11.916  19.062  0.00  0.00    +0.000 A 
ATOM     19  C   UNL     1      -0.529  11.798  18.915  0.00  0.00    +0.000 A 
ATOM     20  C   UNL     1      -1.059  10.662  18.308  0.00  0.00    +0.000 A 
ATOM     21 CL   UNL     1      -2.765  10.510  18.134  0.00  0.00    +0.000 Cl
ATOM     22  C   UNL     1      -0.223   9.636  17.862  0.00  0.00    +0.000 A 
ENDBRANCH   3  16
TORSDOF 2
ENDMDL
MODEL 6
REMARK VINA RESULT:      -7.3      5.037      7.304
REMARK  Name = 
REMARK  2 active torsions:
REMARK  status: ('A' for Active; 'I' for Inactive)
REMARK    1  A    between atoms: C_2  and  C_11
REMARK    2  A    between atoms: N_3  and  C_4
REMARK                            x       y       z     vdW  Elec       q    Type
REMARK                         _______ _______ _______ _____ _____    ______ ____
ROOT
ATOM      1  O   UNL     1       2.232   7.343  19.684  0.00  0.00    +0.000 OA
ATOM      2  C   UNL     1       2.520   7.464  18.498  0.00  0.00    +0.000 C 
ATOM      3  N   UNL     1       2.183   8.527  17.674  0.00  0.00    +0.000 N 
ATOM      4  H   UNL     1       2.278   8.390  16.674  0.00  0.00    +0.000 HD
ENDROOT
BRANCH   2   5
ATOM      5  C   UNL     1       3.225   6.341  17.843  0.00  0.00    +0.000 A 
ATOM      6  C   UNL     1       4.437   6.498  17.153  0.00  0.00    +0.000 A 
ATOM      7  C   UNL     1       5.076   5.384  16.569  0.00  0.00    +0.000 A 
ATOM      8  C   UNL     1       4.518   4.102  16.664  0.00  0.00    +0.000 A 
ATOM      9  C   UNL     1       3.332   3.972  17.352  0.00  0.00    +0.000 A 
ATOM     10  O   UNL     1       2.641   2.790  17.564  0.00  0.00    +0.000 OA
ATOM     11  C   UNL     1       1.543   3.213  18.330  0.00  0.00    +0.000 A 
ATOM     12  O   UNL     1       0.677   2.462  18.748  0.00  0.00    +0.000 OA
ATOM     13  N   UNL     1       1.585   4.570  18.534  0.00  0.00    +0.000 N 
ATOM     14  C   UNL     1       2.712   5.060  17.927  0.00  0.00    +0.000 A 
ATOM     15  H   UNL     1       0.933   5.100  19.094  0.00  0.00    +0.000 HD
ENDBRANCH   2   5
BRANCH   3  16
ATOM     16  C   UNL     1       1.493   9.689  18.082  0.00  0.00    +0.000 A 
ATOM     17  C   UNL     1       0.112   9.718  18.299  0.00  0.00    +0.000 A 
ATOM     18  C   UNL     1      -0.535  10.909  18.632  0.00  0.00    +0.000 A 
ATOM     19  C   UNL     1       0.197  12.086  18.757  0.00  0.00    +0.000 A 
ATOM     20  C   UNL     1       1.578  12.057  18.577  0.00  0.00    +0.000 A 
ATOM     21 CL   UNL     1       2.484  13.513  18.721  0.00  0.00    +0.000 Cl
ATOM     22  C   UNL     1       2.231  10.864  18.258  0.00  0.00    +0.000 A 
ENDBRANCH   3  16
TORSDOF 2
ENDMDL
MODEL 7
REMARK VINA RESULT:      -7.3      1.559      1.988
REMARK  Name = 
REMARK  2 active torsions:
REMARK  status: ('A' for Active; 'I' for Inactive)
REMARK    1  A    between atoms: C_2  and  C_11
REMARK    2  A    between atoms: N_3  and  C_4
REMARK                            x       y       z     vdW  Elec       q    Type
REMARK                         _______ _______ _______ _____ _____    ______ ____
ROOT
ATOM      1  O   UNL     1       2.809   3.314  16.397  0.00  0.00    +0.000 OA
ATOM      2  C   UNL     1       3.428   3.696  17.385  0.00  0.00    +0.000 C 
ATOM      3  N   UNL     1       4.733   4.164  17.407  0.00  0.00    +0.000 N 
ATOM      4  H   UNL     1       5.193   4.221  18.308  0.00  0.00    +0.000 HD
ENDROOT
BRANCH   2   5
ATOM      5  C   UNL     1       2.765   3.577  18.701  0.00  0.00    +0.000 A 
ATOM      6  C   UNL     1       1.492   4.103  18.965  0.00  0.00    +0.000 A 
ATOM      7  C   UNL     1       0.899   3.936  20.235  0.00  0.00    +0.000 A 
ATOM      8  C   UNL     1       1.565   3.244  21.255  0.00  0.00    +0.000 A 
ATOM      9  C   UNL     1       2.810   2.730  20.970  0.00  0.00    +0.000 A 
ATOM     10  O   UNL     1       3.611   2.007  21.840  0.00  0.00    +0.000 OA
ATOM     11  C   UNL     1       4.730   1.709  21.046  0.00  0.00    +0.000 A 
ATOM     12  O   UNL     1       5.685   1.059  21.438  0.00  0.00    +0.000 OA
ATOM     13  N   UNL     1       4.595   2.247  19.791  0.00  0.00    +0.000 N 
ATOM     14  C   UNL     1       3.386   2.889  19.727  0.00  0.00    +0.000 A 
ATOM     15  H   UNL     1       5.246   2.128  19.028  0.00  0.00    +0.000 HD
ENDBRANCH   2   5
BRANCH   3  16
ATOM     16  C   UNL     1       5.558   4.337  16.274  0.00  0.00    +0.000 A 
ATOM     17  C   UNL     1       6.774   5.025  16.315  0.00  0.00    +0.000 A 
ATOM     18  C   UNL     1       7.520   5.231  15.154  0.00  0.00    +0.000 A 
ATOM     19  C   UNL     1       7.056   4.743  13.935  0.00  0.00    +0.000 A 
ATOM     20  C   UNL     1       5.864   4.024  13.893  0.00  0.00    +0.000 A 
ATOM     21 CL   UNL     1       5.284   3.428  12.386  0.00  0.00    +0.000 Cl
ATOM     22  C   UNL     1       5.122   3.804  15.056  0.00  0.00    +0.000 A 
ENDBRANCH   3  16
TORSDOF 2
ENDMDL
MODEL 8
REMARK VINA RESULT:      -7.2      4.911      7.914
REMARK  Name = 
REMARK  2 active torsions:
REMARK  status: ('A' for Active; 'I' for Inactive)
REMARK    1  A    between atoms: C_2  and  C_11
REMARK    2  A    between atoms: N_3  and  C_4
REMARK                            x       y       z     vdW  Elec       q    Type
REMARK                         _______ _______ _______ _____ _____    ______ ____
ROOT
ATOM      1  O   UNL     1       2.535   7.491  19.410  0.00  0.00    +0.000 OA
ATOM      2  C   UNL     1       1.877   6.812  20.192  0.00  0.00    +0.000 C 
ATOM      3  N   UNL     1       0.969   7.283  21.127  0.00  0.00    +0.000 N 
ATOM      4  H   UNL     1       0.678   6.643  21.858  0.00  0.00    +0.000 HD
ENDROOT
BRANCH   2   5
ATOM      5  C   UNL     1       2.122   5.354  20.210  0.00  0.00    +0.000 A 
ATOM      6  C   UNL     1       1.135   4.419  20.559  0.00  0.00    +0.000 A 
ATOM      7  C   UNL     1       1.420   3.036  20.534  0.00  0.00    +0.000 A 
ATOM      8  C   UNL     1       2.689   2.570  20.163  0.00  0.00    +0.000 A 
ATOM      9  C   UNL     1       3.638   3.506  19.819  0.00  0.00    +0.000 A 
ATOM     10  O   UNL     1       4.935   3.238  19.413  0.00  0.00    +0.000 OA
ATOM     11  C   UNL     1       5.447   4.521  19.163  0.00  0.00    +0.000 A 
ATOM     12  O   UNL     1       6.580   4.734  18.764  0.00  0.00    +0.000 OA
ATOM     13  N   UNL     1       4.504   5.482  19.428  0.00  0.00    +0.000 N 
ATOM     14  C   UNL     1       3.356   4.855  19.837  0.00  0.00    +0.000 A 
ATOM     15  H   UNL     1       4.618   6.475  19.279  0.00  0.00    +0.000 HD
ENDBRANCH   2   5
BRANCH   3  16
ATOM     16  C   UNL     1       0.601   8.636  21.300  0.00  0.00    +0.000 A 
ATOM     17  C   UNL     1       0.128   9.147  22.512  0.00  0.00    +0.000 A 
ATOM     18  C   UNL     1      -0.291  10.475  22.613  0.00  0.00    +0.000 A 
ATOM     19  C   UNL     1      -0.233  11.309  21.499  0.00  0.00    +0.000 A 
ATOM     20  C   UNL     1       0.273  10.815  20.299  0.00  0.00    +0.000 A 
ATOM     21 CL   UNL     1       0.337  11.841  18.919  0.00  0.00    +0.000 Cl
ATOM     22  C   UNL     1       0.706   9.491  20.198  0.00  0.00    +0.000 A 
ENDBRANCH   3  16
TORSDOF 2
ENDMDL
MODEL 9
REMARK VINA RESULT:      -7.2      5.063      7.300
REMARK  Name = 
REMARK  2 active torsions:
REMARK  status: ('A' for Active; 'I' for Inactive)
REMARK    1  A    between atoms: C_2  and  C_11
REMARK    2  A    between atoms: N_3  and  C_4
REMARK                            x       y       z     vdW  Elec       q    Type
REMARK                         _______ _______ _______ _____ _____    ______ ____
ROOT
ATOM      1  O   UNL     1       1.831   7.889  20.354  0.00  0.00    +0.000 OA
ATOM      2  C   UNL     1       2.189   7.786  19.185  0.00  0.00    +0.000 C 
ATOM      3  N   UNL     1       1.881   8.658  18.151  0.00  0.00    +0.000 N 
ATOM      4  H   UNL     1       2.039   8.332  17.204  0.00  0.00    +0.000 HD
ENDROOT
BRANCH   2   5
ATOM      5  C   UNL     1       2.955   6.581  18.803  0.00  0.00    +0.000 A 
ATOM      6  C   UNL     1       3.795   6.534  17.680  0.00  0.00    +0.000 A 
ATOM      7  C   UNL     1       4.522   5.362  17.379  0.00  0.00    +0.000 A 
ATOM      8  C   UNL     1       4.421   4.225  18.192  0.00  0.00    +0.000 A 
ATOM      9  C   UNL     1       3.596   4.297  19.291  0.00  0.00    +0.000 A 
ATOM     10  O   UNL     1       3.380   3.286  20.214  0.00  0.00    +0.000 OA
ATOM     11  C   UNL     1       2.497   3.889  21.124  0.00  0.00    +0.000 A 
ATOM     12  O   UNL     1       2.061   3.330  22.117  0.00  0.00    +0.000 OA
ATOM     13  N   UNL     1       2.200   5.172  20.739  0.00  0.00    +0.000 N 
ATOM     14  C   UNL     1       2.891   5.444  19.587  0.00  0.00    +0.000 A 
ATOM     15  H   UNL     1       1.626   5.823  21.256  0.00  0.00    +0.000 HD
ENDBRANCH   2   5
BRANCH   3  16
ATOM     16  C   UNL     1       1.143   9.854  18.284  0.00  0.00    +0.000 A 
ATOM     17  C   UNL     1       1.737  11.087  18.570  0.00  0.00    +0.000 A 
ATOM     18  C   UNL     1       0.958  12.229  18.763  0.00  0.00    +0.000 A 
ATOM     19  C   UNL     1      -0.429  12.149  18.665  0.00  0.00    +0.000 A 
ATOM     20  C   UNL     1      -1.024  10.931  18.344  0.00  0.00    +0.000 A 
ATOM     21 CL   UNL     1      -2.739  10.828  18.232  0.00  0.00    +0.000 Cl
ATOM     22  C   UNL     1      -0.247   9.790  18.136  0.00  0.00    +0.000 A 
ENDBRANCH   3  16
TORSDOF 2
ENDMDL
