MODEL 1
REMARK VINA RESULT:      -8.2      0.000      0.000
REMARK  Name = 
REMARK  5 active torsions:
REMARK  status: ('A' for Active; 'I' for Inactive)
REMARK    1  A    between atoms: C_1  and  C_2
REMARK    2  A    between atoms: C_4  and  N_5
REMARK    3  A    between atoms: N_12  and  C_13
REMARK    4  A    between atoms: C_16  and  N_17
REMARK    5  A    between atoms: C_18  and  C_20
REMARK                            x       y       z     vdW  Elec       q    Type
REMARK                         _______ _______ _______ _____ _____    ______ ____
ROOT
ATOM      1  C   UNL     1       1.487   8.784  19.797  0.00  0.00    +0.000 A 
ATOM      2  C   UNL     1       1.948   7.533  20.214  0.00  0.00    +0.000 A 
ATOM      3  C   UNL     1       2.738   6.735  19.379  0.00  0.00    +0.000 A 
ATOM      4  C   UNL     1       3.075   7.164  18.095  0.00  0.00    +0.000 A 
ATOM      5  C   UNL     1       2.649   8.421  17.678  0.00  0.00    +0.000 A 
ATOM      6  C   UNL     1       1.847   9.207  18.512  0.00  0.00    +0.000 A 
ENDROOT
BRANCH   1  13
ATOM      7  C   UNL     1      -2.080  13.034  22.256  0.00  0.00    +0.000 C 
ATOM      8  C   UNL     1      -1.705  12.096  21.152  0.00  0.00    +0.000 A 
ATOM      9  C   UNL     1      -2.360  12.143  19.939  0.00  0.00    +0.000 A 
ATOM     10  C   UNL     1      -2.019  11.208  18.989  0.00  0.00    +0.000 A 
ATOM     11  N   UNL     1      -1.051  10.318  19.248  0.00  0.00    +0.000 NA
ATOM     12  C   UNL     1      -0.407  10.364  20.421  0.00  0.00    +0.000 A 
ATOM     13  N   UNL     1       0.683   9.530  20.669  0.00  0.00    +0.000 N 
ATOM     14  N   UNL     1      -0.719  11.215  21.404  0.00  0.00    +0.000 NA
ATOM     15  H   UNL     1       1.080   9.777  21.562  0.00  0.00    +0.000 HD
BRANCH  10  16
ATOM     16  N   UNL     1      -2.681  11.108  17.795  0.00  0.00    +0.000 N 
ATOM     17  C   UNL     1      -2.277  10.295  16.668  0.00  0.00    +0.000 C 
ATOM     18  C   UNL     1      -3.073  10.932  15.538  0.00  0.00    +0.000 C 
ATOM     19  C   UNL     1      -4.408  11.275  16.192  0.00  0.00    +0.000 C 
ATOM     20  C   UNL     1      -4.077  11.516  17.672  0.00  0.00    +0.000 C 
ENDBRANCH  10  16
ENDBRANCH   1  13
BRANCH   4  21
ATOM     21  N   UNL     1       3.802   6.384  17.179  0.00  0.00    +0.000 N 
ATOM     22  C   UNL     1       5.155   6.494  16.904  0.00  0.00    +0.000 C 
ATOM     23  O   UNL     1       5.915   7.316  17.406  0.00  0.00    +0.000 OA
ATOM     24  H   UNL     1       3.339   5.581  16.768  0.00  0.00    +0.000 HD
BRANCH  22  25
ATOM     25  C   UNL     1       5.640   5.492  15.976  0.00  0.00    +0.000 A 
ATOM     26  C   UNL     1       5.295   4.161  15.851  0.00  0.00    +0.000 A 
ATOM     27  C   UNL     1       6.062   3.642  14.786  0.00  0.00    +0.000 A 
ATOM     28  C   UNL     1       6.828   4.686  14.323  0.00  0.00    +0.000 A 
ATOM     29  O   UNL     1       6.580   5.817  15.035  0.00  0.00    +0.000 OA
ENDBRANCH  22  25
ENDBRANCH   4  21
TORSDOF 4
ENDMDL
MODEL 2
REMARK VINA RESULT:      -8.0      3.755      9.488
REMARK  Name = 
REMARK  5 active torsions:
REMARK  status: ('A' for Active; 'I' for Inactive)
REMARK    1  A    between atoms: C_1  and  C_2
REMARK    2  A    between atoms: C_4  and  N_5
REMARK    3  A    between atoms: N_12  and  C_13
REMARK    4  A    between atoms: C_16  and  N_17
REMARK    5  A    between atoms: C_18  and  C_20
REMARK                            x       y       z     vdW  Elec       q    Type
REMARK                         _______ _______ _______ _____ _____    ______ ____
ROOT
ATOM      1  C   UNL     1       1.472   9.492  18.723  0.00  0.00    +0.000 A 
ATOM      2  C   UNL     1       1.257   8.973  20.002  0.00  0.00    +0.000 A 
ATOM      3  C   UNL     1       0.332   9.554  20.876  0.00  0.00    +0.000 A 
ATOM      4  C   UNL     1      -0.393  10.684  20.497  0.00  0.00    +0.000 A 
ATOM      5  C   UNL     1      -0.212  11.194  19.215  0.00  0.00    +0.000 A 
ATOM      6  C   UNL     1       0.725  10.616  18.352  0.00  0.00    +0.000 A 
ENDROOT
BRANCH   1  13
ATOM      7  C   UNL     1       5.856   5.919  16.522  0.00  0.00    +0.000 C 
ATOM      8  C   UNL     1       4.570   6.140  17.256  0.00  0.00    +0.000 A 
ATOM      9  C   UNL     1       3.954   5.100  17.921  0.00  0.00    +0.000 A 
ATOM     10  C   UNL     1       2.738   5.349  18.515  0.00  0.00    +0.000 A 
ATOM     11  N   UNL     1       2.213   6.580  18.466  0.00  0.00    +0.000 NA
ATOM     12  C   UNL     1       2.889   7.564  17.860  0.00  0.00    +0.000 A 
ATOM     13  N   UNL     1       2.424   8.878  17.899  0.00  0.00    +0.000 N 
ATOM     14  N   UNL     1       4.052   7.381  17.224  0.00  0.00    +0.000 NA
ATOM     15  H   UNL     1       3.112   9.476  17.467  0.00  0.00    +0.000 HD
BRANCH  10  16
ATOM     16  N   UNL     1       2.002   4.359  19.109  0.00  0.00    +0.000 N 
ATOM     17  C   UNL     1       1.407   4.421  20.426  0.00  0.00    +0.000 C 
ATOM     18  C   UNL     1       1.157   2.948  20.713  0.00  0.00    +0.000 C 
ATOM     19  C   UNL     1       0.720   2.392  19.361  0.00  0.00    +0.000 C 
ATOM     20  C   UNL     1       1.415   3.281  18.320  0.00  0.00    +0.000 C 
ENDBRANCH  10  16
ENDBRANCH   1  13
BRANCH   4  21
ATOM     21  N   UNL     1      -1.281  11.362  21.349  0.00  0.00    +0.000 N 
ATOM     22  C   UNL     1      -1.234  11.378  22.734  0.00  0.00    +0.000 C 
ATOM     23  O   UNL     1      -0.418  10.771  23.421  0.00  0.00    +0.000 OA
ATOM     24  H   UNL     1      -1.943  12.005  20.930  0.00  0.00    +0.000 HD
BRANCH  22  25
ATOM     25  C   UNL     1      -2.232  12.238  23.337  0.00  0.00    +0.000 A 
ATOM     26  C   UNL     1      -2.220  13.604  23.534  0.00  0.00    +0.000 A 
ATOM     27  C   UNL     1      -3.442  13.934  24.160  0.00  0.00    +0.000 A 
ATOM     28  C   UNL     1      -4.128  12.751  24.306  0.00  0.00    +0.000 A 
ATOM     29  O   UNL     1      -3.406  11.712  23.808  0.00  0.00    +0.000 OA
ENDBRANCH  22  25
ENDBRANCH   4  21
TORSDOF 4
ENDMDL
MODEL 3
REMARK VINA RESULT:      -8.0      3.828      9.682
REMARK  Name = 
REMARK  5 active torsions:
REMARK  status: ('A' for Active; 'I' for Inactive)
REMARK    1  A    between atoms: C_1  and  C_2
REMARK    2  A    between atoms: C_4  and  N_5
REMARK    3  A    between atoms: N_12  and  C_13
REMARK    4  A    between atoms: C_16  and  N_17
REMARK    5  A    between atoms: C_18  and  C_20
REMARK                            x       y       z     vdW  Elec       q    Type
REMARK                         _______ _______ _______ _____ _____    ______ ____
ROOT
ATOM      1  C   UNL     1       1.376   9.385  18.964  0.00  0.00    +0.000 A 
ATOM      2  C   UNL     1       0.537  10.422  18.550  0.00  0.00    +0.000 A 
ATOM      3  C   UNL     1      -0.327  11.059  19.446  0.00  0.00    +0.000 A 
ATOM      4  C   UNL     1      -0.386  10.661  20.782  0.00  0.00    +0.000 A 
ATOM      5  C   UNL     1       0.465   9.650  21.216  0.00  0.00    +0.000 A 
ATOM      6  C   UNL     1       1.317   9.008  20.311  0.00  0.00    +0.000 A 
ENDROOT
BRANCH   1  13
ATOM      7  C   UNL     1       5.572   5.964  16.219  0.00  0.00    +0.000 C 
ATOM      8  C   UNL     1       4.432   6.154  17.171  0.00  0.00    +0.000 A 
ATOM      9  C   UNL     1       4.049   5.135  18.018  0.00  0.00    +0.000 A 
ATOM     10  C   UNL     1       2.949   5.345  18.818  0.00  0.00    +0.000 A 
ATOM     11  N   UNL     1       2.316   6.525  18.782  0.00  0.00    +0.000 NA
ATOM     12  C   UNL     1       2.773   7.498  17.984  0.00  0.00    +0.000 A 
ATOM     13  N   UNL     1       2.207   8.772  18.017  0.00  0.00    +0.000 N 
ATOM     14  N   UNL     1       3.807   7.346  17.149  0.00  0.00    +0.000 NA
ATOM     15  H   UNL     1       2.744   9.378  17.416  0.00  0.00    +0.000 HD
BRANCH  10  16
ATOM     16  N   UNL     1       2.431   4.361  19.616  0.00  0.00    +0.000 N 
ATOM     17  C   UNL     1       2.316   2.961  19.267  0.00  0.00    +0.000 C 
ATOM     18  C   UNL     1       1.286   2.483  20.280  0.00  0.00    +0.000 C 
ATOM     19  C   UNL     1       1.653   3.248  21.548  0.00  0.00    +0.000 C 
ATOM     20  C   UNL     1       2.292   4.554  21.056  0.00  0.00    +0.000 C 
ENDBRANCH  10  16
ENDBRANCH   1  13
BRANCH   4  21
ATOM     21  N   UNL     1      -1.283  11.205  21.717  0.00  0.00    +0.000 N 
ATOM     22  C   UNL     1      -1.089  12.357  22.462  0.00  0.00    +0.000 C 
ATOM     23  O   UNL     1      -0.082  13.058  22.432  0.00  0.00    +0.000 OA
ATOM     24  H   UNL     1      -2.213  10.805  21.772  0.00  0.00    +0.000 HD
BRANCH  22  25
ATOM     25  C   UNL     1      -2.229  12.717  23.280  0.00  0.00    +0.000 A 
ATOM     26  C   UNL     1      -2.578  13.937  23.826  0.00  0.00    +0.000 A 
ATOM     27  C   UNL     1      -3.785  13.737  24.530  0.00  0.00    +0.000 A 
ATOM     28  C   UNL     1      -4.103  12.408  24.372  0.00  0.00    +0.000 A 
ATOM     29  O   UNL     1      -3.168  11.776  23.612  0.00  0.00    +0.000 OA
ENDBRANCH  22  25
ENDBRANCH   4  21
TORSDOF 4
ENDMDL
MODEL 4
REMARK VINA RESULT:      -8.0      3.738      9.589
REMARK  Name = 
REMARK  5 active torsions:
REMARK  status: ('A' for Active; 'I' for Inactive)
REMARK    1  A    between atoms: C_1  and  C_2
REMARK    2  A    between atoms: C_4  and  N_5
REMARK    3  A    between atoms: N_12  and  C_13
REMARK    4  A    between atoms: C_16  and  N_17
REMARK    5  A    between atoms: C_18  and  C_20
REMARK                            x       y       z     vdW  Elec       q    Type
REMARK                         _______ _______ _______ _____ _____    ______ ____
ROOT
ATOM      1  C   UNL     1       1.208   9.858  18.722  0.00  0.00    +0.000 A 
ATOM      2  C   UNL     1      -0.127  10.013  18.342  0.00  0.00    +0.000 A 
ATOM      3  C   UNL     1      -1.052  10.642  19.182  0.00  0.00    +0.000 A 
ATOM      4  C   UNL     1      -0.666  11.120  20.435  0.00  0.00    +0.000 A 
ATOM      5  C   UNL     1       0.667  10.999  20.814  0.00  0.00    +0.000 A 
ATOM      6  C   UNL     1       1.583  10.356  19.975  0.00  0.00    +0.000 A 
ENDROOT
BRANCH   1  13
ATOM      7  C   UNL     1       5.540   6.327  16.352  0.00  0.00    +0.000 C 
ATOM      8  C   UNL     1       4.356   6.558  17.240  0.00  0.00    +0.000 A 
ATOM      9  C   UNL     1       3.938   5.581  18.120  0.00  0.00    +0.000 A 
ATOM     10  C   UNL     1       2.801   5.825  18.856  0.00  0.00    +0.000 A 
ATOM     11  N   UNL     1       2.166   6.998  18.731  0.00  0.00    +0.000 NA
ATOM     12  C   UNL     1       2.657   7.932  17.906  0.00  0.00    +0.000 A 
ATOM     13  N   UNL     1       2.085   9.203  17.847  0.00  0.00    +0.000 N 
ATOM     14  N   UNL     1       3.728   7.743  17.129  0.00  0.00    +0.000 NA
ATOM     15  H   UNL     1       2.648   9.780  17.242  0.00  0.00    +0.000 HD
BRANCH  10  16
ATOM     16  N   UNL     1       2.250   4.880  19.678  0.00  0.00    +0.000 N 
ATOM     17  C   UNL     1       2.186   4.947  21.122  0.00  0.00    +0.000 C 
ATOM     18  C   UNL     1       1.930   3.491  21.480  0.00  0.00    +0.000 C 
ATOM     19  C   UNL     1       0.982   3.016  20.383  0.00  0.00    +0.000 C 
ATOM     20  C   UNL     1       1.323   3.879  19.160  0.00  0.00    +0.000 C 
ENDBRANCH  10  16
ENDBRANCH   1  13
BRANCH   4  21
ATOM     21  N   UNL     1      -1.557  11.694  21.357  0.00  0.00    +0.000 N 
ATOM     22  C   UNL     1      -1.553  11.499  22.729  0.00  0.00    +0.000 C 
ATOM     23  O   UNL     1      -0.778  10.766  23.337  0.00  0.00    +0.000 OA
ATOM     24  H   UNL     1      -2.186  12.416  21.024  0.00  0.00    +0.000 HD
BRANCH  22  25
ATOM     25  C   UNL     1      -2.540  12.294  23.430  0.00  0.00    +0.000 A 
ATOM     26  C   UNL     1      -2.577  13.655  23.665  0.00  0.00    +0.000 A 
ATOM     27  C   UNL     1      -3.761  13.910  24.390  0.00  0.00    +0.000 A 
ATOM     28  C   UNL     1      -4.378  12.691  24.554  0.00  0.00    +0.000 A 
ATOM     29  O   UNL     1      -3.649  11.701  23.973  0.00  0.00    +0.000 OA
ENDBRANCH  22  25
ENDBRANCH   4  21
TORSDOF 4
ENDMDL
MODEL 5
REMARK VINA RESULT:      -7.8      3.544      9.465
REMARK  Name = 
REMARK  5 active torsions:
REMARK  status: ('A' for Active; 'I' for Inactive)
REMARK    1  A    between atoms: C_1  and  C_2
REMARK    2  A    between atoms: C_4  and  N_5
REMARK    3  A    between atoms: N_12  and  C_13
REMARK    4  A    between atoms: C_16  and  N_17
REMARK    5  A    between atoms: C_18  and  C_20
REMARK                            x       y       z     vdW  Elec       q    Type
REMARK                         _______ _______ _______ _____ _____    ______ ____
ROOT
ATOM      1  C   UNL     1       1.899   8.890  18.430  0.00  0.00    +0.000 A 
ATOM      2  C   UNL     1       1.798   8.507  19.769  0.00  0.00    +0.000 A 
ATOM      3  C   UNL     1       0.832   9.065  20.613  0.00  0.00    +0.000 A 
ATOM      4  C   UNL     1      -0.051  10.036  20.140  0.00  0.00    +0.000 A 
ATOM      5  C   UNL     1       0.018  10.404  18.800  0.00  0.00    +0.000 A 
ATOM      6  C   UNL     1       0.995   9.853  17.966  0.00  0.00    +0.000 A 
ENDROOT
BRANCH   1  13
ATOM      7  C   UNL     1       6.442   5.438  16.360  0.00  0.00    +0.000 C 
ATOM      8  C   UNL     1       5.121   5.622  17.038  0.00  0.00    +0.000 A 
ATOM      9  C   UNL     1       4.494   4.558  17.654  0.00  0.00    +0.000 A 
ATOM     10  C   UNL     1       3.248   4.774  18.196  0.00  0.00    +0.000 A 
ATOM     11  N   UNL     1       2.704   5.997  18.148  0.00  0.00    +0.000 NA
ATOM     12  C   UNL     1       3.389   7.005  17.593  0.00  0.00    +0.000 A 
ATOM     13  N   UNL     1       2.899   8.310  17.637  0.00  0.00    +0.000 N 
ATOM     14  N   UNL     1       4.582   6.855  17.007  0.00  0.00    +0.000 NA
ATOM     15  H   UNL     1       3.595   8.928  17.249  0.00  0.00    +0.000 HD
BRANCH  10  16
ATOM     16  N   UNL     1       2.504   3.760  18.737  0.00  0.00    +0.000 N 
ATOM     17  C   UNL     1       2.066   2.568  18.043  0.00  0.00    +0.000 C 
ATOM     18  C   UNL     1       0.942   2.088  18.948  0.00  0.00    +0.000 C 
ATOM     19  C   UNL     1       1.464   2.385  20.351  0.00  0.00    +0.000 C 
ATOM     20  C   UNL     1       2.398   3.591  20.182  0.00  0.00    +0.000 C 
ENDBRANCH  10  16
ENDBRANCH   1  13
BRANCH   4  21
ATOM     21  N   UNL     1      -0.994  10.691  20.949  0.00  0.00    +0.000 N 
ATOM     22  C   UNL     1      -0.757  11.794  21.753  0.00  0.00    +0.000 C 
ATOM     23  O   UNL     1       0.330  12.345  21.896  0.00  0.00    +0.000 OA
ATOM     24  H   UNL     1      -1.968  10.426  20.852  0.00  0.00    +0.000 HD
BRANCH  22  25
ATOM     25  C   UNL     1      -1.948  12.303  22.404  0.00  0.00    +0.000 A 
ATOM     26  C   UNL     1      -2.719  13.408  22.101  0.00  0.00    +0.000 A 
ATOM     27  C   UNL     1      -3.765  13.445  23.048  0.00  0.00    +0.000 A 
ATOM     28  C   UNL     1      -3.572  12.360  23.872  0.00  0.00    +0.000 A 
ATOM     29  O   UNL     1      -2.473  11.655  23.490  0.00  0.00    +0.000 OA
ENDBRANCH  22  25
ENDBRANCH   4  21
TORSDOF 4
ENDMDL
MODEL 6
REMARK VINA RESULT:      -7.8      0.607      1.342
REMARK  Name = 
REMARK  5 active torsions:
REMARK  status: ('A' for Active; 'I' for Inactive)
REMARK    1  A    between atoms: C_1  and  C_2
REMARK    2  A    between atoms: C_4  and  N_5
REMARK    3  A    between atoms: N_12  and  C_13
REMARK    4  A    between atoms: C_16  and  N_17
REMARK    5  A    between atoms: C_18  and  C_20
REMARK                            x       y       z     vdW  Elec       q    Type
REMARK                         _______ _______ _______ _____ _____    ______ ____
ROOT
ATOM      1  C   UNL     1       1.783   8.326  19.889  0.00  0.00    +0.000 A 
ATOM      2  C   UNL     1       1.992   8.908  18.637  0.00  0.00    +0.000 A 
ATOM      3  C   UNL     1       2.697   8.237  17.633  0.00  0.00    +0.000 A 
ATOM      4  C   UNL     1       3.227   6.967  17.863  0.00  0.00    +0.000 A 
ATOM      5  C   UNL     1       3.001   6.362  19.095  0.00  0.00    +0.000 A 
ATOM      6  C   UNL     1       2.307   7.046  20.099  0.00  0.00    +0.000 A 
ENDROOT
BRANCH   1  13
ATOM      7  C   UNL     1      -1.386  12.572  22.850  0.00  0.00    +0.000 C 
ATOM      8  C   UNL     1      -1.141  11.683  21.671  0.00  0.00    +0.000 A 
ATOM      9  C   UNL     1      -1.888  11.823  20.520  0.00  0.00    +0.000 A 
ATOM     10  C   UNL     1      -1.665  10.929  19.498  0.00  0.00    +0.000 A 
ATOM     11  N   UNL     1      -0.720   9.989  19.630  0.00  0.00    +0.000 NA
ATOM     12  C   UNL     1       0.016   9.943  20.748  0.00  0.00    +0.000 A 
ATOM     13  N   UNL     1       1.085   9.055  20.862  0.00  0.00    +0.000 N 
ATOM     14  N   UNL     1      -0.179  10.751  21.796  0.00  0.00    +0.000 NA
ATOM     15  H   UNL     1       1.562   9.236  21.731  0.00  0.00    +0.000 HD
BRANCH  10  16
ATOM     16  N   UNL     1      -2.424  10.921  18.359  0.00  0.00    +0.000 N 
ATOM     17  C   UNL     1      -3.549  11.789  18.085  0.00  0.00    +0.000 C 
ATOM     18  C   UNL     1      -4.246  11.034  16.963  0.00  0.00    +0.000 C 
ATOM     19  C   UNL     1      -3.090  10.480  16.136  0.00  0.00    +0.000 C 
ATOM     20  C   UNL     1      -1.938  10.295  17.134  0.00  0.00    +0.000 C 
ENDBRANCH  10  16
ENDBRANCH   1  13
BRANCH   4  21
ATOM     21  N   UNL     1       4.008   6.268  16.926  0.00  0.00    +0.000 N 
ATOM     22  C   UNL     1       5.385   6.344  16.790  0.00  0.00    +0.000 C 
ATOM     23  O   UNL     1       6.123   7.062  17.457  0.00  0.00    +0.000 OA
ATOM     24  H   UNL     1       3.557   5.544  16.378  0.00  0.00    +0.000 HD
BRANCH  22  25
ATOM     25  C   UNL     1       5.919   5.438  15.793  0.00  0.00    +0.000 A 
ATOM     26  C   UNL     1       5.424   4.232  15.337  0.00  0.00    +0.000 A 
ATOM     27  C   UNL     1       6.330   3.766  14.360  0.00  0.00    +0.000 A 
ATOM     28  C   UNL     1       7.322   4.715  14.275  0.00  0.00    +0.000 A 
ATOM     29  O   UNL     1       7.084   5.738  15.139  0.00  0.00    +0.000 OA
ENDBRANCH  22  25
ENDBRANCH   4  21
TORSDOF 4
ENDMDL
MODEL 7
REMARK VINA RESULT:      -7.8      3.552      9.548
REMARK  Name = 
REMARK  5 active torsions:
REMARK  status: ('A' for Active; 'I' for Inactive)
REMARK    1  A    between atoms: C_1  and  C_2
REMARK    2  A    between atoms: C_4  and  N_5
REMARK    3  A    between atoms: N_12  and  C_13
REMARK    4  A    between atoms: C_16  and  N_17
REMARK    5  A    between atoms: C_18  and  C_20
REMARK                            x       y       z     vdW  Elec       q    Type
REMARK                         _______ _______ _______ _____ _____    ______ ____
ROOT
ATOM      1  C   UNL     1       2.227   8.717  18.385  0.00  0.00    +0.000 A 
ATOM      2  C   UNL     1       1.569   9.845  17.887  0.00  0.00    +0.000 A 
ATOM      3  C   UNL     1       0.599  10.512  18.643  0.00  0.00    +0.000 A 
ATOM      4  C   UNL     1       0.250  10.057  19.915  0.00  0.00    +0.000 A 
ATOM      5  C   UNL     1       0.919   8.953  20.436  0.00  0.00    +0.000 A 
ATOM      6  C   UNL     1       1.877   8.283  19.669  0.00  0.00    +0.000 A 
ENDROOT
BRANCH   1  13
ATOM      7  C   UNL     1       6.640   5.117  16.287  0.00  0.00    +0.000 C 
ATOM      8  C   UNL     1       5.363   5.352  17.033  0.00  0.00    +0.000 A 
ATOM      9  C   UNL     1       4.781   4.337  17.763  0.00  0.00    +0.000 A 
ATOM     10  C   UNL     1       3.571   4.593  18.367  0.00  0.00    +0.000 A 
ATOM     11  N   UNL     1       3.021   5.811  18.265  0.00  0.00    +0.000 NA
ATOM     12  C   UNL     1       3.666   6.774  17.595  0.00  0.00    +0.000 A 
ATOM     13  N   UNL     1       3.176   8.079  17.575  0.00  0.00    +0.000 N 
ATOM     14  N   UNL     1       4.820   6.580  16.947  0.00  0.00    +0.000 NA
ATOM     15  H   UNL     1       3.843   8.666  17.100  0.00  0.00    +0.000 HD
BRANCH  10  16
ATOM     16  N   UNL     1       2.866   3.622  19.026  0.00  0.00    +0.000 N 
ATOM     17  C   UNL     1       2.782   2.230  18.643  0.00  0.00    +0.000 C 
ATOM     18  C   UNL     1       1.548   1.780  19.412  0.00  0.00    +0.000 C 
ATOM     19  C   UNL     1       1.665   2.525  20.738  0.00  0.00    +0.000 C 
ATOM     20  C   UNL     1       2.435   3.812  20.407  0.00  0.00    +0.000 C 
ENDBRANCH  10  16
ENDBRANCH   1  13
BRANCH   4  21
ATOM     21  N   UNL     1      -0.766  10.633  20.696  0.00  0.00    +0.000 N 
ATOM     22  C   UNL     1      -0.620  11.695  21.573  0.00  0.00    +0.000 C 
ATOM     23  O   UNL     1       0.436  12.273  21.816  0.00  0.00    +0.000 OA
ATOM     24  H   UNL     1      -1.721  10.343  20.522  0.00  0.00    +0.000 HD
BRANCH  22  25
ATOM     25  C   UNL     1      -1.866  12.127  22.173  0.00  0.00    +0.000 A 
ATOM     26  C   UNL     1      -2.851  12.954  21.670  0.00  0.00    +0.000 A 
ATOM     27  C   UNL     1      -3.853  13.041  22.660  0.00  0.00    +0.000 A 
ATOM     28  C   UNL     1      -3.422  12.261  23.708  0.00  0.00    +0.000 A 
ATOM     29  O   UNL     1      -2.217  11.697  23.425  0.00  0.00    +0.000 OA
ENDBRANCH  22  25
ENDBRANCH   4  21
TORSDOF 4
ENDMDL
MODEL 8
REMARK VINA RESULT:      -7.7      3.535      9.405
REMARK  Name = 
REMARK  5 active torsions:
REMARK  status: ('A' for Active; 'I' for Inactive)
REMARK    1  A    between atoms: C_1  and  C_2
REMARK    2  A    between atoms: C_4  and  N_5
REMARK    3  A    between atoms: N_12  and  C_13
REMARK    4  A    between atoms: C_16  and  N_17
REMARK    5  A    between atoms: C_18  and  C_20
REMARK                            x       y       z     vdW  Elec       q    Type
REMARK                         _______ _______ _______ _____ _____    ______ ____
ROOT
ATOM      1  C   UNL     1       2.245   8.769  18.321  0.00  0.00    +0.000 A 
ATOM      2  C   UNL     1       2.019   8.303  19.618  0.00  0.00    +0.000 A 
ATOM      3  C   UNL     1       0.990   8.826  20.409  0.00  0.00    +0.000 A 
ATOM      4  C   UNL     1       0.168   9.844  19.925  0.00  0.00    +0.000 A 
ATOM      5  C   UNL     1       0.362  10.297  18.623  0.00  0.00    +0.000 A 
ATOM      6  C   UNL     1       1.401   9.779  17.844  0.00  0.00    +0.000 A 
ENDROOT
BRANCH   1  13
ATOM      7  C   UNL     1       6.920   5.381  16.449  0.00  0.00    +0.000 C 
ATOM      8  C   UNL     1       5.548   5.544  17.026  0.00  0.00    +0.000 A 
ATOM      9  C   UNL     1       4.866   4.456  17.530  0.00  0.00    +0.000 A 
ATOM     10  C   UNL     1       3.581   4.657  17.980  0.00  0.00    +0.000 A 
ATOM     11  N   UNL     1       3.051   5.887  17.953  0.00  0.00    +0.000 NA
ATOM     12  C   UNL     1       3.786   6.915  17.510  0.00  0.00    +0.000 A 
ATOM     13  N   UNL     1       3.303   8.221  17.583  0.00  0.00    +0.000 N 
ATOM     14  N   UNL     1       5.022   6.783  17.017  0.00  0.00    +0.000 NA
ATOM     15  H   UNL     1       4.032   8.851  17.287  0.00  0.00    +0.000 HD
BRANCH  10  16
ATOM     16  N   UNL     1       2.789   3.624  18.403  0.00  0.00    +0.000 N 
ATOM     17  C   UNL     1       3.170   2.595  19.347  0.00  0.00    +0.000 C 
ATOM     18  C   UNL     1       2.127   1.525  19.063  0.00  0.00    +0.000 C 
ATOM     19  C   UNL     1       0.856   2.328  18.803  0.00  0.00    +0.000 C 
ATOM     20  C   UNL     1       1.340   3.670  18.238  0.00  0.00    +0.000 C 
ENDBRANCH  10  16
ENDBRANCH   1  13
BRANCH   4  21
ATOM     21  N   UNL     1      -0.834  10.465  20.689  0.00  0.00    +0.000 N 
ATOM     22  C   UNL     1      -0.660  11.534  21.553  0.00  0.00    +0.000 C 
ATOM     23  O   UNL     1       0.413  12.078  21.797  0.00  0.00    +0.000 OA
ATOM     24  H   UNL     1      -1.798  10.205  20.510  0.00  0.00    +0.000 HD
BRANCH  22  25
ATOM     25  C   UNL     1      -1.896  12.015  22.136  0.00  0.00    +0.000 A 
ATOM     26  C   UNL     1      -2.333  11.974  23.445  0.00  0.00    +0.000 A 
ATOM     27  C   UNL     1      -3.604  12.586  23.468  0.00  0.00    +0.000 A 
ATOM     28  C   UNL     1      -3.868  12.966  22.173  0.00  0.00    +0.000 A 
ATOM     29  O   UNL     1      -2.838  12.628  21.353  0.00  0.00    +0.000 OA
ENDBRANCH  22  25
ENDBRANCH   4  21
TORSDOF 4
ENDMDL
MODEL 9
REMARK VINA RESULT:      -7.5      3.950      8.797
REMARK  Name = 
REMARK  5 active torsions:
REMARK  status: ('A' for Active; 'I' for Inactive)
REMARK    1  A    between atoms: C_1  and  C_2
REMARK    2  A    between atoms: C_4  and  N_5
REMARK    3  A    between atoms: N_12  and  C_13
REMARK    4  A    between atoms: C_16  and  N_17
REMARK    5  A    between atoms: C_18  and  C_20
REMARK                            x       y       z     vdW  Elec       q    Type
REMARK                         _______ _______ _______ _____ _____    ______ ____
ROOT
ATOM      1  C   UNL     1       1.254   8.636  20.567  0.00  0.00    +0.000 A 
ATOM      2  C   UNL     1       1.000   9.602  21.544  0.00  0.00    +0.000 A 
ATOM      3  C   UNL     1       0.905  10.959  21.217  0.00  0.00    +0.000 A 
ATOM      4  C   UNL     1       1.078  11.387  19.900  0.00  0.00    +0.000 A 
ATOM      5  C   UNL     1       1.301  10.433  18.912  0.00  0.00    +0.000 A 
ATOM      6  C   UNL     1       1.409   9.080  19.249  0.00  0.00    +0.000 A 
ENDROOT
BRANCH   1  13
ATOM      7  C   UNL     1       1.550   2.574  20.616  0.00  0.00    +0.000 C 
ATOM      8  C   UNL     1       1.952   3.916  20.089  0.00  0.00    +0.000 A 
ATOM      9  C   UNL     1       2.743   4.020  18.963  0.00  0.00    +0.000 A 
ATOM     10  C   UNL     1       3.138   5.278  18.571  0.00  0.00    +0.000 A 
ATOM     11  N   UNL     1       2.721   6.351  19.256  0.00  0.00    +0.000 NA
ATOM     12  C   UNL     1       1.902   6.190  20.303  0.00  0.00    +0.000 A 
ATOM     13  N   UNL     1       1.357   7.294  20.958  0.00  0.00    +0.000 N 
ATOM     14  N   UNL     1       1.517   4.996  20.765  0.00  0.00    +0.000 NA
ATOM     15  H   UNL     1       0.704   6.966  21.652  0.00  0.00    +0.000 HD
BRANCH  10  16
ATOM     16  N   UNL     1       4.005   5.476  17.530  0.00  0.00    +0.000 N 
ATOM     17  C   UNL     1       4.766   6.681  17.280  0.00  0.00    +0.000 C 
ATOM     18  C   UNL     1       5.140   6.502  15.816  0.00  0.00    +0.000 C 
ATOM     19  C   UNL     1       5.425   5.008  15.702  0.00  0.00    +0.000 C 
ATOM     20  C   UNL     1       4.545   4.351  16.775  0.00  0.00    +0.000 C 
ENDBRANCH  10  16
ENDBRANCH   1  13
BRANCH   4  21
ATOM     21  N   UNL     1       1.070  12.738  19.514  0.00  0.00    +0.000 N 
ATOM     22  C   UNL     1      -0.036  13.464  19.104  0.00  0.00    +0.000 C 
ATOM     23  O   UNL     1      -1.174  13.019  18.991  0.00  0.00    +0.000 OA
ATOM     24  H   UNL     1       1.914  13.280  19.664  0.00  0.00    +0.000 HD
BRANCH  22  25
ATOM     25  C   UNL     1       0.250  14.863  18.853  0.00  0.00    +0.000 A 
ATOM     26  C   UNL     1      -0.596  15.954  18.855  0.00  0.00    +0.000 A 
ATOM     27  C   UNL     1       0.196  17.082  18.554  0.00  0.00    +0.000 A 
ATOM     28  C   UNL     1       1.479  16.615  18.388  0.00  0.00    +0.000 A 
ATOM     29  O   UNL     1       1.527  15.268  18.569  0.00  0.00    +0.000 OA
ENDBRANCH  22  25
ENDBRANCH   4  21
TORSDOF 4
ENDMDL
