MODEL 1
REMARK VINA RESULT:      -7.6      0.000      0.000
REMARK  Name = 
REMARK  5 active torsions:
REMARK  status: ('A' for Active; 'I' for Inactive)
REMARK    1  A    between atoms: C_1  and  O_2
REMARK    2  A    between atoms: O_2  and  C_3
REMARK    3  A    between atoms: C_8  and  O_9
REMARK    4  A    between atoms: C_14  and  O_15
REMARK    5  A    between atoms: C_20  and  O_21
REMARK                            x       y       z     vdW  Elec       q    Type
REMARK                         _______ _______ _______ _____ _____    ______ ____
ROOT
ATOM      1  C   UNL     1       1.226   8.849  19.596  0.00  0.00    +0.000 A 
ATOM      2  C   UNL     1       1.328   7.875  20.586  0.00  0.00    +0.000 A 
ATOM      3  C   UNL     1       2.119   6.773  20.321  0.00  0.00    +0.000 A 
ATOM      4  C   UNL     1       3.095   6.776  19.320  0.00  0.00    +0.000 A 
ATOM      5  C   UNL     1       2.972   7.698  18.293  0.00  0.00    +0.000 A 
ATOM      6  C   UNL     1       1.979   8.679  18.413  0.00  0.00    +0.000 A 
ATOM      7  C   UNL     1       3.790   5.431  19.388  0.00  0.00    +0.000 C 
ATOM      8  C   UNL     1       4.614   5.036  18.228  0.00  0.00    +0.000 A 
ATOM      9  C   UNL     1       6.004   5.266  18.286  0.00  0.00    +0.000 A 
ATOM     10  C   UNL     1       6.823   4.923  17.225  0.00  0.00    +0.000 A 
ATOM     11  C   UNL     1       6.231   4.362  16.090  0.00  0.00    +0.000 A 
ATOM     12  C   UNL     1       4.849   4.122  16.034  0.00  0.00    +0.000 A 
ATOM     13  C   UNL     1       4.033   4.426  17.126  0.00  0.00    +0.000 A 
ATOM     14  O   UNL     1       2.709   4.064  17.081  0.00  0.00    +0.000 OA
ATOM     15  C   UNL     1       1.839   4.499  18.166  0.00  0.00    +0.000 C 
ATOM     16  C   UNL     1       2.536   4.563  19.562  0.00  0.00    +0.000 C 
ATOM     17  C   UNL     1       1.801   5.352  20.698  0.00  0.00    +0.000 C 
ENDROOT
BRANCH   1  19
ATOM     18  C   UNL     1       0.640  10.889  20.618  0.00  0.00    +0.000 C 
ATOM     19  O   UNL     1       0.355   9.903  19.641  0.00  0.00    +0.000 OA
ENDBRANCH   1  19
BRANCH   6  20
ATOM     20  O   UNL     1       1.623   9.380  17.288  0.00  0.00    +0.000 OA
ATOM     21  H   UNL     1       2.374   9.316  16.678  0.00  0.00    +0.000 HD
ENDBRANCH   6  20
BRANCH  11  22
ATOM     22  O   UNL     1       6.991   4.033  15.013  0.00  0.00    +0.000 OA
ATOM     23  H   UNL     1       6.470   3.433  14.443  0.00  0.00    +0.000 HD
ENDBRANCH  11  22
BRANCH  16  24
ATOM     24  O   UNL     1       2.817   3.246  20.043  0.00  0.00    +0.000 OA
ATOM     25  H   UNL     1       2.282   2.620  19.520  0.00  0.00    +0.000 HD
ENDBRANCH  16  24
TORSDOF 4
ENDMDL
MODEL 2
REMARK VINA RESULT:      -7.5      1.252      1.518
REMARK  Name = 
REMARK  5 active torsions:
REMARK  status: ('A' for Active; 'I' for Inactive)
REMARK    1  A    between atoms: C_1  and  O_2
REMARK    2  A    between atoms: O_2  and  C_3
REMARK    3  A    between atoms: C_8  and  O_9
REMARK    4  A    between atoms: C_14  and  O_15
REMARK    5  A    between atoms: C_20  and  O_21
REMARK                            x       y       z     vdW  Elec       q    Type
REMARK                         _______ _______ _______ _____ _____    ______ ____
ROOT
ATOM      1  C   UNL     1       1.507   7.131  20.540  0.00  0.00    +0.000 A 
ATOM      2  C   UNL     1       1.646   5.854  21.079  0.00  0.00    +0.000 A 
ATOM      3  C   UNL     1       2.509   4.982  20.444  0.00  0.00    +0.000 A 
ATOM      4  C   UNL     1       3.505   5.421  19.565  0.00  0.00    +0.000 A 
ATOM      5  C   UNL     1       3.347   6.663  18.972  0.00  0.00    +0.000 A 
ATOM      6  C   UNL     1       2.294   7.471  19.419  0.00  0.00    +0.000 A 
ATOM      7  C   UNL     1       4.278   4.190  19.138  0.00  0.00    +0.000 C 
ATOM      8  C   UNL     1       5.151   4.319  17.952  0.00  0.00    +0.000 A 
ATOM      9  C   UNL     1       6.522   4.573  18.156  0.00  0.00    +0.000 A 
ATOM     10  C   UNL     1       7.383   4.710  17.082  0.00  0.00    +0.000 A 
ATOM     11  C   UNL     1       6.853   4.608  15.793  0.00  0.00    +0.000 A 
ATOM     12  C   UNL     1       5.489   4.343  15.589  0.00  0.00    +0.000 A 
ATOM     13  C   UNL     1       4.632   4.158  16.676  0.00  0.00    +0.000 A 
ATOM     14  O   UNL     1       3.335   3.779  16.436  0.00  0.00    +0.000 OA
ATOM     15  C   UNL     1       2.415   3.715  17.565  0.00  0.00    +0.000 C 
ATOM     16  C   UNL     1       3.077   3.264  18.906  0.00  0.00    +0.000 C 
ATOM     17  C   UNL     1       2.270   3.513  20.226  0.00  0.00    +0.000 C 
ENDROOT
BRANCH   1  19
ATOM     18  C   UNL     1       0.982   8.907  21.996  0.00  0.00    +0.000 C 
ATOM     19  O   UNL     1       0.571   8.041  20.952  0.00  0.00    +0.000 OA
ENDBRANCH   1  19
BRANCH   6  20
ATOM     20  O   UNL     1       1.920   8.537  18.638  0.00  0.00    +0.000 OA
ATOM     21  H   UNL     1       2.741   8.922  18.293  0.00  0.00    +0.000 HD
ENDBRANCH   6  20
BRANCH  11  22
ATOM     22  O   UNL     1       7.655   4.761  14.708  0.00  0.00    +0.000 OA
ATOM     23  H   UNL     1       7.555   3.971  14.140  0.00  0.00    +0.000 HD
ENDBRANCH  11  22
BRANCH  16  24
ATOM     24  O   UNL     1       3.427   1.879  18.852  0.00  0.00    +0.000 OA
ATOM     25  H   UNL     1       4.181   1.788  18.239  0.00  0.00    +0.000 HD
ENDBRANCH  16  24
TORSDOF 4
ENDMDL
MODEL 3
REMARK VINA RESULT:      -7.0      2.988      6.329
REMARK  Name = 
REMARK  5 active torsions:
REMARK  status: ('A' for Active; 'I' for Inactive)
REMARK    1  A    between atoms: C_1  and  O_2
REMARK    2  A    between atoms: O_2  and  C_3
REMARK    3  A    between atoms: C_8  and  O_9
REMARK    4  A    between atoms: C_14  and  O_15
REMARK    5  A    between atoms: C_20  and  O_21
REMARK                            x       y       z     vdW  Elec       q    Type
REMARK                         _______ _______ _______ _____ _____    ______ ____
ROOT
ATOM      1  C   UNL     1       6.965   4.589  14.076  0.00  0.00    +0.000 A 
ATOM      2  C   UNL     1       7.600   4.910  15.273  0.00  0.00    +0.000 A 
ATOM      3  C   UNL     1       6.870   4.783  16.439  0.00  0.00    +0.000 A 
ATOM      4  C   UNL     1       5.710   4.004  16.515  0.00  0.00    +0.000 A 
ATOM      5  C   UNL     1       5.032   3.731  15.339  0.00  0.00    +0.000 A 
ATOM      6  C   UNL     1       5.641   4.102  14.133  0.00  0.00    +0.000 A 
ATOM      7  C   UNL     1       5.247   4.058  17.957  0.00  0.00    +0.000 C 
ATOM      8  C   UNL     1       3.866   3.617  18.239  0.00  0.00    +0.000 A 
ATOM      9  C   UNL     1       3.663   2.294  18.681  0.00  0.00    +0.000 A 
ATOM     10  C   UNL     1       2.390   1.826  18.953  0.00  0.00    +0.000 A 
ATOM     11  C   UNL     1       1.312   2.694  18.759  0.00  0.00    +0.000 A 
ATOM     12  C   UNL     1       1.513   4.016  18.329  0.00  0.00    +0.000 A 
ATOM     13  C   UNL     1       2.804   4.499  18.102  0.00  0.00    +0.000 A 
ATOM     14  O   UNL     1       2.966   5.829  17.804  0.00  0.00    +0.000 OA
ATOM     15  C   UNL     1       4.299   6.295  17.441  0.00  0.00    +0.000 C 
ATOM     16  C   UNL     1       5.460   5.561  18.184  0.00  0.00    +0.000 C 
ATOM     17  C   UNL     1       6.906   5.732  17.606  0.00  0.00    +0.000 C 
ENDROOT
BRANCH   1  19
ATOM     18  C   UNL     1       8.454   5.866  12.772  0.00  0.00    +0.000 C 
ATOM     19  O   UNL     1       7.496   4.825  12.837  0.00  0.00    +0.000 OA
ENDBRANCH   1  19
BRANCH   6  20
ATOM     20  O   UNL     1       4.864   4.145  13.002  0.00  0.00    +0.000 OA
ATOM     21  H   UNL     1       5.040   5.001  12.582  0.00  0.00    +0.000 HD
ENDBRANCH   6  20
BRANCH  11  22
ATOM     22  O   UNL     1       0.042   2.271  18.987  0.00  0.00    +0.000 OA
ATOM     23  H   UNL     1      -0.402   2.157  18.123  0.00  0.00    +0.000 HD
ENDBRANCH  11  22
BRANCH  16  24
ATOM     24  O   UNL     1       5.485   5.930  19.565  0.00  0.00    +0.000 OA
ATOM     25  H   UNL     1       4.718   5.510  19.998  0.00  0.00    +0.000 HD
ENDBRANCH  16  24
TORSDOF 4
ENDMDL
MODEL 4
REMARK VINA RESULT:      -7.0      2.792      4.555
REMARK  Name = 
REMARK  5 active torsions:
REMARK  status: ('A' for Active; 'I' for Inactive)
REMARK    1  A    between atoms: C_1  and  O_2
REMARK    2  A    between atoms: O_2  and  C_3
REMARK    3  A    between atoms: C_8  and  O_9
REMARK    4  A    between atoms: C_14  and  O_15
REMARK    5  A    between atoms: C_20  and  O_21
REMARK                            x       y       z     vdW  Elec       q    Type
REMARK                         _______ _______ _______ _____ _____    ______ ____
ROOT
ATOM      1  C   UNL     1       2.289   3.723  20.230  0.00  0.00    +0.000 A 
ATOM      2  C   UNL     1       2.987   2.777  19.483  0.00  0.00    +0.000 A 
ATOM      3  C   UNL     1       4.101   3.206  18.787  0.00  0.00    +0.000 A 
ATOM      4  C   UNL     1       4.766   4.397  19.099  0.00  0.00    +0.000 A 
ATOM      5  C   UNL     1       4.063   5.373  19.786  0.00  0.00    +0.000 A 
ATOM      6  C   UNL     1       2.793   5.041  20.276  0.00  0.00    +0.000 A 
ATOM      7  C   UNL     1       5.963   4.479  18.174  0.00  0.00    +0.000 C 
ATOM      8  C   UNL     1       6.631   5.791  18.048  0.00  0.00    +0.000 A 
ATOM      9  C   UNL     1       7.774   6.038  18.836  0.00  0.00    +0.000 A 
ATOM     10  C   UNL     1       8.433   7.252  18.764  0.00  0.00    +0.000 A 
ATOM     11  C   UNL     1       7.925   8.230  17.904  0.00  0.00    +0.000 A 
ATOM     12  C   UNL     1       6.793   7.981  17.111  0.00  0.00    +0.000 A 
ATOM     13  C   UNL     1       6.158   6.738  17.151  0.00  0.00    +0.000 A 
ATOM     14  O   UNL     1       5.133   6.493  16.272  0.00  0.00    +0.000 OA
ATOM     15  C   UNL     1       4.393   5.244  16.408  0.00  0.00    +0.000 C 
ATOM     16  C   UNL     1       5.257   4.035  16.886  0.00  0.00    +0.000 C 
ATOM     17  C   UNL     1       4.496   2.767  17.404  0.00  0.00    +0.000 C 
ENDROOT
BRANCH   1  19
ATOM     18  C   UNL     1       1.087   2.516  21.857  0.00  0.00    +0.000 C 
ATOM     19  O   UNL     1       1.081   3.491  20.829  0.00  0.00    +0.000 OA
ENDBRANCH   1  19
BRANCH   6  20
ATOM     20  O   UNL     1       1.960   6.063  20.658  0.00  0.00    +0.000 OA
ATOM     21  H   UNL     1       1.054   5.742  20.523  0.00  0.00    +0.000 HD
ENDBRANCH   6  20
BRANCH  11  22
ATOM     22  O   UNL     1       8.524   9.446  17.819  0.00  0.00    +0.000 OA
ATOM     23  H   UNL     1       9.028   9.481  16.981  0.00  0.00    +0.000 HD
ENDBRANCH  11  22
BRANCH  16  24
ATOM     24  O   UNL     1       6.158   3.624  15.855  0.00  0.00    +0.000 OA
ATOM     25  H   UNL     1       5.624   3.269  15.119  0.00  0.00    +0.000 HD
ENDBRANCH  16  24
TORSDOF 4
ENDMDL
MODEL 5
REMARK VINA RESULT:      -6.6      3.368      5.634
REMARK  Name = 
REMARK  5 active torsions:
REMARK  status: ('A' for Active; 'I' for Inactive)
REMARK    1  A    between atoms: C_1  and  O_2
REMARK    2  A    between atoms: O_2  and  C_3
REMARK    3  A    between atoms: C_8  and  O_9
REMARK    4  A    between atoms: C_14  and  O_15
REMARK    5  A    between atoms: C_20  and  O_21
REMARK                            x       y       z     vdW  Elec       q    Type
REMARK                         _______ _______ _______ _____ _____    ______ ____
ROOT
ATOM      1  C   UNL     1       6.949   6.466  17.843  0.00  0.00    +0.000 A 
ATOM      2  C   UNL     1       6.063   6.327  16.778  0.00  0.00    +0.000 A 
ATOM      3  C   UNL     1       4.907   5.602  16.996  0.00  0.00    +0.000 A 
ATOM      4  C   UNL     1       4.412   5.352  18.280  0.00  0.00    +0.000 A 
ATOM      5  C   UNL     1       5.296   5.424  19.344  0.00  0.00    +0.000 A 
ATOM      6  C   UNL     1       6.585   5.910  19.089  0.00  0.00    +0.000 A 
ATOM      7  C   UNL     1       3.108   4.601  18.103  0.00  0.00    +0.000 C 
ATOM      8  C   UNL     1       2.558   3.912  19.288  0.00  0.00    +0.000 A 
ATOM      9  C   UNL     1       1.569   4.571  20.046  0.00  0.00    +0.000 A 
ATOM     10  C   UNL     1       1.025   3.975  21.170  0.00  0.00    +0.000 A 
ATOM     11  C   UNL     1       1.497   2.713  21.541  0.00  0.00    +0.000 A 
ATOM     12  C   UNL     1       2.474   2.050  20.781  0.00  0.00    +0.000 A 
ATOM     13  C   UNL     1       2.986   2.635  19.620  0.00  0.00    +0.000 A 
ATOM     14  O   UNL     1       3.846   1.904  18.839  0.00  0.00    +0.000 OA
ATOM     15  C   UNL     1       4.475   2.566  17.703  0.00  0.00    +0.000 C 
ATOM     16  C   UNL     1       3.576   3.636  17.005  0.00  0.00    +0.000 C 
ATOM     17  C   UNL     1       4.278   4.639  16.027  0.00  0.00    +0.000 C 
ENDROOT
BRANCH   1  19
ATOM     18  C   UNL     1       8.281   8.407  17.916  0.00  0.00    +0.000 C 
ATOM     19  O   UNL     1       8.203   7.004  17.736  0.00  0.00    +0.000 OA
ENDBRANCH   1  19
BRANCH   6  20
ATOM     20  O   UNL     1       7.559   5.684  20.030  0.00  0.00    +0.000 OA
ATOM     21  H   UNL     1       7.670   4.722  20.083  0.00  0.00    +0.000 HD
ENDBRANCH   6  20
BRANCH  11  22
ATOM     22  O   UNL     1       1.012   2.100  22.652  0.00  0.00    +0.000 OA
ATOM     23  H   UNL     1       0.035   2.089  22.593  0.00  0.00    +0.000 HD
ENDBRANCH  11  22
BRANCH  16  24
ATOM     24  O   UNL     1       2.501   3.007  16.303  0.00  0.00    +0.000 OA
ATOM     25  H   UNL     1       2.890   2.354  15.690  0.00  0.00    +0.000 HD
ENDBRANCH  16  24
TORSDOF 4
ENDMDL
MODEL 6
REMARK VINA RESULT:      -6.4      2.341      4.729
REMARK  Name = 
REMARK  5 active torsions:
REMARK  status: ('A' for Active; 'I' for Inactive)
REMARK    1  A    between atoms: C_1  and  O_2
REMARK    2  A    between atoms: O_2  and  C_3
REMARK    3  A    between atoms: C_8  and  O_9
REMARK    4  A    between atoms: C_14  and  O_15
REMARK    5  A    between atoms: C_20  and  O_21
REMARK                            x       y       z     vdW  Elec       q    Type
REMARK                         _______ _______ _______ _____ _____    ______ ____
ROOT
ATOM      1  C   UNL     1       2.986   2.863  20.675  0.00  0.00    +0.000 A 
ATOM      2  C   UNL     1       2.184   3.920  20.250  0.00  0.00    +0.000 A 
ATOM      3  C   UNL     1       2.618   4.657  19.165  0.00  0.00    +0.000 A 
ATOM      4  C   UNL     1       3.574   4.172  18.265  0.00  0.00    +0.000 A 
ATOM      5  C   UNL     1       4.421   3.165  18.696  0.00  0.00    +0.000 A 
ATOM      6  C   UNL     1       4.156   2.577  19.940  0.00  0.00    +0.000 A 
ATOM      7  C   UNL     1       3.727   5.226  17.188  0.00  0.00    +0.000 C 
ATOM      8  C   UNL     1       4.914   5.132  16.314  0.00  0.00    +0.000 A 
ATOM      9  C   UNL     1       4.774   4.499  15.062  0.00  0.00    +0.000 A 
ATOM     10  C   UNL     1       5.855   4.376  14.207  0.00  0.00    +0.000 A 
ATOM     11  C   UNL     1       7.090   4.878  14.627  0.00  0.00    +0.000 A 
ATOM     12  C   UNL     1       7.228   5.519  15.869  0.00  0.00    +0.000 A 
ATOM     13  C   UNL     1       6.124   5.684  16.709  0.00  0.00    +0.000 A 
ATOM     14  O   UNL     1       6.273   6.422  17.856  0.00  0.00    +0.000 OA
ATOM     15  C   UNL     1       5.154   6.480  18.788  0.00  0.00    +0.000 C 
ATOM     16  C   UNL     1       3.749   6.456  18.107  0.00  0.00    +0.000 C 
ATOM     17  C   UNL     1       2.512   6.150  19.018  0.00  0.00    +0.000 C 
ENDROOT
BRANCH   1  19
ATOM     18  C   UNL     1       1.454   2.185  22.331  0.00  0.00    +0.000 C 
ATOM     19  O   UNL     1       2.778   2.156  21.828  0.00  0.00    +0.000 OA
ENDBRANCH   1  19
BRANCH   6  20
ATOM     20  O   UNL     1       5.148   1.829  20.526  0.00  0.00    +0.000 OA
ATOM     21  H   UNL     1       5.290   1.064  19.948  0.00  0.00    +0.000 HD
ENDBRANCH   6  20
BRANCH  11  22
ATOM     22  O   UNL     1       8.185   4.757  13.833  0.00  0.00    +0.000 OA
ATOM     23  H   UNL     1       8.466   3.819  13.841  0.00  0.00    +0.000 HD
ENDBRANCH  11  22
BRANCH  16  24
ATOM     24  O   UNL     1       3.504   7.685  17.420  0.00  0.00    +0.000 OA
ATOM     25  H   UNL     1       3.595   8.410  18.067  0.00  0.00    +0.000 HD
ENDBRANCH  16  24
TORSDOF 4
ENDMDL
MODEL 7
REMARK VINA RESULT:      -6.2      3.123      5.116
REMARK  Name = 
REMARK  5 active torsions:
REMARK  status: ('A' for Active; 'I' for Inactive)
REMARK    1  A    between atoms: C_1  and  O_2
REMARK    2  A    between atoms: O_2  and  C_3
REMARK    3  A    between atoms: C_8  and  O_9
REMARK    4  A    between atoms: C_14  and  O_15
REMARK    5  A    between atoms: C_20  and  O_21
REMARK                            x       y       z     vdW  Elec       q    Type
REMARK                         _______ _______ _______ _____ _____    ______ ____
ROOT
ATOM      1  C   UNL     1       3.437   3.209  19.819  0.00  0.00    +0.000 A 
ATOM      2  C   UNL     1       3.409   4.595  19.684  0.00  0.00    +0.000 A 
ATOM      3  C   UNL     1       3.966   5.138  18.542  0.00  0.00    +0.000 A 
ATOM      4  C   UNL     1       4.186   4.384  17.385  0.00  0.00    +0.000 A 
ATOM      5  C   UNL     1       4.279   3.008  17.514  0.00  0.00    +0.000 A 
ATOM      6  C   UNL     1       3.977   2.447  18.761  0.00  0.00    +0.000 A 
ATOM      7  C   UNL     1       4.733   5.339  16.344  0.00  0.00    +0.000 C 
ATOM      8  C   UNL     1       5.376   4.745  15.154  0.00  0.00    +0.000 A 
ATOM      9  C   UNL     1       4.607   4.598  13.982  0.00  0.00    +0.000 A 
ATOM     10  C   UNL     1       5.156   4.041  12.841  0.00  0.00    +0.000 A 
ATOM     11  C   UNL     1       6.486   3.611  12.890  0.00  0.00    +0.000 A 
ATOM     12  C   UNL     1       7.256   3.767  14.053  0.00  0.00    +0.000 A 
ATOM     13  C   UNL     1       6.712   4.374  15.188  0.00  0.00    +0.000 A 
ATOM     14  O   UNL     1       7.532   4.619  16.261  0.00  0.00    +0.000 OA
ATOM     15  C   UNL     1       6.930   5.132  17.485  0.00  0.00    +0.000 C 
ATOM     16  C   UNL     1       5.717   6.088  17.252  0.00  0.00    +0.000 C 
ATOM     17  C   UNL     1       4.794   6.393  18.480  0.00  0.00    +0.000 C 
ENDROOT
BRANCH   1  19
ATOM     18  C   UNL     1       1.911   3.011  21.604  0.00  0.00    +0.000 C 
ATOM     19  O   UNL     1       3.083   2.541  20.960  0.00  0.00    +0.000 OA
ENDBRANCH   1  19
BRANCH   6  20
ATOM     20  O   UNL     1       4.374   1.155  19.003  0.00  0.00    +0.000 OA
ATOM     21  H   UNL     1       5.200   1.213  19.508  0.00  0.00    +0.000 HD
ENDBRANCH   6  20
BRANCH  11  22
ATOM     22  O   UNL     1       7.060   3.034  11.802  0.00  0.00    +0.000 OA
ATOM     23  H   UNL     1       7.972   2.775  12.041  0.00  0.00    +0.000 HD
ENDBRANCH  11  22
BRANCH  16  24
ATOM     24  O   UNL     1       6.160   7.334  16.707  0.00  0.00    +0.000 OA
ATOM     25  H   UNL     1       6.625   7.818  17.415  0.00  0.00    +0.000 HD
ENDBRANCH  16  24
TORSDOF 4
ENDMDL
MODEL 8
REMARK VINA RESULT:      -6.2      1.960      3.507
REMARK  Name = 
REMARK  5 active torsions:
REMARK  status: ('A' for Active; 'I' for Inactive)
REMARK    1  A    between atoms: C_1  and  O_2
REMARK    2  A    between atoms: O_2  and  C_3
REMARK    3  A    between atoms: C_8  and  O_9
REMARK    4  A    between atoms: C_14  and  O_15
REMARK    5  A    between atoms: C_20  and  O_21
REMARK                            x       y       z     vdW  Elec       q    Type
REMARK                         _______ _______ _______ _____ _____    ______ ____
ROOT
ATOM      1  C   UNL     1       1.663   8.818  19.652  0.00  0.00    +0.000 A 
ATOM      2  C   UNL     1       2.231   8.959  18.388  0.00  0.00    +0.000 A 
ATOM      3  C   UNL     1       2.815   7.842  17.821  0.00  0.00    +0.000 A 
ATOM      4  C   UNL     1       2.527   6.544  18.255  0.00  0.00    +0.000 A 
ATOM      5  C   UNL     1       2.021   6.384  19.535  0.00  0.00    +0.000 A 
ATOM      6  C   UNL     1       1.668   7.538  20.247  0.00  0.00    +0.000 A 
ATOM      7  C   UNL     1       3.297   5.604  17.351  0.00  0.00    +0.000 C 
ATOM      8  C   UNL     1       3.451   4.206  17.802  0.00  0.00    +0.000 A 
ATOM      9  C   UNL     1       2.550   3.241  17.309  0.00  0.00    +0.000 A 
ATOM     10  C   UNL     1       2.643   1.919  17.705  0.00  0.00    +0.000 A 
ATOM     11  C   UNL     1       3.642   1.572  18.620  0.00  0.00    +0.000 A 
ATOM     12  C   UNL     1       4.547   2.531  19.104  0.00  0.00    +0.000 A 
ATOM     13  C   UNL     1       4.479   3.855  18.665  0.00  0.00    +0.000 A 
ATOM     14  O   UNL     1       5.456   4.732  19.065  0.00  0.00    +0.000 OA
ATOM     15  C   UNL     1       5.306   6.138  18.710  0.00  0.00    +0.000 C 
ATOM     16  C   UNL     1       4.620   6.381  17.328  0.00  0.00    +0.000 C 
ATOM     17  C   UNL     1       4.094   7.826  17.030  0.00  0.00    +0.000 C 
ENDROOT
BRANCH   1  19
ATOM     18  C   UNL     1      -0.062  10.376  20.034  0.00  0.00    +0.000 C 
ATOM     19  O   UNL     1       1.203   9.861  20.409  0.00  0.00    +0.000 OA
ENDBRANCH   1  19
BRANCH   6  20
ATOM     20  O   UNL     1       1.484   7.429  21.603  0.00  0.00    +0.000 OA
ATOM     21  H   UNL     1       0.932   8.183  21.865  0.00  0.00    +0.000 HD
ENDBRANCH   6  20
BRANCH  11  22
ATOM     22  O   UNL     1       3.755   0.292  19.057  0.00  0.00    +0.000 OA
ATOM     23  H   UNL     1       3.980  -0.274  18.292  0.00  0.00    +0.000 HD
ENDBRANCH  11  22
BRANCH  16  24
ATOM     24  O   UNL     1       5.490   5.995  16.261  0.00  0.00    +0.000 OA
ATOM     25  H   UNL     1       5.180   5.133  15.924  0.00  0.00    +0.000 HD
ENDBRANCH  16  24
TORSDOF 4
ENDMDL
MODEL 9
REMARK VINA RESULT:      -6.0      9.983     11.291
REMARK  Name = 
REMARK  5 active torsions:
REMARK  status: ('A' for Active; 'I' for Inactive)
REMARK    1  A    between atoms: C_1  and  O_2
REMARK    2  A    between atoms: O_2  and  C_3
REMARK    3  A    between atoms: C_8  and  O_9
REMARK    4  A    between atoms: C_14  and  O_15
REMARK    5  A    between atoms: C_20  and  O_21
REMARK                            x       y       z     vdW  Elec       q    Type
REMARK                         _______ _______ _______ _____ _____    ______ ____
ROOT
ATOM      1  C   UNL     1       8.124  12.347  22.235  0.00  0.00    +0.000 A 
ATOM      2  C   UNL     1       9.301  11.645  21.981  0.00  0.00    +0.000 A 
ATOM      3  C   UNL     1      10.201  12.204  21.094  0.00  0.00    +0.000 A 
ATOM      4  C   UNL     1      10.177  13.563  20.760  0.00  0.00    +0.000 A 
ATOM      5  C   UNL     1       8.995  14.258  20.948  0.00  0.00    +0.000 A 
ATOM      6  C   UNL     1       7.952  13.605  21.618  0.00  0.00    +0.000 A 
ATOM      7  C   UNL     1      11.350  13.800  19.831  0.00  0.00    +0.000 C 
ATOM      8  C   UNL     1      11.354  15.057  19.056  0.00  0.00    +0.000 A 
ATOM      9  C   UNL     1      12.093  16.149  19.556  0.00  0.00    +0.000 A 
ATOM     10  C   UNL     1      12.125  17.353  18.875  0.00  0.00    +0.000 A 
ATOM     11  C   UNL     1      11.392  17.461  17.690  0.00  0.00    +0.000 A 
ATOM     12  C   UNL     1      10.664  16.371  17.185  0.00  0.00    +0.000 A 
ATOM     13  C   UNL     1      10.673  15.143  17.850  0.00  0.00    +0.000 A 
ATOM     14  O   UNL     1      10.053  14.069  17.261  0.00  0.00    +0.000 OA
ATOM     15  C   UNL     1       9.954  12.829  18.020  0.00  0.00    +0.000 C 
ATOM     16  C   UNL     1      11.173  12.551  18.956  0.00  0.00    +0.000 C 
ATOM     17  C   UNL     1      10.997  11.455  20.061  0.00  0.00    +0.000 C 
ENDROOT
BRANCH   1  19
ATOM     18  C   UNL     1       7.292  11.700  24.341  0.00  0.00    +0.000 C 
ATOM     19  O   UNL     1       7.070  11.847  22.950  0.00  0.00    +0.000 OA
ENDBRANCH   1  19
BRANCH   6  20
ATOM     20  O   UNL     1       6.689  14.137  21.524  0.00  0.00    +0.000 OA
ATOM     21  H   UNL     1       6.589  14.737  22.279  0.00  0.00    +0.000 HD
ENDBRANCH   6  20
BRANCH  11  22
ATOM     22  O   UNL     1      11.372  18.631  17.001  0.00  0.00    +0.000 OA
ATOM     23  H   UNL     1      10.445  18.826  16.756  0.00  0.00    +0.000 HD
ENDBRANCH  11  22
BRANCH  16  24
ATOM     24  O   UNL     1      12.333  12.226  18.186  0.00  0.00    +0.000 OA
ATOM     25  H   UNL     1      13.071  12.081  18.809  0.00  0.00    +0.000 HD
ENDBRANCH  16  24
TORSDOF 4
ENDMDL
