MODEL 1
REMARK VINA RESULT:      -7.3      0.000      0.000
REMARK  Name = 
REMARK  7 active torsions:
REMARK  status: ('A' for Active; 'I' for Inactive)
REMARK    1  A    between atoms: C_1  and  O_2
REMARK    2  A    between atoms: O_2  and  C_3
REMARK    3  A    between atoms: C_6  and  N_7
REMARK    4  A    between atoms: C_8  and  C_10
REMARK    5  A    between atoms: C_10  and  C_11
REMARK    6  A    between atoms: C_11  and  C_12
REMARK    7  A    between atoms: C_12  and  N_13
REMARK                            x       y       z     vdW  Elec       q    Type
REMARK                         _______ _______ _______ _____ _____    ______ ____
ROOT
ATOM      1  N   UNL     1       3.143   5.860  18.245  0.00  0.00    +0.000 N 
ATOM      2  C   UNL     1       4.442   5.724  17.780  0.00  0.00    +0.000 C 
ATOM      3  O   UNL     1       5.257   6.623  17.600  0.00  0.00    +0.000 OA
ATOM      4  H   UNL     1       2.599   5.014  18.369  0.00  0.00    +0.000 HD
ENDROOT
BRANCH   1   8
ATOM      5  C   UNL     1       1.195   9.470  19.343  0.00  0.00    +0.000 A 
ATOM      6  C   UNL     1       1.572   9.249  18.020  0.00  0.00    +0.000 A 
ATOM      7  C   UNL     1       2.211   8.064  17.649  0.00  0.00    +0.000 A 
ATOM      8  C   UNL     1       2.505   7.075  18.588  0.00  0.00    +0.000 A 
ATOM      9  C   UNL     1       2.147   7.295  19.922  0.00  0.00    +0.000 A 
ATOM     10  C   UNL     1       1.503   8.488  20.296  0.00  0.00    +0.000 A 
ATOM     11 CL   UNL     1       1.080   8.698  21.961  0.00  0.00    +0.000 Cl
BRANCH   5  13
ATOM     12  C   UNL     1       1.089  11.829  19.218  0.00  0.00    +0.000 C 
ATOM     13  O   UNL     1       0.569  10.617  19.760  0.00  0.00    +0.000 OA
ENDBRANCH   5  13
ENDBRANCH   1   8
BRANCH   2  14
ATOM     14  C   UNL     1       4.820   4.305  17.425  0.00  0.00    +0.000 C 
BRANCH  14  15
ATOM     15  C   UNL     1       3.574   3.523  17.030  0.00  0.00    +0.000 C 
BRANCH  15  16
ATOM     16  C   UNL     1       3.470   2.217  17.815  0.00  0.00    +0.000 C 
BRANCH  16  17
ATOM     17  N   UNL     1       2.838   2.424  19.105  0.00  0.00    +0.000 N 
ATOM     18  C   UNL     1       1.509   2.682  19.266  0.00  0.00    +0.000 C 
ATOM     19  O   UNL     1       0.666   2.743  18.386  0.00  0.00    +0.000 OA
ATOM     20  C   UNL     1       1.229   2.902  20.724  0.00  0.00    +0.000 C 
ATOM     21  C   UNL     1       2.580   2.758  21.400  0.00  0.00    +0.000 C 
ATOM     22  C   UNL     1       3.539   2.509  20.272  0.00  0.00    +0.000 C 
ATOM     23  O   UNL     1       4.749   2.412  20.406  0.00  0.00    +0.000 OA
ENDBRANCH  16  17
ENDBRANCH  15  16
ENDBRANCH  14  15
ENDBRANCH   2  14
TORSDOF 6
ENDMDL
MODEL 2
REMARK VINA RESULT:      -7.3      0.564      1.701
REMARK  Name = 
REMARK  7 active torsions:
REMARK  status: ('A' for Active; 'I' for Inactive)
REMARK    1  A    between atoms: C_1  and  O_2
REMARK    2  A    between atoms: O_2  and  C_3
REMARK    3  A    between atoms: C_6  and  N_7
REMARK    4  A    between atoms: C_8  and  C_10
REMARK    5  A    between atoms: C_10  and  C_11
REMARK    6  A    between atoms: C_11  and  C_12
REMARK    7  A    between atoms: C_12  and  N_13
REMARK                            x       y       z     vdW  Elec       q    Type
REMARK                         _______ _______ _______ _____ _____    ______ ____
ROOT
ATOM      1  N   UNL     1       3.210   5.741  17.869  0.00  0.00    +0.000 N 
ATOM      2  C   UNL     1       4.525   5.345  18.057  0.00  0.00    +0.000 C 
ATOM      3  O   UNL     1       5.403   5.964  18.649  0.00  0.00    +0.000 OA
ATOM      4  H   UNL     1       2.594   5.103  17.380  0.00  0.00    +0.000 HD
ENDROOT
BRANCH   1   8
ATOM      5  C   UNL     1       1.443   9.335  19.278  0.00  0.00    +0.000 A 
ATOM      6  C   UNL     1       1.883   9.239  17.961  0.00  0.00    +0.000 A 
ATOM      7  C   UNL     1       2.463   8.060  17.488  0.00  0.00    +0.000 A 
ATOM      8  C   UNL     1       2.634   6.953  18.318  0.00  0.00    +0.000 A 
ATOM      9  C   UNL     1       2.212   7.046  19.648  0.00  0.00    +0.000 A 
ATOM     10  C   UNL     1       1.628   8.233  20.126  0.00  0.00    +0.000 A 
ATOM     11 CL   UNL     1       1.121   8.283  21.780  0.00  0.00    +0.000 Cl
BRANCH   5  13
ATOM     12  C   UNL     1      -0.484  10.700  19.412  0.00  0.00    +0.000 C 
ATOM     13  O   UNL     1       0.870  10.470  19.794  0.00  0.00    +0.000 OA
ENDBRANCH   5  13
ENDBRANCH   1   8
BRANCH   2  14
ATOM     14  C   UNL     1       4.869   4.030  17.397  0.00  0.00    +0.000 C 
BRANCH  14  15
ATOM     15  C   UNL     1       3.591   3.291  17.022  0.00  0.00    +0.000 C 
BRANCH  15  16
ATOM     16  C   UNL     1       3.383   2.063  17.904  0.00  0.00    +0.000 C 
BRANCH  16  17
ATOM     17  N   UNL     1       2.793   2.422  19.180  0.00  0.00    +0.000 N 
ATOM     18  C   UNL     1       3.492   2.480  20.350  0.00  0.00    +0.000 C 
ATOM     19  O   UNL     1       4.687   2.280  20.496  0.00  0.00    +0.000 OA
ATOM     20  C   UNL     1       2.548   2.821  21.465  0.00  0.00    +0.000 C 
ATOM     21  C   UNL     1       1.190   2.937  20.796  0.00  0.00    +0.000 C 
ATOM     22  C   UNL     1       1.454   2.612  19.354  0.00  0.00    +0.000 C 
ATOM     23  O   UNL     1       0.586   2.527  18.498  0.00  0.00    +0.000 OA
ENDBRANCH  16  17
ENDBRANCH  15  16
ENDBRANCH  14  15
ENDBRANCH   2  14
TORSDOF 6
ENDMDL
MODEL 3
REMARK VINA RESULT:      -7.3      1.295      1.717
REMARK  Name = 
REMARK  7 active torsions:
REMARK  status: ('A' for Active; 'I' for Inactive)
REMARK    1  A    between atoms: C_1  and  O_2
REMARK    2  A    between atoms: O_2  and  C_3
REMARK    3  A    between atoms: C_6  and  N_7
REMARK    4  A    between atoms: C_8  and  C_10
REMARK    5  A    between atoms: C_10  and  C_11
REMARK    6  A    between atoms: C_11  and  C_12
REMARK    7  A    between atoms: C_12  and  N_13
REMARK                            x       y       z     vdW  Elec       q    Type
REMARK                         _______ _______ _______ _____ _____    ______ ____
ROOT
ATOM      1  N   UNL     1       2.959   5.425  18.181  0.00  0.00    +0.000 N 
ATOM      2  C   UNL     1       4.304   5.117  18.059  0.00  0.00    +0.000 C 
ATOM      3  O   UNL     1       5.247   5.734  18.544  0.00  0.00    +0.000 OA
ATOM      4  H   UNL     1       2.293   4.800  17.744  0.00  0.00    +0.000 HD
ENDROOT
BRANCH   1   8
ATOM      5  C   UNL     1       1.376   8.787  20.237  0.00  0.00    +0.000 A 
ATOM      6  C   UNL     1       1.460   7.551  20.873  0.00  0.00    +0.000 A 
ATOM      7  C   UNL     1       1.981   6.441  20.206  0.00  0.00    +0.000 A 
ATOM      8  C   UNL     1       2.418   6.528  18.884  0.00  0.00    +0.000 A 
ATOM      9  C   UNL     1       2.321   7.761  18.230  0.00  0.00    +0.000 A 
ATOM     10  C   UNL     1       1.796   8.880  18.902  0.00  0.00    +0.000 A 
ATOM     11 CL   UNL     1       1.707  10.379  18.040  0.00  0.00    +0.000 Cl
BRANCH   5  13
ATOM     12  C   UNL     1       0.438   9.730  22.192  0.00  0.00    +0.000 C 
ATOM     13  O   UNL     1       0.870   9.907  20.845  0.00  0.00    +0.000 OA
ENDBRANCH   5  13
ENDBRANCH   1   8
BRANCH   2  14
ATOM     14  C   UNL     1       4.581   3.918  17.183  0.00  0.00    +0.000 C 
BRANCH  14  15
ATOM     15  C   UNL     1       3.314   3.086  17.033  0.00  0.00    +0.000 C 
BRANCH  15  16
ATOM     16  C   UNL     1       3.333   1.876  17.963  0.00  0.00    +0.000 C 
BRANCH  16  17
ATOM     17  N   UNL     1       2.781   2.202  19.265  0.00  0.00    +0.000 N 
ATOM     18  C   UNL     1       1.456   2.431  19.491  0.00  0.00    +0.000 C 
ATOM     19  O   UNL     1       0.555   2.367  18.672  0.00  0.00    +0.000 OA
ATOM     20  C   UNL     1       1.266   2.799  20.934  0.00  0.00    +0.000 C 
ATOM     21  C   UNL     1       2.663   2.775  21.524  0.00  0.00    +0.000 C 
ATOM     22  C   UNL     1       3.554   2.437  20.364  0.00  0.00    +0.000 C 
ATOM     23  O   UNL     1       4.774   2.395  20.422  0.00  0.00    +0.000 OA
ENDBRANCH  16  17
ENDBRANCH  15  16
ENDBRANCH  14  15
ENDBRANCH   2  14
TORSDOF 6
ENDMDL
MODEL 4
REMARK VINA RESULT:      -7.2      1.256      2.275
REMARK  Name = 
REMARK  7 active torsions:
REMARK  status: ('A' for Active; 'I' for Inactive)
REMARK    1  A    between atoms: C_1  and  O_2
REMARK    2  A    between atoms: O_2  and  C_3
REMARK    3  A    between atoms: C_6  and  N_7
REMARK    4  A    between atoms: C_8  and  C_10
REMARK    5  A    between atoms: C_10  and  C_11
REMARK    6  A    between atoms: C_11  and  C_12
REMARK    7  A    between atoms: C_12  and  N_13
REMARK                            x       y       z     vdW  Elec       q    Type
REMARK                         _______ _______ _______ _____ _____    ______ ____
ROOT
ATOM      1  N   UNL     1       2.944   5.417  18.220  0.00  0.00    +0.000 N 
ATOM      2  C   UNL     1       4.251   5.235  17.797  0.00  0.00    +0.000 C 
ATOM      3  O   UNL     1       5.181   6.027  17.919  0.00  0.00    +0.000 OA
ATOM      4  H   UNL     1       2.293   4.655  18.072  0.00  0.00    +0.000 HD
ENDROOT
BRANCH   1   8
ATOM      5  C   UNL     1       1.442   8.915  20.102  0.00  0.00    +0.000 A 
ATOM      6  C   UNL     1       1.526   7.719  20.809  0.00  0.00    +0.000 A 
ATOM      7  C   UNL     1       2.021   6.564  20.200  0.00  0.00    +0.000 A 
ATOM      8  C   UNL     1       2.430   6.567  18.866  0.00  0.00    +0.000 A 
ATOM      9  C   UNL     1       2.332   7.759  18.142  0.00  0.00    +0.000 A 
ATOM     10  C   UNL     1       1.834   8.923  18.755  0.00  0.00    +0.000 A 
ATOM     11 CL   UNL     1       1.744  10.368  17.806  0.00  0.00    +0.000 Cl
BRANCH   5  13
ATOM     12  C   UNL     1      -0.460  10.197  20.679  0.00  0.00    +0.000 C 
ATOM     13  O   UNL     1       0.961  10.076  20.651  0.00  0.00    +0.000 OA
ENDBRANCH   5  13
ENDBRANCH   1   8
BRANCH   2  14
ATOM     14  C   UNL     1       4.484   3.932  17.070  0.00  0.00    +0.000 C 
BRANCH  14  15
ATOM     15  C   UNL     1       3.174   3.164  16.956  0.00  0.00    +0.000 C 
BRANCH  15  16
ATOM     16  C   UNL     1       3.151   1.966  17.903  0.00  0.00    +0.000 C 
BRANCH  16  17
ATOM     17  N   UNL     1       2.673   2.342  19.220  0.00  0.00    +0.000 N 
ATOM     18  C   UNL     1       3.484   2.498  20.305  0.00  0.00    +0.000 C 
ATOM     19  O   UNL     1       4.698   2.385  20.330  0.00  0.00    +0.000 OA
ATOM     20  C   UNL     1       2.638   2.825  21.501  0.00  0.00    +0.000 C 
ATOM     21  C   UNL     1       1.214   2.820  20.977  0.00  0.00    +0.000 C 
ATOM     22  C   UNL     1       1.349   2.448  19.529  0.00  0.00    +0.000 C 
ATOM     23  O   UNL     1       0.405   2.268  18.774  0.00  0.00    +0.000 OA
ENDBRANCH  16  17
ENDBRANCH  15  16
ENDBRANCH  14  15
ENDBRANCH   2  14
TORSDOF 6
ENDMDL
MODEL 5
REMARK VINA RESULT:      -7.1      2.177      3.797
REMARK  Name = 
REMARK  7 active torsions:
REMARK  status: ('A' for Active; 'I' for Inactive)
REMARK    1  A    between atoms: C_1  and  O_2
REMARK    2  A    between atoms: O_2  and  C_3
REMARK    3  A    between atoms: C_6  and  N_7
REMARK    4  A    between atoms: C_8  and  C_10
REMARK    5  A    between atoms: C_10  and  C_11
REMARK    6  A    between atoms: C_11  and  C_12
REMARK    7  A    between atoms: C_12  and  N_13
REMARK                            x       y       z     vdW  Elec       q    Type
REMARK                         _______ _______ _______ _____ _____    ______ ____
ROOT
ATOM      1  N   UNL     1       3.375   6.283  18.369  0.00  0.00    +0.000 N 
ATOM      2  C   UNL     1       2.917   5.019  18.029  0.00  0.00    +0.000 C 
ATOM      3  O   UNL     1       1.748   4.665  17.922  0.00  0.00    +0.000 OA
ATOM      4  H   UNL     1       4.378   6.428  18.389  0.00  0.00    +0.000 HD
ENDROOT
BRANCH   1   8
ATOM      5  C   UNL     1       0.925   9.610  19.346  0.00  0.00    +0.000 A 
ATOM      6  C   UNL     1       1.446   9.475  18.061  0.00  0.00    +0.000 A 
ATOM      7  C   UNL     1       2.251   8.383  17.730  0.00  0.00    +0.000 A 
ATOM      8  C   UNL     1       2.570   7.406  18.673  0.00  0.00    +0.000 A 
ATOM      9  C   UNL     1       2.067   7.542  19.971  0.00  0.00    +0.000 A 
ATOM     10  C   UNL     1       1.257   8.642  20.305  0.00  0.00    +0.000 A 
ATOM     11 CL   UNL     1       0.660   8.751  21.926  0.00  0.00    +0.000 Cl
BRANCH   5  13
ATOM     12  C   UNL     1      -0.443  11.411  18.654  0.00  0.00    +0.000 C 
ATOM     13  O   UNL     1       0.134  10.665  19.724  0.00  0.00    +0.000 OA
ENDBRANCH   5  13
ENDBRANCH   1   8
BRANCH   2  14
ATOM     14  C   UNL     1       4.017   4.001  17.833  0.00  0.00    +0.000 C 
BRANCH  14  15
ATOM     15  C   UNL     1       4.452   3.988  16.373  0.00  0.00    +0.000 C 
BRANCH  15  16
ATOM     16  C   UNL     1       5.970   4.095  16.248  0.00  0.00    +0.000 C 
BRANCH  16  17
ATOM     17  N   UNL     1       6.471   5.292  16.898  0.00  0.00    +0.000 N 
ATOM     18  C   UNL     1       6.090   6.556  16.556  0.00  0.00    +0.000 C 
ATOM     19  O   UNL     1       5.273   6.867  15.705  0.00  0.00    +0.000 OA
ATOM     20  C   UNL     1       6.856   7.538  17.394  0.00  0.00    +0.000 C 
ATOM     21  C   UNL     1       7.757   6.680  18.263  0.00  0.00    +0.000 C 
ATOM     22  C   UNL     1       7.469   5.273  17.827  0.00  0.00    +0.000 C 
ATOM     23  O   UNL     1       8.057   4.288  18.248  0.00  0.00    +0.000 OA
ENDBRANCH  16  17
ENDBRANCH  15  16
ENDBRANCH  14  15
ENDBRANCH   2  14
TORSDOF 6
ENDMDL
MODEL 6
REMARK VINA RESULT:      -7.0      2.134      4.262
REMARK  Name = 
REMARK  7 active torsions:
REMARK  status: ('A' for Active; 'I' for Inactive)
REMARK    1  A    between atoms: C_1  and  O_2
REMARK    2  A    between atoms: O_2  and  C_3
REMARK    3  A    between atoms: C_6  and  N_7
REMARK    4  A    between atoms: C_8  and  C_10
REMARK    5  A    between atoms: C_10  and  C_11
REMARK    6  A    between atoms: C_11  and  C_12
REMARK    7  A    between atoms: C_12  and  N_13
REMARK                            x       y       z     vdW  Elec       q    Type
REMARK                         _______ _______ _______ _____ _____    ______ ____
ROOT
ATOM      1  N   UNL     1       3.091   6.197  18.997  0.00  0.00    +0.000 N 
ATOM      2  C   UNL     1       2.687   5.058  18.319  0.00  0.00    +0.000 C 
ATOM      3  O   UNL     1       1.637   4.902  17.704  0.00  0.00    +0.000 OA
ATOM      4  H   UNL     1       4.004   6.183  19.435  0.00  0.00    +0.000 HD
ENDROOT
BRANCH   1   8
ATOM      5  C   UNL     1       0.835   9.769  19.432  0.00  0.00    +0.000 A 
ATOM      6  C   UNL     1       1.427   9.457  18.211  0.00  0.00    +0.000 A 
ATOM      7  C   UNL     1       2.169   8.284  18.058  0.00  0.00    +0.000 A 
ATOM      8  C   UNL     1       2.353   7.399  19.120  0.00  0.00    +0.000 A 
ATOM      9  C   UNL     1       1.777   7.712  20.356  0.00  0.00    +0.000 A 
ATOM     10  C   UNL     1       1.030   8.894  20.511  0.00  0.00    +0.000 A 
ATOM     11 CL   UNL     1       0.339   9.222  22.063  0.00  0.00    +0.000 Cl
BRANCH   5  13
ATOM     12  C   UNL     1       0.489  12.036  18.853  0.00  0.00    +0.000 C 
ATOM     13  O   UNL     1       0.101  10.909  19.636  0.00  0.00    +0.000 OA
ENDBRANCH   5  13
ENDBRANCH   1   8
BRANCH   2  14
ATOM     14  C   UNL     1       3.657   3.905  18.426  0.00  0.00    +0.000 C 
BRANCH  14  15
ATOM     15  C   UNL     1       4.981   4.397  18.997  0.00  0.00    +0.000 C 
BRANCH  15  16
ATOM     16  C   UNL     1       6.070   4.416  17.927  0.00  0.00    +0.000 C 
BRANCH  16  17
ATOM     17  N   UNL     1       6.797   5.672  17.935  0.00  0.00    +0.000 N 
ATOM     18  C   UNL     1       7.760   5.986  18.848  0.00  0.00    +0.000 C 
ATOM     19  O   UNL     1       8.171   5.272  19.748  0.00  0.00    +0.000 OA
ATOM     20  C   UNL     1       8.243   7.382  18.586  0.00  0.00    +0.000 C 
ATOM     21  C   UNL     1       7.417   7.858  17.405  0.00  0.00    +0.000 C 
ATOM     22  C   UNL     1       6.494   6.713  17.106  0.00  0.00    +0.000 C 
ATOM     23  O   UNL     1       5.615   6.740  16.258  0.00  0.00    +0.000 OA
ENDBRANCH  16  17
ENDBRANCH  15  16
ENDBRANCH  14  15
ENDBRANCH   2  14
TORSDOF 6
ENDMDL
MODEL 7
REMARK VINA RESULT:      -6.9      2.855      5.308
REMARK  Name = 
REMARK  7 active torsions:
REMARK  status: ('A' for Active; 'I' for Inactive)
REMARK    1  A    between atoms: C_1  and  O_2
REMARK    2  A    between atoms: O_2  and  C_3
REMARK    3  A    between atoms: C_6  and  N_7
REMARK    4  A    between atoms: C_8  and  C_10
REMARK    5  A    between atoms: C_10  and  C_11
REMARK    6  A    between atoms: C_11  and  C_12
REMARK    7  A    between atoms: C_12  and  N_13
REMARK                            x       y       z     vdW  Elec       q    Type
REMARK                         _______ _______ _______ _____ _____    ______ ____
ROOT
ATOM      1  N   UNL     1       3.772   5.740  19.165  0.00  0.00    +0.000 N 
ATOM      2  C   UNL     1       2.596   6.472  19.110  0.00  0.00    +0.000 C 
ATOM      3  O   UNL     1       2.194   7.149  18.169  0.00  0.00    +0.000 OA
ATOM      4  H   UNL     1       3.951   5.206  20.007  0.00  0.00    +0.000 HD
ENDROOT
BRANCH   1   8
ATOM      5  C   UNL     1       6.710   5.548  16.106  0.00  0.00    +0.000 A 
ATOM      6  C   UNL     1       5.664   4.630  16.133  0.00  0.00    +0.000 A 
ATOM      7  C   UNL     1       4.691   4.687  17.133  0.00  0.00    +0.000 A 
ATOM      8  C   UNL     1       4.745   5.649  18.142  0.00  0.00    +0.000 A 
ATOM      9  C   UNL     1       5.802   6.564  18.135  0.00  0.00    +0.000 A 
ATOM     10  C   UNL     1       6.782   6.508  17.127  0.00  0.00    +0.000 A 
ATOM     11 CL   UNL     1       8.062   7.672  17.170  0.00  0.00    +0.000 Cl
BRANCH   5  13
ATOM     12  C   UNL     1       7.310   4.992  13.887  0.00  0.00    +0.000 C 
ATOM     13  O   UNL     1       7.693   5.534  15.149  0.00  0.00    +0.000 OA
ENDBRANCH   5  13
ENDBRANCH   1   8
BRANCH   2  14
ATOM     14  C   UNL     1       1.791   6.437  20.388  0.00  0.00    +0.000 C 
BRANCH  14  15
ATOM     15  C   UNL     1       1.943   5.076  21.056  0.00  0.00    +0.000 C 
BRANCH  15  16
ATOM     16  C   UNL     1       1.033   4.037  20.406  0.00  0.00    +0.000 C 
BRANCH  16  17
ATOM     17  N   UNL     1       1.785   3.131  19.559  0.00  0.00    +0.000 N 
ATOM     18  C   UNL     1       2.822   2.363  20.001  0.00  0.00    +0.000 C 
ATOM     19  O   UNL     1       3.243   2.295  21.144  0.00  0.00    +0.000 OA
ATOM     20  C   UNL     1       3.396   1.605  18.840  0.00  0.00    +0.000 C 
ATOM     21  C   UNL     1       2.569   2.046  17.647  0.00  0.00    +0.000 C 
ATOM     22  C   UNL     1       1.610   3.056  18.208  0.00  0.00    +0.000 C 
ATOM     23  O   UNL     1       0.817   3.699  17.537  0.00  0.00    +0.000 OA
ENDBRANCH  16  17
ENDBRANCH  15  16
ENDBRANCH  14  15
ENDBRANCH   2  14
TORSDOF 6
ENDMDL
MODEL 8
REMARK VINA RESULT:      -6.8      0.914      1.072
REMARK  Name = 
REMARK  7 active torsions:
REMARK  status: ('A' for Active; 'I' for Inactive)
REMARK    1  A    between atoms: C_1  and  O_2
REMARK    2  A    between atoms: O_2  and  C_3
REMARK    3  A    between atoms: C_6  and  N_7
REMARK    4  A    between atoms: C_8  and  C_10
REMARK    5  A    between atoms: C_10  and  C_11
REMARK    6  A    between atoms: C_11  and  C_12
REMARK    7  A    between atoms: C_12  and  N_13
REMARK                            x       y       z     vdW  Elec       q    Type
REMARK                         _______ _______ _______ _____ _____    ______ ____
ROOT
ATOM      1  N   UNL     1       3.613   5.954  18.698  0.00  0.00    +0.000 N 
ATOM      2  C   UNL     1       4.457   5.668  17.637  0.00  0.00    +0.000 C 
ATOM      3  O   UNL     1       4.666   6.371  16.654  0.00  0.00    +0.000 OA
ATOM      4  H   UNL     1       3.568   5.282  19.455  0.00  0.00    +0.000 HD
ENDROOT
BRANCH   1   8
ATOM      5  C   UNL     1       1.177   9.399  19.180  0.00  0.00    +0.000 A 
ATOM      6  C   UNL     1       1.898   9.207  18.003  0.00  0.00    +0.000 A 
ATOM      7  C   UNL     1       2.699   8.076  17.835  0.00  0.00    +0.000 A 
ATOM      8  C   UNL     1       2.816   7.115  18.839  0.00  0.00    +0.000 A 
ATOM      9  C   UNL     1       2.111   7.307  20.031  0.00  0.00    +0.000 A 
ATOM     10  C   UNL     1       1.303   8.446  20.201  0.00  0.00    +0.000 A 
ATOM     11 CL   UNL     1       0.451   8.624  21.698  0.00  0.00    +0.000 Cl
BRANCH   5  13
ATOM     12  C   UNL     1       0.838  11.711  18.814  0.00  0.00    +0.000 C 
ATOM     13  O   UNL     1       0.379  10.493  19.397  0.00  0.00    +0.000 OA
ENDBRANCH   5  13
ENDBRANCH   1   8
BRANCH   2  14
ATOM     14  C   UNL     1       5.121   4.314  17.729  0.00  0.00    +0.000 C 
BRANCH  14  15
ATOM     15  C   UNL     1       4.944   3.748  19.132  0.00  0.00    +0.000 C 
BRANCH  15  16
ATOM     16  C   UNL     1       4.149   2.445  19.106  0.00  0.00    +0.000 C 
BRANCH  16  17
ATOM     17  N   UNL     1       2.792   2.643  19.581  0.00  0.00    +0.000 N 
ATOM     18  C   UNL     1       1.747   2.981  18.772  0.00  0.00    +0.000 C 
ATOM     19  O   UNL     1       1.781   3.130  17.561  0.00  0.00    +0.000 OA
ATOM     20  C   UNL     1       0.519   3.162  19.615  0.00  0.00    +0.000 C 
ATOM     21  C   UNL     1       0.986   2.906  21.035  0.00  0.00    +0.000 C 
ATOM     22  C   UNL     1       2.458   2.638  20.903  0.00  0.00    +0.000 C 
ATOM     23  O   UNL     1       3.212   2.457  21.847  0.00  0.00    +0.000 OA
ENDBRANCH  16  17
ENDBRANCH  15  16
ENDBRANCH  14  15
ENDBRANCH   2  14
TORSDOF 6
ENDMDL
MODEL 9
REMARK VINA RESULT:      -6.8      1.576      2.053
REMARK  Name = 
REMARK  7 active torsions:
REMARK  status: ('A' for Active; 'I' for Inactive)
REMARK    1  A    between atoms: C_1  and  O_2
REMARK    2  A    between atoms: O_2  and  C_3
REMARK    3  A    between atoms: C_6  and  N_7
REMARK    4  A    between atoms: C_8  and  C_10
REMARK    5  A    between atoms: C_10  and  C_11
REMARK    6  A    between atoms: C_11  and  C_12
REMARK    7  A    between atoms: C_12  and  N_13
REMARK                            x       y       z     vdW  Elec       q    Type
REMARK                         _______ _______ _______ _____ _____    ______ ____
ROOT
ATOM      1  N   UNL     1       3.001   6.328  18.810  0.00  0.00    +0.000 N 
ATOM      2  C   UNL     1       2.517   5.347  17.960  0.00  0.00    +0.000 C 
ATOM      3  O   UNL     1       1.352   5.182  17.614  0.00  0.00    +0.000 OA
ATOM      4  H   UNL     1       4.000   6.352  18.978  0.00  0.00    +0.000 HD
ENDROOT
BRANCH   1   8
ATOM      5  C   UNL     1       0.721   9.374  20.695  0.00  0.00    +0.000 A 
ATOM      6  C   UNL     1       1.008   8.191  21.372  0.00  0.00    +0.000 A 
ATOM      7  C   UNL     1       1.759   7.185  20.761  0.00  0.00    +0.000 A 
ATOM      8  C   UNL     1       2.231   7.324  19.456  0.00  0.00    +0.000 A 
ATOM      9  C   UNL     1       1.933   8.501  18.761  0.00  0.00    +0.000 A 
ATOM     10  C   UNL     1       1.176   9.515  19.376  0.00  0.00    +0.000 A 
ATOM     11 CL   UNL     1       0.846  10.949  18.466  0.00  0.00    +0.000 Cl
BRANCH   5  13
ATOM     12  C   UNL     1      -0.450  10.174  22.588  0.00  0.00    +0.000 C 
ATOM     13  O   UNL     1      -0.015  10.391  21.248  0.00  0.00    +0.000 OA
ENDBRANCH   5  13
ENDBRANCH   1   8
BRANCH   2  14
ATOM     14  C   UNL     1       3.572   4.376  17.482  0.00  0.00    +0.000 C 
BRANCH  14  15
ATOM     15  C   UNL     1       2.908   3.096  16.989  0.00  0.00    +0.000 C 
BRANCH  15  16
ATOM     16  C   UNL     1       3.162   1.936  17.949  0.00  0.00    +0.000 C 
BRANCH  16  17
ATOM     17  N   UNL     1       2.671   2.235  19.281  0.00  0.00    +0.000 N 
ATOM     18  C   UNL     1       1.350   2.376  19.588  0.00  0.00    +0.000 C 
ATOM     19  O   UNL     1       0.406   2.243  18.827  0.00  0.00    +0.000 OA
ATOM     20  C   UNL     1       1.224   2.742  21.038  0.00  0.00    +0.000 C 
ATOM     21  C   UNL     1       2.654   2.820  21.540  0.00  0.00    +0.000 C 
ATOM     22  C   UNL     1       3.493   2.532  20.328  0.00  0.00    +0.000 C 
ATOM     23  O   UNL     1       4.714   2.574  20.310  0.00  0.00    +0.000 OA
ENDBRANCH  16  17
ENDBRANCH  15  16
ENDBRANCH  14  15
ENDBRANCH   2  14
TORSDOF 6
ENDMDL
