MODEL 1
REMARK VINA RESULT:      -9.7      0.000      0.000
REMARK  Name = 
REMARK  8 active torsions:
REMARK  status: ('A' for Active; 'I' for Inactive)
REMARK    1  A    between atoms: C_2  and  C_3
REMARK    2  A    between atoms: C_3  and  O_4
REMARK    3  A    between atoms: O_4  and  C_5
REMARK    4  A    between atoms: N_20  and  CA_21
REMARK    5  A    between atoms: CA_21  and  CB_22
REMARK    6  A    between atoms: CA_21  and  C_32
REMARK    7  A    between atoms: CB_22  and  CG_23
REMARK    8  A    between atoms: C_32  and  OXT_34
REMARK                            x       y       z     vdW  Elec       q    Type
REMARK                         _______ _______ _______ _____ _____    ______ ____
ROOT
ATOM      1  O   UNK A   0       8.163   6.519  18.540  0.00  0.00    +0.000 OA
ATOM      2  C   UNK A   0       7.716   7.435  17.867  0.00  0.00    +0.000 C 
ATOM      3  N   TRP A   1       6.698   7.291  16.954  0.00  0.00    +0.000 N 
ATOM      4  H   TRP A   1       6.652   7.943  16.173  0.00  0.00    +0.000 HD
ENDROOT
BRANCH   2   5
ATOM      5  C   UNK A   0       8.138   8.880  18.034  0.00  0.00    +0.000 C 
BRANCH   5   6
ATOM      6  O   UNK A   0       9.093   9.026  19.071  0.00  0.00    +0.000 OA
BRANCH   6   7
ATOM      7  C   UNK A   0       9.370  10.328  19.388  0.00  0.00    +0.000 A 
ATOM      8  C   UNK A   0       9.281  10.872  20.669  0.00  0.00    +0.000 A 
ATOM      9  C   UNK A   0       9.581  12.217  20.891  0.00  0.00    +0.000 A 
ATOM     10  C   UNK A   0       9.988  13.051  19.849  0.00  0.00    +0.000 A 
ATOM     11  C   UNK A   0      10.060  12.479  18.574  0.00  0.00    +0.000 A 
ATOM     12  C   UNK A   0       9.762  11.140  18.330  0.00  0.00    +0.000 A 
ATOM     13  O   UNK A   0      10.446  13.246  17.457  0.00  0.00    +0.000 OA
ATOM     14  C   UNK A   0      10.788  14.588  17.545  0.00  0.00    +0.000 A 
ATOM     15  O   UNK A   0      11.103  15.238  16.554  0.00  0.00    +0.000 OA
ATOM     16  C   UNK A   0      10.765  15.195  18.899  0.00  0.00    +0.000 A 
ATOM     17  C   UNK A   0      11.163  16.536  19.032  0.00  0.00    +0.000 A 
ATOM     18  C   UNK A   0      11.152  17.153  20.281  0.00  0.00    +0.000 A 
ATOM     19  C   UNK A   0      10.734  16.440  21.396  0.00  0.00    +0.000 A 
ATOM     20  C   UNK A   0      10.341  15.110  21.266  0.00  0.00    +0.000 A 
ATOM     21  C   UNK A   0      10.357  14.456  20.018  0.00  0.00    +0.000 A 
ENDBRANCH   6   7
ENDBRANCH   5   6
ENDBRANCH   2   5
BRANCH   3  22
ATOM     22  CA  TRP A   1       6.037   6.010  16.760  0.00  0.00    +0.000 C 
BRANCH  22  23
ATOM     23  C   TRP A   1       6.437   5.527  15.349  0.00  0.00    +0.000 C 
ATOM     24  O   TRP A   1       5.586   5.215  14.519  0.00  0.00    +0.000 OA
BRANCH  23  25
ATOM     25  OXT TRP A   1       7.737   5.601  15.029  0.00  0.00    +0.000 OA
ATOM     26  HXT TRP A   1       7.926   5.934  14.139  0.00  0.00    +0.000 HD
ENDBRANCH  23  25
ENDBRANCH  22  23
BRANCH  22  27
ATOM     27  CB  TRP A   1       4.544   6.103  17.095  0.00  0.00    +0.000 C 
BRANCH  27  28
ATOM     28  CG  TRP A   1       3.874   4.904  17.690  0.00  0.00    +0.000 A 
ATOM     29  CD1 TRP A   1       3.833   3.701  16.986  0.00  0.00    +0.000 A 
ATOM     30  NE1 TRP A   1       3.400   2.767  17.882  0.00  0.00    +0.000 N 
ATOM     31  CE2 TRP A   1       2.509   3.435  18.692  0.00  0.00    +0.000 A 
ATOM     32  CZ2 TRP A   1       1.320   3.008  19.271  0.00  0.00    +0.000 A 
ATOM     33  CH2 TRP A   1       0.790   3.828  20.256  0.00  0.00    +0.000 A 
ATOM     34  CZ3 TRP A   1       1.506   4.941  20.708  0.00  0.00    +0.000 A 
ATOM     35  CE3 TRP A   1       2.661   5.396  20.032  0.00  0.00    +0.000 A 
ATOM     36  CD2 TRP A   1       3.084   4.692  18.887  0.00  0.00    +0.000 A 
ATOM     37  HE1 TRP A   1       4.083   2.153  18.314  0.00  0.00    +0.000 HD
ENDBRANCH  27  28
ENDBRANCH  22  27
ENDBRANCH   3  22
TORSDOF 8
ENDMDL
MODEL 2
REMARK VINA RESULT:      -9.6      0.865      1.001
REMARK  Name = 
REMARK  8 active torsions:
REMARK  status: ('A' for Active; 'I' for Inactive)
REMARK    1  A    between atoms: C_2  and  C_3
REMARK    2  A    between atoms: C_3  and  O_4
REMARK    3  A    between atoms: O_4  and  C_5
REMARK    4  A    between atoms: N_20  and  CA_21
REMARK    5  A    between atoms: CA_21  and  CB_22
REMARK    6  A    between atoms: CA_21  and  C_32
REMARK    7  A    between atoms: CB_22  and  CG_23
REMARK    8  A    between atoms: C_32  and  OXT_34
REMARK                            x       y       z     vdW  Elec       q    Type
REMARK                         _______ _______ _______ _____ _____    ______ ____
ROOT
ATOM      1  O   UNK A   0       8.109   6.640  18.802  0.00  0.00    +0.000 OA
ATOM      2  C   UNK A   0       7.820   7.475  17.960  0.00  0.00    +0.000 C 
ATOM      3  N   TRP A   1       7.003   7.227  16.881  0.00  0.00    +0.000 N 
ATOM      4  H   TRP A   1       7.124   7.791  16.042  0.00  0.00    +0.000 HD
ENDROOT
BRANCH   2   5
ATOM      5  C   UNK A   0       8.220   8.933  18.054  0.00  0.00    +0.000 C 
BRANCH   5   6
ATOM      6  O   UNK A   0       9.241   9.130  19.016  0.00  0.00    +0.000 OA
BRANCH   6   7
ATOM      7  C   UNK A   0       9.438  10.442  19.352  0.00  0.00    +0.000 A 
ATOM      8  C   UNK A   0       9.266  10.970  20.631  0.00  0.00    +0.000 A 
ATOM      9  C   UNK A   0       9.488  12.327  20.873  0.00  0.00    +0.000 A 
ATOM     10  C   UNK A   0       9.898  13.189  19.855  0.00  0.00    +0.000 A 
ATOM     11  C   UNK A   0      10.053  12.631  18.581  0.00  0.00    +0.000 A 
ATOM     12  C   UNK A   0       9.834  11.280  18.316  0.00  0.00    +0.000 A 
ATOM     13  O   UNK A   0      10.449  13.425  17.486  0.00  0.00    +0.000 OA
ATOM     14  C   UNK A   0      10.717  14.782  17.597  0.00  0.00    +0.000 A 
ATOM     15  O   UNK A   0      11.042  15.455  16.624  0.00  0.00    +0.000 OA
ATOM     16  C   UNK A   0      10.606  15.377  18.951  0.00  0.00    +0.000 A 
ATOM     17  C   UNK A   0      10.929  16.734  19.109  0.00  0.00    +0.000 A 
ATOM     18  C   UNK A   0      10.833  17.341  20.360  0.00  0.00    +0.000 A 
ATOM     19  C   UNK A   0      10.404  16.599  21.451  0.00  0.00    +0.000 A 
ATOM     20  C   UNK A   0      10.084  15.251  21.297  0.00  0.00    +0.000 A 
ATOM     21  C   UNK A   0      10.187  14.609  20.047  0.00  0.00    +0.000 A 
ENDBRANCH   6   7
ENDBRANCH   5   6
ENDBRANCH   2   5
BRANCH   3  22
ATOM     22  CA  TRP A   1       6.377   5.928  16.696  0.00  0.00    +0.000 C 
BRANCH  22  23
ATOM     23  C   TRP A   1       6.576   5.560  15.210  0.00  0.00    +0.000 C 
ATOM     24  O   TRP A   1       5.617   5.308  14.483  0.00  0.00    +0.000 OA
BRANCH  23  25
ATOM     25  OXT TRP A   1       7.820   5.669  14.720  0.00  0.00    +0.000 OA
ATOM     26  HXT TRP A   1       8.384   6.319  15.165  0.00  0.00    +0.000 HD
ENDBRANCH  23  25
ENDBRANCH  22  23
BRANCH  22  27
ATOM     27  CB  TRP A   1       4.949   5.918  17.256  0.00  0.00    +0.000 C 
BRANCH  27  28
ATOM     28  CG  TRP A   1       4.529   4.761  18.108  0.00  0.00    +0.000 A 
ATOM     29  CD1 TRP A   1       5.481   3.865  18.595  0.00  0.00    +0.000 A 
ATOM     30  NE1 TRP A   1       4.828   3.105  19.520  0.00  0.00    +0.000 N 
ATOM     31  CE2 TRP A   1       3.546   2.972  19.035  0.00  0.00    +0.000 A 
ATOM     32  CZ2 TRP A   1       2.671   1.894  19.080  0.00  0.00    +0.000 A 
ATOM     33  CH2 TRP A   1       1.352   2.161  18.743  0.00  0.00    +0.000 A 
ATOM     34  CZ3 TRP A   1       0.937   3.477  18.512  0.00  0.00    +0.000 A 
ATOM     35  CE3 TRP A   1       1.870   4.530  18.381  0.00  0.00    +0.000 A 
ATOM     36  CD2 TRP A   1       3.240   4.225  18.502  0.00  0.00    +0.000 A 
ATOM     37  HE1 TRP A   1       4.955   3.320  20.505  0.00  0.00    +0.000 HD
ENDBRANCH  27  28
ENDBRANCH  22  27
ENDBRANCH   3  22
TORSDOF 8
ENDMDL
MODEL 3
REMARK VINA RESULT:      -9.5      5.419      8.384
REMARK  Name = 
REMARK  8 active torsions:
REMARK  status: ('A' for Active; 'I' for Inactive)
REMARK    1  A    between atoms: C_2  and  C_3
REMARK    2  A    between atoms: C_3  and  O_4
REMARK    3  A    between atoms: O_4  and  C_5
REMARK    4  A    between atoms: N_20  and  CA_21
REMARK    5  A    between atoms: CA_21  and  CB_22
REMARK    6  A    between atoms: CA_21  and  C_32
REMARK    7  A    between atoms: CB_22  and  CG_23
REMARK    8  A    between atoms: C_32  and  OXT_34
REMARK                            x       y       z     vdW  Elec       q    Type
REMARK                         _______ _______ _______ _____ _____    ______ ____
ROOT
ATOM      1  O   UNK A   0       5.604   3.782  19.563  0.00  0.00    +0.000 OA
ATOM      2  C   UNK A   0       5.125   4.853  19.226  0.00  0.00    +0.000 C 
ATOM      3  N   TRP A   1       5.846   5.868  18.641  0.00  0.00    +0.000 N 
ATOM      4  H   TRP A   1       5.519   6.824  18.758  0.00  0.00    +0.000 HD
ENDROOT
BRANCH   2   5
ATOM      5  C   UNK A   0       3.644   5.167  19.294  0.00  0.00    +0.000 C 
BRANCH   5   6
ATOM      6  O   UNK A   0       3.234   5.974  18.204  0.00  0.00    +0.000 OA
BRANCH   6   7
ATOM      7  C   UNK A   0       2.593   7.124  18.578  0.00  0.00    +0.000 A 
ATOM      8  C   UNK A   0       2.263   8.168  17.714  0.00  0.00    +0.000 A 
ATOM      9  C   UNK A   0       1.611   9.305  18.194  0.00  0.00    +0.000 A 
ATOM     10  C   UNK A   0       1.260   9.427  19.538  0.00  0.00    +0.000 A 
ATOM     11  C   UNK A   0       1.611   8.368  20.382  0.00  0.00    +0.000 A 
ATOM     12  C   UNK A   0       2.266   7.225  19.925  0.00  0.00    +0.000 A 
ATOM     13  O   UNK A   0       1.313   8.407  21.758  0.00  0.00    +0.000 OA
ATOM     14  C   UNK A   0       0.652   9.470  22.356  0.00  0.00    +0.000 A 
ATOM     15  O   UNK A   0       0.421   9.489  23.561  0.00  0.00    +0.000 OA
ATOM     16  C   UNK A   0       0.228  10.579  21.466  0.00  0.00    +0.000 A 
ATOM     17  C   UNK A   0      -0.495  11.643  22.029  0.00  0.00    +0.000 A 
ATOM     18  C   UNK A   0      -0.910  12.711  21.235  0.00  0.00    +0.000 A 
ATOM     19  C   UNK A   0      -0.594  12.726  19.884  0.00  0.00    +0.000 A 
ATOM     20  C   UNK A   0       0.123  11.670  19.324  0.00  0.00    +0.000 A 
ATOM     21  C   UNK A   0       0.541  10.571  20.099  0.00  0.00    +0.000 A 
ENDBRANCH   6   7
ENDBRANCH   5   6
ENDBRANCH   2   5
BRANCH   3  22
ATOM     22  CA  TRP A   1       7.258   5.705  18.334  0.00  0.00    +0.000 C 
BRANCH  22  23
ATOM     23  C   TRP A   1       7.757   7.086  17.854  0.00  0.00    +0.000 C 
ATOM     24  O   TRP A   1       7.359   7.575  16.800  0.00  0.00    +0.000 OA
BRANCH  23  25
ATOM     25  OXT TRP A   1       8.525   7.781  18.706  0.00  0.00    +0.000 OA
ATOM     26  HXT TRP A   1       9.479   7.632  18.619  0.00  0.00    +0.000 HD
ENDBRANCH  23  25
ENDBRANCH  22  23
BRANCH  22  27
ATOM     27  CB  TRP A   1       7.488   4.497  17.418  0.00  0.00    +0.000 C 
BRANCH  27  28
ATOM     28  CG  TRP A   1       6.689   4.399  16.156  0.00  0.00    +0.000 A 
ATOM     29  CD1 TRP A   1       5.486   3.693  16.140  0.00  0.00    +0.000 A 
ATOM     30  NE1 TRP A   1       4.894   4.006  14.951  0.00  0.00    +0.000 N 
ATOM     31  CE2 TRP A   1       5.934   4.149  14.060  0.00  0.00    +0.000 A 
ATOM     32  CZ2 TRP A   1       6.027   3.803  12.717  0.00  0.00    +0.000 A 
ATOM     33  CH2 TRP A   1       7.109   4.324  12.025  0.00  0.00    +0.000 A 
ATOM     34  CZ3 TRP A   1       7.960   5.249  12.638  0.00  0.00    +0.000 A 
ATOM     35  CE3 TRP A   1       7.892   5.503  14.026  0.00  0.00    +0.000 A 
ATOM     36  CD2 TRP A   1       6.931   4.804  14.785  0.00  0.00    +0.000 A 
ATOM     37  HE1 TRP A   1       4.150   4.696  14.945  0.00  0.00    +0.000 HD
ENDBRANCH  27  28
ENDBRANCH  22  27
ENDBRANCH   3  22
TORSDOF 8
ENDMDL
MODEL 4
REMARK VINA RESULT:      -9.4      6.418      7.897
REMARK  Name = 
REMARK  8 active torsions:
REMARK  status: ('A' for Active; 'I' for Inactive)
REMARK    1  A    between atoms: C_2  and  C_3
REMARK    2  A    between atoms: C_3  and  O_4
REMARK    3  A    between atoms: O_4  and  C_5
REMARK    4  A    between atoms: N_20  and  CA_21
REMARK    5  A    between atoms: CA_21  and  CB_22
REMARK    6  A    between atoms: CA_21  and  C_32
REMARK    7  A    between atoms: CB_22  and  CG_23
REMARK    8  A    between atoms: C_32  and  OXT_34
REMARK                            x       y       z     vdW  Elec       q    Type
REMARK                         _______ _______ _______ _____ _____    ______ ____
ROOT
ATOM      1  O   UNK A   0       6.105   6.830  17.906  0.00  0.00    +0.000 OA
ATOM      2  C   UNK A   0       5.070   6.635  17.289  0.00  0.00    +0.000 C 
ATOM      3  N   TRP A   1       4.788   5.472  16.610  0.00  0.00    +0.000 N 
ATOM      4  H   TRP A   1       4.147   5.515  15.820  0.00  0.00    +0.000 HD
ENDROOT
BRANCH   2   5
ATOM      5  C   UNK A   0       3.900   7.598  17.287  0.00  0.00    +0.000 C 
BRANCH   5   6
ATOM      6  O   UNK A   0       2.810   7.091  18.037  0.00  0.00    +0.000 OA
BRANCH   6   7
ATOM      7  C   UNK A   0       2.038   8.063  18.615  0.00  0.00    +0.000 A 
ATOM      8  C   UNK A   0       1.403   9.092  17.922  0.00  0.00    +0.000 A 
ATOM      9  C   UNK A   0       0.639  10.040  18.604  0.00  0.00    +0.000 A 
ATOM     10  C   UNK A   0       0.476   9.981  19.988  0.00  0.00    +0.000 A 
ATOM     11  C   UNK A   0       1.132   8.942  20.657  0.00  0.00    +0.000 A 
ATOM     12  C   UNK A   0       1.903   7.987  19.997  0.00  0.00    +0.000 A 
ATOM     13  O   UNK A   0       1.040   8.809  22.057  0.00  0.00    +0.000 OA
ATOM     14  C   UNK A   0       0.298   9.673  22.849  0.00  0.00    +0.000 A 
ATOM     15  O   UNK A   0       0.249   9.547  24.068  0.00  0.00    +0.000 OA
ATOM     16  C   UNK A   0      -0.444  10.751  22.149  0.00  0.00    +0.000 A 
ATOM     17  C   UNK A   0      -1.253  11.607  22.914  0.00  0.00    +0.000 A 
ATOM     18  C   UNK A   0      -1.964  12.638  22.304  0.00  0.00    +0.000 A 
ATOM     19  C   UNK A   0      -1.860  12.825  20.933  0.00  0.00    +0.000 A 
ATOM     20  C   UNK A   0      -1.060  11.976  20.171  0.00  0.00    +0.000 A 
ATOM     21  C   UNK A   0      -0.343  10.916  20.760  0.00  0.00    +0.000 A 
ENDBRANCH   6   7
ENDBRANCH   5   6
ENDBRANCH   2   5
BRANCH   3  22
ATOM     22  CA  TRP A   1       5.712   4.350  16.625  0.00  0.00    +0.000 C 
BRANCH  22  23
ATOM     23  C   TRP A   1       6.483   4.407  15.288  0.00  0.00    +0.000 C 
ATOM     24  O   TRP A   1       7.378   5.230  15.104  0.00  0.00    +0.000 OA
BRANCH  23  25
ATOM     25  OXT TRP A   1       6.231   3.433  14.401  0.00  0.00    +0.000 OA
ATOM     26  HXT TRP A   1       6.828   3.403  13.639  0.00  0.00    +0.000 HD
ENDBRANCH  23  25
ENDBRANCH  22  23
BRANCH  22  27
ATOM     27  CB  TRP A   1       4.993   3.045  16.987  0.00  0.00    +0.000 C 
BRANCH  27  28
ATOM     28  CG  TRP A   1       3.651   3.134  17.644  0.00  0.00    +0.000 A 
ATOM     29  CD1 TRP A   1       2.558   3.645  16.944  0.00  0.00    +0.000 A 
ATOM     30  NE1 TRP A   1       1.466   3.355  17.708  0.00  0.00    +0.000 N 
ATOM     31  CE2 TRP A   1       1.902   3.455  19.010  0.00  0.00    +0.000 A 
ATOM     32  CZ2 TRP A   1       1.257   3.933  20.145  0.00  0.00    +0.000 A 
ATOM     33  CH2 TRP A   1       1.865   3.650  21.359  0.00  0.00    +0.000 A 
ATOM     34  CZ3 TRP A   1       2.985   2.814  21.408  0.00  0.00    +0.000 A 
ATOM     35  CE3 TRP A   1       3.667   2.427  20.233  0.00  0.00    +0.000 A 
ATOM     36  CD2 TRP A   1       3.182   2.898  18.996  0.00  0.00    +0.000 A 
ATOM     37  HE1 TRP A   1       0.887   2.562  17.449  0.00  0.00    +0.000 HD
ENDBRANCH  27  28
ENDBRANCH  22  27
ENDBRANCH   3  22
TORSDOF 8
ENDMDL
MODEL 5
REMARK VINA RESULT:      -9.3      1.638      2.469
REMARK  Name = 
REMARK  8 active torsions:
REMARK  status: ('A' for Active; 'I' for Inactive)
REMARK    1  A    between atoms: C_2  and  C_3
REMARK    2  A    between atoms: C_3  and  O_4
REMARK    3  A    between atoms: O_4  and  C_5
REMARK    4  A    between atoms: N_20  and  CA_21
REMARK    5  A    between atoms: CA_21  and  CB_22
REMARK    6  A    between atoms: CA_21  and  C_32
REMARK    7  A    between atoms: CB_22  and  CG_23
REMARK    8  A    between atoms: C_32  and  OXT_34
REMARK                            x       y       z     vdW  Elec       q    Type
REMARK                         _______ _______ _______ _____ _____    ______ ____
ROOT
ATOM      1  O   UNK A   0       8.244   6.907  18.851  0.00  0.00    +0.000 OA
ATOM      2  C   UNK A   0       7.868   7.703  18.005  0.00  0.00    +0.000 C 
ATOM      3  N   TRP A   1       6.881   7.436  17.084  0.00  0.00    +0.000 N 
ATOM      4  H   TRP A   1       6.897   7.938  16.199  0.00  0.00    +0.000 HD
ENDROOT
BRANCH   2   5
ATOM      5  C   UNK A   0       8.348   9.138  17.932  0.00  0.00    +0.000 C 
BRANCH   5   6
ATOM      6  O   UNK A   0       9.082   9.500  19.089  0.00  0.00    +0.000 OA
BRANCH   6   7
ATOM      7  C   UNK A   0       9.638  10.748  19.023  0.00  0.00    +0.000 A 
ATOM      8  C   UNK A   0      10.332  11.253  17.925  0.00  0.00    +0.000 A 
ATOM      9  C   UNK A   0      10.868  12.542  17.957  0.00  0.00    +0.000 A 
ATOM     10  C   UNK A   0      10.718  13.363  19.074  0.00  0.00    +0.000 A 
ATOM     11  C   UNK A   0      10.025  12.825  20.164  0.00  0.00    +0.000 A 
ATOM     12  C   UNK A   0       9.484  11.540  20.155  0.00  0.00    +0.000 A 
ATOM     13  O   UNK A   0       9.837  13.573  21.344  0.00  0.00    +0.000 OA
ATOM     14  C   UNK A   0      10.304  14.870  21.496  0.00  0.00    +0.000 A 
ATOM     15  O   UNK A   0      10.143  15.493  22.541  0.00  0.00    +0.000 OA
ATOM     16  C   UNK A   0      10.997  15.472  20.331  0.00  0.00    +0.000 A 
ATOM     17  C   UNK A   0      11.430  16.805  20.431  0.00  0.00    +0.000 A 
ATOM     18  C   UNK A   0      12.091  17.413  19.366  0.00  0.00    +0.000 A 
ATOM     19  C   UNK A   0      12.333  16.691  18.206  0.00  0.00    +0.000 A 
ATOM     20  C   UNK A   0      11.904  15.369  18.104  0.00  0.00    +0.000 A 
ATOM     21  C   UNK A   0      11.218  14.734  19.159  0.00  0.00    +0.000 A 
ENDBRANCH   6   7
ENDBRANCH   5   6
ENDBRANCH   2   5
BRANCH   3  22
ATOM     22  CA  TRP A   1       6.171   6.168  17.091  0.00  0.00    +0.000 C 
BRANCH  22  23
ATOM     23  C   TRP A   1       7.024   5.190  16.255  0.00  0.00    +0.000 C 
ATOM     24  O   TRP A   1       7.458   5.508  15.150  0.00  0.00    +0.000 OA
BRANCH  23  25
ATOM     25  OXT TRP A   1       7.388   4.044  16.849  0.00  0.00    +0.000 OA
ATOM     26  HXT TRP A   1       7.080   3.235  16.413  0.00  0.00    +0.000 HD
ENDBRANCH  23  25
ENDBRANCH  22  23
BRANCH  22  27
ATOM     27  CB  TRP A   1       4.700   6.356  16.700  0.00  0.00    +0.000 C 
BRANCH  27  28
ATOM     28  CG  TRP A   1       3.651   5.708  17.548  0.00  0.00    +0.000 A 
ATOM     29  CD1 TRP A   1       2.911   6.467  18.453  0.00  0.00    +0.000 A 
ATOM     30  NE1 TRP A   1       1.894   5.657  18.866  0.00  0.00    +0.000 N 
ATOM     31  CE2 TRP A   1       2.435   4.391  18.895  0.00  0.00    +0.000 A 
ATOM     32  CZ2 TRP A   1       2.223   3.338  19.777  0.00  0.00    +0.000 A 
ATOM     33  CH2 TRP A   1       2.709   2.101  19.381  0.00  0.00    +0.000 A 
ATOM     34  CZ3 TRP A   1       3.252   1.933  18.103  0.00  0.00    +0.000 A 
ATOM     35  CE3 TRP A   1       3.537   3.041  17.274  0.00  0.00    +0.000 A 
ATOM     36  CD2 TRP A   1       3.250   4.330  17.763  0.00  0.00    +0.000 A 
ATOM     37  HE1 TRP A   1       0.973   5.783  18.457  0.00  0.00    +0.000 HD
ENDBRANCH  27  28
ENDBRANCH  22  27
ENDBRANCH   3  22
TORSDOF 8
ENDMDL
MODEL 6
REMARK VINA RESULT:      -9.3      6.169      7.645
REMARK  Name = 
REMARK  8 active torsions:
REMARK  status: ('A' for Active; 'I' for Inactive)
REMARK    1  A    between atoms: C_2  and  C_3
REMARK    2  A    between atoms: C_3  and  O_4
REMARK    3  A    between atoms: O_4  and  C_5
REMARK    4  A    between atoms: N_20  and  CA_21
REMARK    5  A    between atoms: CA_21  and  CB_22
REMARK    6  A    between atoms: CA_21  and  C_32
REMARK    7  A    between atoms: CB_22  and  CG_23
REMARK    8  A    between atoms: C_32  and  OXT_34
REMARK                            x       y       z     vdW  Elec       q    Type
REMARK                         _______ _______ _______ _____ _____    ______ ____
ROOT
ATOM      1  O   UNK A   0       6.367   6.632  17.990  0.00  0.00    +0.000 OA
ATOM      2  C   UNK A   0       5.480   6.739  17.158  0.00  0.00    +0.000 C 
ATOM      3  N   TRP A   1       5.233   5.810  16.174  0.00  0.00    +0.000 N 
ATOM      4  H   TRP A   1       4.791   6.122  15.312  0.00  0.00    +0.000 HD
ENDROOT
BRANCH   2   5
ATOM      5  C   UNK A   0       4.450   7.850  17.169  0.00  0.00    +0.000 C 
BRANCH   5   6
ATOM      6  O   UNK A   0       3.132   7.335  17.260  0.00  0.00    +0.000 OA
BRANCH   6   7
ATOM      7  C   UNK A   0       2.383   7.906  18.253  0.00  0.00    +0.000 A 
ATOM      8  C   UNK A   0       2.264   7.405  19.549  0.00  0.00    +0.000 A 
ATOM      9  C   UNK A   0       1.470   8.059  20.491  0.00  0.00    +0.000 A 
ATOM     10  C   UNK A   0       0.784   9.232  20.174  0.00  0.00    +0.000 A 
ATOM     11  C   UNK A   0       0.915   9.705  18.864  0.00  0.00    +0.000 A 
ATOM     12  C   UNK A   0       1.701   9.067  17.906  0.00  0.00    +0.000 A 
ATOM     13  O   UNK A   0       0.248  10.874  18.445  0.00  0.00    +0.000 OA
ATOM     14  C   UNK A   0      -0.557  11.625  19.289  0.00  0.00    +0.000 A 
ATOM     15  O   UNK A   0      -1.143  12.629  18.895  0.00  0.00    +0.000 OA
ATOM     16  C   UNK A   0      -0.666  11.164  20.695  0.00  0.00    +0.000 A 
ATOM     17  C   UNK A   0      -1.425  11.935  21.590  0.00  0.00    +0.000 A 
ATOM     18  C   UNK A   0      -1.563  11.540  22.919  0.00  0.00    +0.000 A 
ATOM     19  C   UNK A   0      -0.956  10.370  23.354  0.00  0.00    +0.000 A 
ATOM     20  C   UNK A   0      -0.202   9.604  22.468  0.00  0.00    +0.000 A 
ATOM     21  C   UNK A   0      -0.032   9.989  21.123  0.00  0.00    +0.000 A 
ENDBRANCH   6   7
ENDBRANCH   5   6
ENDBRANCH   2   5
BRANCH   3  22
ATOM     22  CA  TRP A   1       6.006   4.581  16.091  0.00  0.00    +0.000 C 
BRANCH  22  23
ATOM     23  C   TRP A   1       6.502   4.482  14.632  0.00  0.00    +0.000 C 
ATOM     24  O   TRP A   1       5.932   3.763  13.814  0.00  0.00    +0.000 OA
BRANCH  23  25
ATOM     25  OXT TRP A   1       7.484   5.319  14.267  0.00  0.00    +0.000 OA
ATOM     26  HXT TRP A   1       8.172   4.931  13.705  0.00  0.00    +0.000 HD
ENDBRANCH  23  25
ENDBRANCH  22  23
BRANCH  22  27
ATOM     27  CB  TRP A   1       5.224   3.396  16.669  0.00  0.00    +0.000 C 
BRANCH  27  28
ATOM     28  CG  TRP A   1       4.478   3.595  17.952  0.00  0.00    +0.000 A 
ATOM     29  CD1 TRP A   1       5.159   3.583  19.169  0.00  0.00    +0.000 A 
ATOM     30  NE1 TRP A   1       4.264   4.040  20.093  0.00  0.00    +0.000 N 
ATOM     31  CE2 TRP A   1       3.042   3.565  19.673  0.00  0.00    +0.000 A 
ATOM     32  CZ2 TRP A   1       1.956   3.098  20.403  0.00  0.00    +0.000 A 
ATOM     33  CH2 TRP A   1       0.768   2.945  19.703  0.00  0.00    +0.000 A 
ATOM     34  CZ3 TRP A   1       0.672   3.375  18.376  0.00  0.00    +0.000 A 
ATOM     35  CE3 TRP A   1       1.818   3.754  17.641  0.00  0.00    +0.000 A 
ATOM     36  CD2 TRP A   1       3.070   3.699  18.284  0.00  0.00    +0.000 A 
ATOM     37  HE1 TRP A   1       4.331   5.006  20.399  0.00  0.00    +0.000 HD
ENDBRANCH  27  28
ENDBRANCH  22  27
ENDBRANCH   3  22
TORSDOF 8
ENDMDL
MODEL 7
REMARK VINA RESULT:      -9.3      6.371      7.949
REMARK  Name = 
REMARK  8 active torsions:
REMARK  status: ('A' for Active; 'I' for Inactive)
REMARK    1  A    between atoms: C_2  and  C_3
REMARK    2  A    between atoms: C_3  and  O_4
REMARK    3  A    between atoms: O_4  and  C_5
REMARK    4  A    between atoms: N_20  and  CA_21
REMARK    5  A    between atoms: CA_21  and  CB_22
REMARK    6  A    between atoms: CA_21  and  C_32
REMARK    7  A    between atoms: CB_22  and  CG_23
REMARK    8  A    between atoms: C_32  and  OXT_34
REMARK                            x       y       z     vdW  Elec       q    Type
REMARK                         _______ _______ _______ _____ _____    ______ ____
ROOT
ATOM      1  O   UNK A   0       6.001   6.961  17.837  0.00  0.00    +0.000 OA
ATOM      2  C   UNK A   0       4.917   6.805  17.297  0.00  0.00    +0.000 C 
ATOM      3  N   TRP A   1       4.509   5.624  16.721  0.00  0.00    +0.000 N 
ATOM      4  H   TRP A   1       3.824   5.663  15.970  0.00  0.00    +0.000 HD
ENDROOT
BRANCH   2   5
ATOM      5  C   UNK A   0       3.823   7.853  17.293  0.00  0.00    +0.000 C 
BRANCH   5   6
ATOM      6  O   UNK A   0       2.614   7.343  17.828  0.00  0.00    +0.000 OA
BRANCH   6   7
ATOM      7  C   UNK A   0       1.857   8.281  18.476  0.00  0.00    +0.000 A 
ATOM      8  C   UNK A   0       1.178   9.326  17.850  0.00  0.00    +0.000 A 
ATOM      9  C   UNK A   0       0.433  10.237  18.601  0.00  0.00    +0.000 A 
ATOM     10  C   UNK A   0       0.335  10.126  19.989  0.00  0.00    +0.000 A 
ATOM     11  C   UNK A   0       1.035   9.073  20.588  0.00  0.00    +0.000 A 
ATOM     12  C   UNK A   0       1.787   8.154  19.858  0.00  0.00    +0.000 A 
ATOM     13  O   UNK A   0       1.010   8.889  21.985  0.00  0.00    +0.000 OA
ATOM     14  C   UNK A   0       0.294   9.713  22.841  0.00  0.00    +0.000 A 
ATOM     15  O   UNK A   0       0.304   9.542  24.056  0.00  0.00    +0.000 OA
ATOM     16  C   UNK A   0      -0.493  10.804  22.216  0.00  0.00    +0.000 A 
ATOM     17  C   UNK A   0      -1.276  11.619  23.049  0.00  0.00    +0.000 A 
ATOM     18  C   UNK A   0      -2.029  12.661  22.509  0.00  0.00    +0.000 A 
ATOM     19  C   UNK A   0      -1.991  12.899  21.143  0.00  0.00    +0.000 A 
ATOM     20  C   UNK A   0      -1.216  12.090  20.315  0.00  0.00    +0.000 A 
ATOM     21  C   UNK A   0      -0.458  11.020  20.831  0.00  0.00    +0.000 A 
ENDBRANCH   6   7
ENDBRANCH   5   6
ENDBRANCH   2   5
BRANCH   3  22
ATOM     22  CA  TRP A   1       5.348   4.438  16.764  0.00  0.00    +0.000 C 
BRANCH  22  23
ATOM     23  C   TRP A   1       6.157   4.433  15.449  0.00  0.00    +0.000 C 
ATOM     24  O   TRP A   1       7.380   4.557  15.454  0.00  0.00    +0.000 OA
BRANCH  23  25
ATOM     25  OXT TRP A   1       5.485   4.145  14.325  0.00  0.00    +0.000 OA
ATOM     26  HXT TRP A   1       6.035   3.971  13.546  0.00  0.00    +0.000 HD
ENDBRANCH  23  25
ENDBRANCH  22  23
BRANCH  22  27
ATOM     27  CB  TRP A   1       4.525   3.190  17.109  0.00  0.00    +0.000 C 
BRANCH  27  28
ATOM     28  CG  TRP A   1       4.175   2.946  18.544  0.00  0.00    +0.000 A 
ATOM     29  CD1 TRP A   1       4.762   1.890  19.240  0.00  0.00    +0.000 A 
ATOM     30  NE1 TRP A   1       4.442   2.093  20.551  0.00  0.00    +0.000 N 
ATOM     31  CE2 TRP A   1       3.181   2.644  20.530  0.00  0.00    +0.000 A 
ATOM     32  CZ2 TRP A   1       2.102   2.464  21.389  0.00  0.00    +0.000 A 
ATOM     33  CH2 TRP A   1       1.059   3.368  21.258  0.00  0.00    +0.000 A 
ATOM     34  CZ3 TRP A   1       1.179   4.464  20.397  0.00  0.00    +0.000 A 
ATOM     35  CE3 TRP A   1       2.244   4.561  19.474  0.00  0.00    +0.000 A 
ATOM     36  CD2 TRP A   1       3.198   3.524  19.447  0.00  0.00    +0.000 A 
ATOM     37  HE1 TRP A   1       5.141   2.500  21.165  0.00  0.00    +0.000 HD
ENDBRANCH  27  28
ENDBRANCH  22  27
ENDBRANCH   3  22
TORSDOF 8
ENDMDL
MODEL 8
REMARK VINA RESULT:      -9.3      1.024      1.320
REMARK  Name = 
REMARK  8 active torsions:
REMARK  status: ('A' for Active; 'I' for Inactive)
REMARK    1  A    between atoms: C_2  and  C_3
REMARK    2  A    between atoms: C_3  and  O_4
REMARK    3  A    between atoms: O_4  and  C_5
REMARK    4  A    between atoms: N_20  and  CA_21
REMARK    5  A    between atoms: CA_21  and  CB_22
REMARK    6  A    between atoms: CA_21  and  C_32
REMARK    7  A    between atoms: CB_22  and  CG_23
REMARK    8  A    between atoms: C_32  and  OXT_34
REMARK                            x       y       z     vdW  Elec       q    Type
REMARK                         _______ _______ _______ _____ _____    ______ ____
ROOT
ATOM      1  O   UNK A   0       7.799   6.896  16.399  0.00  0.00    +0.000 OA
ATOM      2  C   UNK A   0       7.420   7.438  17.425  0.00  0.00    +0.000 C 
ATOM      3  N   TRP A   1       6.704   6.800  18.411  0.00  0.00    +0.000 N 
ATOM      4  H   TRP A   1       6.093   7.358  19.004  0.00  0.00    +0.000 HD
ENDROOT
BRANCH   2   5
ATOM      5  C   UNK A   0       7.791   8.856  17.811  0.00  0.00    +0.000 C 
BRANCH   5   6
ATOM      6  O   UNK A   0       8.863   8.877  18.737  0.00  0.00    +0.000 OA
BRANCH   6   7
ATOM      7  C   UNK A   0       9.212  10.135  19.150  0.00  0.00    +0.000 A 
ATOM      8  C   UNK A   0       9.166  10.580  20.471  0.00  0.00    +0.000 A 
ATOM      9  C   UNK A   0       9.538  11.886  20.791  0.00  0.00    +0.000 A 
ATOM     10  C   UNK A   0       9.977  12.777  19.812  0.00  0.00    +0.000 A 
ATOM     11  C   UNK A   0      10.004  12.305  18.495  0.00  0.00    +0.000 A 
ATOM     12  C   UNK A   0       9.633  11.005  18.152  0.00  0.00    +0.000 A 
ATOM     13  O   UNK A   0      10.417  13.136  17.435  0.00  0.00    +0.000 OA
ATOM     14  C   UNK A   0      10.829  14.447  17.622  0.00  0.00    +0.000 A 
ATOM     15  O   UNK A   0      11.166  15.157  16.680  0.00  0.00    +0.000 OA
ATOM     16  C   UNK A   0      10.853  14.947  19.019  0.00  0.00    +0.000 A 
ATOM     17  C   UNK A   0      11.322  16.251  19.249  0.00  0.00    +0.000 A 
ATOM     18  C   UNK A   0      11.359  16.768  20.543  0.00  0.00    +0.000 A 
ATOM     19  C   UNK A   0      10.917  15.992  21.605  0.00  0.00    +0.000 A 
ATOM     20  C   UNK A   0      10.453  14.698  21.378  0.00  0.00    +0.000 A 
ATOM     21  C   UNK A   0      10.420  14.144  20.083  0.00  0.00    +0.000 A 
ENDBRANCH   6   7
ENDBRANCH   5   6
ENDBRANCH   2   5
BRANCH   3  22
ATOM     22  CA  TRP A   1       6.385   5.385  18.312  0.00  0.00    +0.000 C 
BRANCH  22  23
ATOM     23  C   TRP A   1       7.710   4.666  17.978  0.00  0.00    +0.000 C 
ATOM     24  O   TRP A   1       8.584   4.514  18.829  0.00  0.00    +0.000 OA
BRANCH  23  25
ATOM     25  OXT TRP A   1       7.800   4.094  16.768  0.00  0.00    +0.000 OA
ATOM     26  HXT TRP A   1       7.894   3.129  16.772  0.00  0.00    +0.000 HD
ENDBRANCH  23  25
ENDBRANCH  22  23
BRANCH  22  27
ATOM     27  CB  TRP A   1       5.184   5.152  17.387  0.00  0.00    +0.000 C 
BRANCH  27  28
ATOM     28  CG  TRP A   1       4.133   4.179  17.821  0.00  0.00    +0.000 A 
ATOM     29  CD1 TRP A   1       3.731   3.153  16.966  0.00  0.00    +0.000 A 
ATOM     30  NE1 TRP A   1       2.976   2.313  17.732  0.00  0.00    +0.000 N 
ATOM     31  CE2 TRP A   1       2.319   3.133  18.622  0.00  0.00    +0.000 A 
ATOM     32  CZ2 TRP A   1       1.032   3.055  19.140  0.00  0.00    +0.000 A 
ATOM     33  CH2 TRP A   1       0.758   3.877  20.223  0.00  0.00    +0.000 A 
ATOM     34  CZ3 TRP A   1       1.779   4.625  20.817  0.00  0.00    +0.000 A 
ATOM     35  CE3 TRP A   1       3.047   4.753  20.207  0.00  0.00    +0.000 A 
ATOM     36  CD2 TRP A   1       3.266   4.095  18.980  0.00  0.00    +0.000 A 
ATOM     37  HE1 TRP A   1       3.401   1.459  18.080  0.00  0.00    +0.000 HD
ENDBRANCH  27  28
ENDBRANCH  22  27
ENDBRANCH   3  22
TORSDOF 8
ENDMDL
MODEL 9
REMARK VINA RESULT:      -9.2      6.883      8.184
REMARK  Name = 
REMARK  8 active torsions:
REMARK  status: ('A' for Active; 'I' for Inactive)
REMARK    1  A    between atoms: C_2  and  C_3
REMARK    2  A    between atoms: C_3  and  O_4
REMARK    3  A    between atoms: O_4  and  C_5
REMARK    4  A    between atoms: N_20  and  CA_21
REMARK    5  A    between atoms: CA_21  and  CB_22
REMARK    6  A    between atoms: CA_21  and  C_32
REMARK    7  A    between atoms: CB_22  and  CG_23
REMARK    8  A    between atoms: C_32  and  OXT_34
REMARK                            x       y       z     vdW  Elec       q    Type
REMARK                         _______ _______ _______ _____ _____    ______ ____
ROOT
ATOM      1  O   UNK A   0       4.298   5.867  19.606  0.00  0.00    +0.000 OA
ATOM      2  C   UNK A   0       3.779   5.950  18.504  0.00  0.00    +0.000 C 
ATOM      3  N   TRP A   1       4.301   5.383  17.364  0.00  0.00    +0.000 N 
ATOM      4  H   TRP A   1       4.075   5.805  16.466  0.00  0.00    +0.000 HD
ENDROOT
BRANCH   2   5
ATOM      5  C   UNK A   0       2.426   6.586  18.260  0.00  0.00    +0.000 C 
BRANCH   5   6
ATOM      6  O   UNK A   0       2.551   7.943  17.874  0.00  0.00    +0.000 OA
BRANCH   6   7
ATOM      7  C   UNK A   0       1.713   8.790  18.548  0.00  0.00    +0.000 A 
ATOM      8  C   UNK A   0       0.969   9.810  17.957  0.00  0.00    +0.000 A 
ATOM      9  C   UNK A   0       0.144  10.625  18.733  0.00  0.00    +0.000 A 
ATOM     10  C   UNK A   0       0.028  10.440  20.111  0.00  0.00    +0.000 A 
ATOM     11  C   UNK A   0       0.793   9.414  20.676  0.00  0.00    +0.000 A 
ATOM     12  C   UNK A   0       1.626   8.590  19.921  0.00  0.00    +0.000 A 
ATOM     13  O   UNK A   0       0.755   9.160  22.062  0.00  0.00    +0.000 OA
ATOM     14  C   UNK A   0      -0.038   9.886  22.939  0.00  0.00    +0.000 A 
ATOM     15  O   UNK A   0      -0.039   9.657  24.144  0.00  0.00    +0.000 OA
ATOM     16  C   UNK A   0      -0.893  10.945  22.348  0.00  0.00    +0.000 A 
ATOM     17  C   UNK A   0      -1.751  11.658  23.200  0.00  0.00    +0.000 A 
ATOM     18  C   UNK A   0      -2.569  12.666  22.694  0.00  0.00    +0.000 A 
ATOM     19  C   UNK A   0      -2.524  12.972  21.341  0.00  0.00    +0.000 A 
ATOM     20  C   UNK A   0      -1.673  12.265  20.494  0.00  0.00    +0.000 A 
ATOM     21  C   UNK A   0      -0.848  11.230  20.976  0.00  0.00    +0.000 A 
ENDBRANCH   6   7
ENDBRANCH   5   6
ENDBRANCH   2   5
BRANCH   3  22
ATOM     22  CA  TRP A   1       5.514   4.584  17.410  0.00  0.00    +0.000 C 
BRANCH  22  23
ATOM     23  C   TRP A   1       6.426   5.117  16.283  0.00  0.00    +0.000 C 
ATOM     24  O   TRP A   1       6.026   5.968  15.491  0.00  0.00    +0.000 OA
BRANCH  23  25
ATOM     25  OXT TRP A   1       7.706   4.718  16.300  0.00  0.00    +0.000 OA
ATOM     26  HXT TRP A   1       8.074   4.469  15.439  0.00  0.00    +0.000 HD
ENDBRANCH  23  25
ENDBRANCH  22  23
BRANCH  22  27
ATOM     27  CB  TRP A   1       5.189   3.085  17.428  0.00  0.00    +0.000 C 
BRANCH  27  28
ATOM     28  CG  TRP A   1       3.848   2.656  17.934  0.00  0.00    +0.000 A 
ATOM     29  CD1 TRP A   1       2.795   2.448  17.044  0.00  0.00    +0.000 A 
ATOM     30  NE1 TRP A   1       1.818   1.830  17.770  0.00  0.00    +0.000 N 
ATOM     31  CE2 TRP A   1       1.915   2.371  19.032  0.00  0.00    +0.000 A 
ATOM     32  CZ2 TRP A   1       0.926   2.696  19.953  0.00  0.00    +0.000 A 
ATOM     33  CH2 TRP A   1       1.356   2.970  21.242  0.00  0.00    +0.000 A 
ATOM     34  CZ3 TRP A   1       2.698   2.787  21.591  0.00  0.00    +0.000 A 
ATOM     35  CE3 TRP A   1       3.687   2.550  20.610  0.00  0.00    +0.000 A 
ATOM     36  CD2 TRP A   1       3.286   2.491  19.261  0.00  0.00    +0.000 A 
ATOM     37  HE1 TRP A   1       1.706   0.825  17.678  0.00  0.00    +0.000 HD
ENDBRANCH  27  28
ENDBRANCH  22  27
ENDBRANCH   3  22
TORSDOF 8
ENDMDL
