MODEL 1
REMARK VINA RESULT:      -7.7      0.000      0.000
REMARK  Name = 
REMARK  8 active torsions:
REMARK  status: ('A' for Active; 'I' for Inactive)
REMARK    1  A    between atoms: C_2  and  C_3
REMARK    2  A    between atoms: C_3  and  O_4
REMARK    3  A    between atoms: O_4  and  C_5
REMARK    4  A    between atoms: C_5  and  C_7
REMARK    5  A    between atoms: C_12  and  S_13
REMARK    6  A    between atoms: S_13  and  N_16
REMARK    7  A    between atoms: N_22  and  C_23
REMARK    8  A    between atoms: C_23  and  C_24
REMARK                            x       y       z     vdW  Elec       q    Type
REMARK                         _______ _______ _______ _____ _____    ______ ____
ROOT
ATOM      1  C   UNL     1       2.740   7.155  18.314  0.00  0.00    +0.000 A 
ATOM      2  C   UNL     1       2.205   6.151  19.119  0.00  0.00    +0.000 A 
ATOM      3  C   UNL     1       2.858   4.923  19.188  0.00  0.00    +0.000 A 
ATOM      4  C   UNL     1       4.014   4.693  18.422  0.00  0.00    +0.000 A 
ATOM      5 CL   UNL     1       5.102   3.518  19.066  0.00  0.00    +0.000 Cl
ATOM      6  C   UNL     1       4.362   5.585  17.407  0.00  0.00    +0.000 A 
ATOM      7  C   UNL     1       3.780   6.853  17.420  0.00  0.00    +0.000 A 
ENDROOT
BRANCH   6   8
ATOM      8  S   UNL     1       5.606   5.232  16.182  0.00  0.00    +0.000 S 
ATOM      9  O   UNL     1       5.601   3.787  16.003  0.00  0.00    +0.000 OA
ATOM     10  O   UNL     1       5.437   6.134  15.065  0.00  0.00    +0.000 OA
BRANCH   8  11
ATOM     11  N   UNL     1       7.102   5.637  16.867  0.00  0.00    +0.000 NA
ATOM     12  C   UNL     1       7.761   4.805  17.882  0.00  0.00    +0.000 C 
ATOM     13  C   UNL     1       7.724   5.683  19.119  0.00  0.00    +0.000 C 
ATOM     14  C   UNL     1       7.980   7.077  18.568  0.00  0.00    +0.000 C 
ATOM     15  C   UNL     1       7.459   7.046  17.129  0.00  0.00    +0.000 C 
ENDBRANCH   8  11
ENDBRANCH   6   8
BRANCH   1  16
ATOM     16  C   UNL     1       2.194   8.528  18.444  0.00  0.00    +0.000 C 
ATOM     17  O   UNL     1       2.322   9.407  17.607  0.00  0.00    +0.000 OA
BRANCH  16  18
ATOM     18  O   UNL     1       1.568   8.644  19.637  0.00  0.00    +0.000 OA
BRANCH  18  19
ATOM     19  C   UNL     1       0.994   9.925  19.863  0.00  0.00    +0.000 C 
BRANCH  19  21
ATOM     20  O   UNL     1       1.426   9.679  22.248  0.00  0.00    +0.000 OA
ATOM     21  C   UNL     1       0.667  10.056  21.348  0.00  0.00    +0.000 C 
ATOM     22  N   UNL     1      -0.569  10.620  21.589  0.00  0.00    +0.000 N 
ATOM     23  H   UNL     1      -1.155  10.922  20.828  0.00  0.00    +0.000 HD
BRANCH  22  24
ATOM     24  C   UNL     1      -1.083  10.799  22.930  0.00  0.00    +0.000 C 
BRANCH  24  25
ATOM     25  C   UNL     1      -1.634  12.183  23.037  0.00  0.00    +0.000 A 
ATOM     26  C   UNL     1      -0.994  13.376  22.761  0.00  0.00    +0.000 A 
ATOM     27  C   UNL     1      -1.817  14.507  23.035  0.00  0.00    +0.000 A 
ATOM     28  C   UNL     1      -3.063  14.139  23.488  0.00  0.00    +0.000 A 
ATOM     29  S   UNL     1      -3.240  12.441  23.575  0.00  0.00    +0.000 S 
ENDBRANCH  24  25
ENDBRANCH  22  24
ENDBRANCH  19  21
ENDBRANCH  18  19
ENDBRANCH  16  18
ENDBRANCH   1  16
TORSDOF 8
ENDMDL
MODEL 2
REMARK VINA RESULT:      -7.6      3.454      4.820
REMARK  Name = 
REMARK  8 active torsions:
REMARK  status: ('A' for Active; 'I' for Inactive)
REMARK    1  A    between atoms: C_2  and  C_3
REMARK    2  A    between atoms: C_3  and  O_4
REMARK    3  A    between atoms: O_4  and  C_5
REMARK    4  A    between atoms: C_5  and  C_7
REMARK    5  A    between atoms: C_12  and  S_13
REMARK    6  A    between atoms: S_13  and  N_16
REMARK    7  A    between atoms: N_22  and  C_23
REMARK    8  A    between atoms: C_23  and  C_24
REMARK                            x       y       z     vdW  Elec       q    Type
REMARK                         _______ _______ _______ _____ _____    ______ ____
ROOT
ATOM      1  C   UNL     1       3.148   6.637  18.333  0.00  0.00    +0.000 A 
ATOM      2  C   UNL     1       4.415   6.994  17.874  0.00  0.00    +0.000 A 
ATOM      3  C   UNL     1       5.182   6.046  17.204  0.00  0.00    +0.000 A 
ATOM      4  C   UNL     1       4.696   4.738  17.033  0.00  0.00    +0.000 A 
ATOM      5 CL   UNL     1       5.320   3.895  15.661  0.00  0.00    +0.000 Cl
ATOM      6  C   UNL     1       3.576   4.315  17.748  0.00  0.00    +0.000 A 
ATOM      7  C   UNL     1       2.756   5.288  18.318  0.00  0.00    +0.000 A 
ENDROOT
BRANCH   6   8
ATOM      8  S   UNL     1       3.070   2.610  17.852  0.00  0.00    +0.000 S 
ATOM      9  O   UNL     1       1.927   2.471  16.962  0.00  0.00    +0.000 OA
ATOM     10  O   UNL     1       4.235   1.764  17.726  0.00  0.00    +0.000 OA
BRANCH   8  11
ATOM     11  N   UNL     1       2.499   2.361  19.428  0.00  0.00    +0.000 NA
ATOM     12  C   UNL     1       1.076   2.450  19.780  0.00  0.00    +0.000 C 
ATOM     13  C   UNL     1       1.024   3.668  20.682  0.00  0.00    +0.000 C 
ATOM     14  C   UNL     1       2.306   3.561  21.492  0.00  0.00    +0.000 C 
ATOM     15  C   UNL     1       3.287   2.798  20.598  0.00  0.00    +0.000 C 
ENDBRANCH   8  11
ENDBRANCH   6   8
BRANCH   1  16
ATOM     16  C   UNL     1       2.242   7.710  18.810  0.00  0.00    +0.000 C 
ATOM     17  O   UNL     1       1.914   7.875  19.973  0.00  0.00    +0.000 OA
BRANCH  16  18
ATOM     18  O   UNL     1       1.829   8.443  17.751  0.00  0.00    +0.000 OA
BRANCH  18  19
ATOM     19  C   UNL     1       2.119   9.830  17.863  0.00  0.00    +0.000 C 
BRANCH  19  21
ATOM     20  O   UNL     1       1.207  11.078  19.747  0.00  0.00    +0.000 OA
ATOM     21  C   UNL     1       1.010  10.495  18.674  0.00  0.00    +0.000 C 
ATOM     22  N   UNL     1      -0.239  10.367  18.103  0.00  0.00    +0.000 N 
ATOM     23  H   UNL     1      -0.357   9.893  17.223  0.00  0.00    +0.000 HD
BRANCH  22  24
ATOM     24  C   UNL     1      -1.429  10.898  18.732  0.00  0.00    +0.000 C 
BRANCH  24  25
ATOM     25  C   UNL     1      -2.526  10.912  17.719  0.00  0.00    +0.000 A 
ATOM     26  C   UNL     1      -2.481  10.465  16.412  0.00  0.00    +0.000 A 
ATOM     27  C   UNL     1      -3.706  10.693  15.720  0.00  0.00    +0.000 A 
ATOM     28  C   UNL     1      -4.650  11.286  16.527  0.00  0.00    +0.000 A 
ATOM     29  S   UNL     1      -4.064  11.556  18.110  0.00  0.00    +0.000 S 
ENDBRANCH  24  25
ENDBRANCH  22  24
ENDBRANCH  19  21
ENDBRANCH  18  19
ENDBRANCH  16  18
ENDBRANCH   1  16
TORSDOF 8
ENDMDL
MODEL 3
REMARK VINA RESULT:      -7.6      1.602      2.277
REMARK  Name = 
REMARK  8 active torsions:
REMARK  status: ('A' for Active; 'I' for Inactive)
REMARK    1  A    between atoms: C_2  and  C_3
REMARK    2  A    between atoms: C_3  and  O_4
REMARK    3  A    between atoms: O_4  and  C_5
REMARK    4  A    between atoms: C_5  and  C_7
REMARK    5  A    between atoms: C_12  and  S_13
REMARK    6  A    between atoms: S_13  and  N_16
REMARK    7  A    between atoms: N_22  and  C_23
REMARK    8  A    between atoms: C_23  and  C_24
REMARK                            x       y       z     vdW  Elec       q    Type
REMARK                         _______ _______ _______ _____ _____    ______ ____
ROOT
ATOM      1  C   UNL     1       2.661   6.429  18.526  0.00  0.00    +0.000 A 
ATOM      2  C   UNL     1       1.952   5.234  18.635  0.00  0.00    +0.000 A 
ATOM      3  C   UNL     1       2.470   4.086  18.043  0.00  0.00    +0.000 A 
ATOM      4  C   UNL     1       3.670   4.147  17.314  0.00  0.00    +0.000 A 
ATOM      5 CL   UNL     1       4.566   2.674  17.247  0.00  0.00    +0.000 Cl
ATOM      6  C   UNL     1       4.205   5.386  16.962  0.00  0.00    +0.000 A 
ATOM      7  C   UNL     1       3.753   6.514  17.646  0.00  0.00    +0.000 A 
ENDROOT
BRANCH   6   8
ATOM      8  S   UNL     1       5.527   5.580  15.784  0.00  0.00    +0.000 S 
ATOM      9  O   UNL     1       5.586   4.335  15.032  0.00  0.00    +0.000 OA
ATOM     10  O   UNL     1       5.386   6.858  15.123  0.00  0.00    +0.000 OA
BRANCH   8  11
ATOM     11  N   UNL     1       6.967   5.687  16.671  0.00  0.00    +0.000 NA
ATOM     12  C   UNL     1       7.399   4.644  17.611  0.00  0.00    +0.000 C 
ATOM     13  C   UNL     1       7.316   5.341  18.956  0.00  0.00    +0.000 C 
ATOM     14  C   UNL     1       7.796   6.751  18.650  0.00  0.00    +0.000 C 
ATOM     15  C   UNL     1       7.451   6.987  17.177  0.00  0.00    +0.000 C 
ENDBRANCH   8  11
ENDBRANCH   6   8
BRANCH   1  16
ATOM     16  C   UNL     1       2.242   7.577  19.367  0.00  0.00    +0.000 C 
ATOM     17  O   UNL     1       1.789   7.482  20.496  0.00  0.00    +0.000 OA
BRANCH  16  18
ATOM     18  O   UNL     1       2.420   8.723  18.670  0.00  0.00    +0.000 OA
BRANCH  18  19
ATOM     19  C   UNL     1       1.419   8.959  17.689  0.00  0.00    +0.000 C 
BRANCH  19  21
ATOM     20  O   UNL     1      -0.755  10.040  17.892  0.00  0.00    +0.000 OA
ATOM     21  C   UNL     1       0.430   9.982  18.241  0.00  0.00    +0.000 C 
ATOM     22  N   UNL     1       0.990  10.848  19.157  0.00  0.00    +0.000 N 
ATOM     23  H   UNL     1       1.957  10.763  19.423  0.00  0.00    +0.000 HD
BRANCH  22  24
ATOM     24  C   UNL     1       0.228  11.914  19.772  0.00  0.00    +0.000 C 
BRANCH  24  25
ATOM     25  C   UNL     1      -0.252  11.437  21.103  0.00  0.00    +0.000 A 
ATOM     26  C   UNL     1       0.170  10.327  21.810  0.00  0.00    +0.000 A 
ATOM     27  C   UNL     1      -0.558  10.150  23.023  0.00  0.00    +0.000 A 
ATOM     28  C   UNL     1      -1.493  11.142  23.211  0.00  0.00    +0.000 A 
ATOM     29  S   UNL     1      -1.487  12.282  21.937  0.00  0.00    +0.000 S 
ENDBRANCH  24  25
ENDBRANCH  22  24
ENDBRANCH  19  21
ENDBRANCH  18  19
ENDBRANCH  16  18
ENDBRANCH   1  16
TORSDOF 8
ENDMDL
MODEL 4
REMARK VINA RESULT:      -7.6      5.647      7.488
REMARK  Name = 
REMARK  8 active torsions:
REMARK  status: ('A' for Active; 'I' for Inactive)
REMARK    1  A    between atoms: C_2  and  C_3
REMARK    2  A    between atoms: C_3  and  O_4
REMARK    3  A    between atoms: O_4  and  C_5
REMARK    4  A    between atoms: C_5  and  C_7
REMARK    5  A    between atoms: C_12  and  S_13
REMARK    6  A    between atoms: S_13  and  N_16
REMARK    7  A    between atoms: N_22  and  C_23
REMARK    8  A    between atoms: C_23  and  C_24
REMARK                            x       y       z     vdW  Elec       q    Type
REMARK                         _______ _______ _______ _____ _____    ______ ____
ROOT
ATOM      1  C   UNL     1       5.282   5.752  17.446  0.00  0.00    +0.000 A 
ATOM      2  C   UNL     1       6.074   5.398  18.536  0.00  0.00    +0.000 A 
ATOM      3  C   UNL     1       5.692   4.317  19.325  0.00  0.00    +0.000 A 
ATOM      4  C   UNL     1       4.501   3.625  19.046  0.00  0.00    +0.000 A 
ATOM      5 CL   UNL     1       4.472   1.976  19.557  0.00  0.00    +0.000 Cl
ATOM      6  C   UNL     1       3.577   4.166  18.153  0.00  0.00    +0.000 A 
ATOM      7  C   UNL     1       4.011   5.174  17.291  0.00  0.00    +0.000 A 
ENDROOT
BRANCH   6   8
ATOM      8  S   UNL     1       1.917   3.546  17.968  0.00  0.00    +0.000 S 
ATOM      9  O   UNL     1       1.200   4.535  17.177  0.00  0.00    +0.000 OA
ATOM     10  O   UNL     1       1.975   2.157  17.572  0.00  0.00    +0.000 OA
BRANCH   8  11
ATOM     11  N   UNL     1       1.216   3.548  19.511  0.00  0.00    +0.000 NA
ATOM     12  C   UNL     1       1.360   4.671  20.446  0.00  0.00    +0.000 C 
ATOM     13  C   UNL     1       2.190   4.076  21.569  0.00  0.00    +0.000 C 
ATOM     14  C   UNL     1       1.648   2.661  21.694  0.00  0.00    +0.000 C 
ATOM     15  C   UNL     1       1.120   2.304  20.302  0.00  0.00    +0.000 C 
ENDBRANCH   8  11
ENDBRANCH   6   8
BRANCH   1  16
ATOM     16  C   UNL     1       5.822   6.727  16.467  0.00  0.00    +0.000 C 
ATOM     17  O   UNL     1       5.293   7.010  15.406  0.00  0.00    +0.000 OA
BRANCH  16  18
ATOM     18  O   UNL     1       6.993   7.217  16.933  0.00  0.00    +0.000 OA
BRANCH  18  19
ATOM     19  C   UNL     1       6.922   8.573  17.353  0.00  0.00    +0.000 C 
BRANCH  19  21
ATOM     20  O   UNL     1       8.796   8.141  18.848  0.00  0.00    +0.000 OA
ATOM     21  C   UNL     1       8.212   8.923  18.089  0.00  0.00    +0.000 C 
ATOM     22  N   UNL     1       8.656  10.206  17.839  0.00  0.00    +0.000 N 
ATOM     23  H   UNL     1       8.157  10.809  17.207  0.00  0.00    +0.000 HD
BRANCH  22  24
ATOM     24  C   UNL     1       9.843  10.744  18.467  0.00  0.00    +0.000 C 
BRANCH  24  25
ATOM     25  C   UNL     1       9.420  11.554  19.648  0.00  0.00    +0.000 A 
ATOM     26  C   UNL     1       9.241  11.129  20.951  0.00  0.00    +0.000 A 
ATOM     27  C   UNL     1       8.771  12.171  21.801  0.00  0.00    +0.000 A 
ATOM     28  C   UNL     1       8.630  13.362  21.125  0.00  0.00    +0.000 A 
ATOM     29  S   UNL     1       9.068  13.222  19.478  0.00  0.00    +0.000 S 
ENDBRANCH  24  25
ENDBRANCH  22  24
ENDBRANCH  19  21
ENDBRANCH  18  19
ENDBRANCH  16  18
ENDBRANCH   1  16
TORSDOF 8
ENDMDL
MODEL 5
REMARK VINA RESULT:      -7.6      2.851      3.236
REMARK  Name = 
REMARK  8 active torsions:
REMARK  status: ('A' for Active; 'I' for Inactive)
REMARK    1  A    between atoms: C_2  and  C_3
REMARK    2  A    between atoms: C_3  and  O_4
REMARK    3  A    between atoms: O_4  and  C_5
REMARK    4  A    between atoms: C_5  and  C_7
REMARK    5  A    between atoms: C_12  and  S_13
REMARK    6  A    between atoms: S_13  and  N_16
REMARK    7  A    between atoms: N_22  and  C_23
REMARK    8  A    between atoms: C_23  and  C_24
REMARK                            x       y       z     vdW  Elec       q    Type
REMARK                         _______ _______ _______ _____ _____    ______ ____
ROOT
ATOM      1  C   UNL     1       2.654   6.420  18.587  0.00  0.00    +0.000 A 
ATOM      2  C   UNL     1       1.966   5.216  18.724  0.00  0.00    +0.000 A 
ATOM      3  C   UNL     1       2.488   4.070  18.129  0.00  0.00    +0.000 A 
ATOM      4  C   UNL     1       3.668   4.144  17.369  0.00  0.00    +0.000 A 
ATOM      5 CL   UNL     1       4.585   2.683  17.293  0.00  0.00    +0.000 Cl
ATOM      6  C   UNL     1       4.175   5.387  16.994  0.00  0.00    +0.000 A 
ATOM      7  C   UNL     1       3.722   6.515  17.679  0.00  0.00    +0.000 A 
ENDROOT
BRANCH   6   8
ATOM      8  S   UNL     1       5.464   5.591  15.781  0.00  0.00    +0.000 S 
ATOM      9  O   UNL     1       5.506   4.349  15.022  0.00  0.00    +0.000 OA
ATOM     10  O   UNL     1       5.301   6.871  15.130  0.00  0.00    +0.000 OA
BRANCH   8  11
ATOM     11  N   UNL     1       6.926   5.699  16.629  0.00  0.00    +0.000 NA
ATOM     12  C   UNL     1       7.380   4.660  17.563  0.00  0.00    +0.000 C 
ATOM     13  C   UNL     1       7.334   5.365  18.906  0.00  0.00    +0.000 C 
ATOM     14  C   UNL     1       7.810   6.771  18.580  0.00  0.00    +0.000 C 
ATOM     15  C   UNL     1       7.427   7.000  17.116  0.00  0.00    +0.000 C 
ENDBRANCH   8  11
ENDBRANCH   6   8
BRANCH   1  16
ATOM     16  C   UNL     1       2.238   7.569  19.428  0.00  0.00    +0.000 C 
ATOM     17  O   UNL     1       1.809   7.477  20.566  0.00  0.00    +0.000 OA
BRANCH  16  18
ATOM     18  O   UNL     1       2.389   8.712  18.720  0.00  0.00    +0.000 OA
BRANCH  18  19
ATOM     19  C   UNL     1       1.264   9.042  17.916  0.00  0.00    +0.000 C 
BRANCH  19  21
ATOM     20  O   UNL     1       1.279  11.284  18.870  0.00  0.00    +0.000 OA
ATOM     21  C   UNL     1       0.626  10.313  18.471  0.00  0.00    +0.000 C 
ATOM     22  N   UNL     1      -0.752  10.267  18.500  0.00  0.00    +0.000 N 
ATOM     23  H   UNL     1      -1.249   9.461  18.157  0.00  0.00    +0.000 HD
BRANCH  22  24
ATOM     24  C   UNL     1      -1.546  11.359  19.023  0.00  0.00    +0.000 C 
BRANCH  24  25
ATOM     25  C   UNL     1      -2.807  11.441  18.227  0.00  0.00    +0.000 A 
ATOM     26  C   UNL     1      -4.052  11.865  18.648  0.00  0.00    +0.000 A 
ATOM     27  C   UNL     1      -5.038  11.751  17.625  0.00  0.00    +0.000 A 
ATOM     28  C   UNL     1      -4.507  11.267  16.451  0.00  0.00    +0.000 A 
ATOM     29  S   UNL     1      -2.830  10.959  16.582  0.00  0.00    +0.000 S 
ENDBRANCH  24  25
ENDBRANCH  22  24
ENDBRANCH  19  21
ENDBRANCH  18  19
ENDBRANCH  16  18
ENDBRANCH   1  16
TORSDOF 8
ENDMDL
MODEL 6
REMARK VINA RESULT:      -7.6      2.705      3.502
REMARK  Name = 
REMARK  8 active torsions:
REMARK  status: ('A' for Active; 'I' for Inactive)
REMARK    1  A    between atoms: C_2  and  C_3
REMARK    2  A    between atoms: C_3  and  O_4
REMARK    3  A    between atoms: O_4  and  C_5
REMARK    4  A    between atoms: C_5  and  C_7
REMARK    5  A    between atoms: C_12  and  S_13
REMARK    6  A    between atoms: S_13  and  N_16
REMARK    7  A    between atoms: N_22  and  C_23
REMARK    8  A    between atoms: C_23  and  C_24
REMARK                            x       y       z     vdW  Elec       q    Type
REMARK                         _______ _______ _______ _____ _____    ______ ____
ROOT
ATOM      1  C   UNL     1       2.643   7.562  18.237  0.00  0.00    +0.000 A 
ATOM      2  C   UNL     1       2.142   6.742  19.246  0.00  0.00    +0.000 A 
ATOM      3  C   UNL     1       2.772   5.528  19.503  0.00  0.00    +0.000 A 
ATOM      4  C   UNL     1       3.870   5.123  18.725  0.00  0.00    +0.000 A 
ATOM      5 CL   UNL     1       4.974   4.052  19.511  0.00  0.00    +0.000 Cl
ATOM      6  C   UNL     1       4.170   5.799  17.543  0.00  0.00    +0.000 A 
ATOM      7  C   UNL     1       3.617   7.066  17.354  0.00  0.00    +0.000 A 
ENDROOT
BRANCH   6   8
ATOM      8  S   UNL     1       5.324   5.186  16.332  0.00  0.00    +0.000 S 
ATOM      9  O   UNL     1       5.256   3.733  16.407  0.00  0.00    +0.000 OA
ATOM     10  O   UNL     1       5.120   5.890  15.087  0.00  0.00    +0.000 OA
BRANCH   8  11
ATOM     11  N   UNL     1       6.872   5.633  16.856  0.00  0.00    +0.000 NA
ATOM     12  C   UNL     1       7.664   4.814  17.783  0.00  0.00    +0.000 C 
ATOM     13  C   UNL     1       7.735   5.679  19.027  0.00  0.00    +0.000 C 
ATOM     14  C   UNL     1       7.885   7.085  18.470  0.00  0.00    +0.000 C 
ATOM     15  C   UNL     1       7.211   7.050  17.095  0.00  0.00    +0.000 C 
ENDBRANCH   8  11
ENDBRANCH   6   8
BRANCH   1  16
ATOM     16  C   UNL     1       2.136   8.953  18.140  0.00  0.00    +0.000 C 
ATOM     17  O   UNL     1       2.532   9.781  17.337  0.00  0.00    +0.000 OA
BRANCH  16  18
ATOM     18  O   UNL     1       1.198   9.148  19.095  0.00  0.00    +0.000 OA
BRANCH  18  19
ATOM     19  C   UNL     1       1.286  10.413  19.736  0.00  0.00    +0.000 C 
BRANCH  19  21
ATOM     20  O   UNL     1       0.216  12.455  18.949  0.00  0.00    +0.000 OA
ATOM     21  C   UNL     1       0.107  11.270  19.284  0.00  0.00    +0.000 C 
ATOM     22  N   UNL     1      -1.098  10.599  19.303  0.00  0.00    +0.000 N 
ATOM     23  H   UNL     1      -1.144   9.631  19.574  0.00  0.00    +0.000 HD
BRANCH  22  24
ATOM     24  C   UNL     1      -2.343  11.244  18.944  0.00  0.00    +0.000 C 
BRANCH  24  25
ATOM     25  C   UNL     1      -2.719  10.799  17.569  0.00  0.00    +0.000 A 
ATOM     26  C   UNL     1      -2.079   9.869  16.772  0.00  0.00    +0.000 A 
ATOM     27  C   UNL     1      -2.690   9.743  15.491  0.00  0.00    +0.000 A 
ATOM     28  C   UNL     1      -3.788  10.562  15.361  0.00  0.00    +0.000 A 
ATOM     29  S   UNL     1      -4.083  11.471  16.779  0.00  0.00    +0.000 S 
ENDBRANCH  24  25
ENDBRANCH  22  24
ENDBRANCH  19  21
ENDBRANCH  18  19
ENDBRANCH  16  18
ENDBRANCH   1  16
TORSDOF 8
ENDMDL
MODEL 7
REMARK VINA RESULT:      -7.4      3.130      4.389
REMARK  Name = 
REMARK  8 active torsions:
REMARK  status: ('A' for Active; 'I' for Inactive)
REMARK    1  A    between atoms: C_2  and  C_3
REMARK    2  A    between atoms: C_3  and  O_4
REMARK    3  A    between atoms: O_4  and  C_5
REMARK    4  A    between atoms: C_5  and  C_7
REMARK    5  A    between atoms: C_12  and  S_13
REMARK    6  A    between atoms: S_13  and  N_16
REMARK    7  A    between atoms: N_22  and  C_23
REMARK    8  A    between atoms: C_23  and  C_24
REMARK                            x       y       z     vdW  Elec       q    Type
REMARK                         _______ _______ _______ _____ _____    ______ ____
ROOT
ATOM      1  C   UNL     1       3.226   6.839  17.851  0.00  0.00    +0.000 A 
ATOM      2  C   UNL     1       4.563   7.098  17.557  0.00  0.00    +0.000 A 
ATOM      3  C   UNL     1       5.377   6.049  17.140  0.00  0.00    +0.000 A 
ATOM      4  C   UNL     1       4.861   4.744  17.059  0.00  0.00    +0.000 A 
ATOM      5 CL   UNL     1       5.646   3.712  15.919  0.00  0.00    +0.000 Cl
ATOM      6  C   UNL     1       3.626   4.449  17.635  0.00  0.00    +0.000 A 
ATOM      7  C   UNL     1       2.776   5.511  17.944  0.00  0.00    +0.000 A 
ENDROOT
BRANCH   6   8
ATOM      8  S   UNL     1       3.029   2.787  17.871  0.00  0.00    +0.000 S 
ATOM      9  O   UNL     1       1.927   2.615  16.934  0.00  0.00    +0.000 OA
ATOM     10  O   UNL     1       4.154   1.880  17.891  0.00  0.00    +0.000 OA
BRANCH   8  11
ATOM     11  N   UNL     1       2.365   2.718  19.429  0.00  0.00    +0.000 NA
ATOM     12  C   UNL     1       0.941   2.955  19.695  0.00  0.00    +0.000 C 
ATOM     13  C   UNL     1       0.954   4.244  20.496  0.00  0.00    +0.000 C 
ATOM     14  C   UNL     1       2.183   4.097  21.379  0.00  0.00    +0.000 C 
ATOM     15  C   UNL     1       3.133   3.183  20.601  0.00  0.00    +0.000 C 
ENDBRANCH   8  11
ENDBRANCH   6   8
BRANCH   1  16
ATOM     16  C   UNL     1       2.310   7.990  18.042  0.00  0.00    +0.000 C 
ATOM     17  O   UNL     1       2.375   9.039  17.422  0.00  0.00    +0.000 OA
BRANCH  16  18
ATOM     18  O   UNL     1       1.425   7.693  19.021  0.00  0.00    +0.000 OA
BRANCH  18  19
ATOM     19  C   UNL     1       1.831   8.127  20.313  0.00  0.00    +0.000 C 
BRANCH  19  21
ATOM     20  O   UNL     1       0.519   9.339  21.969  0.00  0.00    +0.000 OA
ATOM     21  C   UNL     1       0.863   9.206  20.789  0.00  0.00    +0.000 C 
ATOM     22  N   UNL     1       0.394  10.011  19.771  0.00  0.00    +0.000 N 
ATOM     23  H   UNL     1       0.705   9.877  18.823  0.00  0.00    +0.000 HD
BRANCH  22  24
ATOM     24  C   UNL     1      -0.561  11.072  20.009  0.00  0.00    +0.000 C 
BRANCH  24  25
ATOM     25  C   UNL     1      -1.582  11.033  18.920  0.00  0.00    +0.000 A 
ATOM     26  C   UNL     1      -2.761  11.749  18.834  0.00  0.00    +0.000 A 
ATOM     27  C   UNL     1      -3.518  11.408  17.676  0.00  0.00    +0.000 A 
ATOM     28  C   UNL     1      -2.881  10.462  16.906  0.00  0.00    +0.000 A 
ATOM     29  S   UNL     1      -1.378   9.995  17.573  0.00  0.00    +0.000 S 
ENDBRANCH  24  25
ENDBRANCH  22  24
ENDBRANCH  19  21
ENDBRANCH  18  19
ENDBRANCH  16  18
ENDBRANCH   1  16
TORSDOF 8
ENDMDL
MODEL 8
REMARK VINA RESULT:      -7.4      2.353      3.595
REMARK  Name = 
REMARK  8 active torsions:
REMARK  status: ('A' for Active; 'I' for Inactive)
REMARK    1  A    between atoms: C_2  and  C_3
REMARK    2  A    between atoms: C_3  and  O_4
REMARK    3  A    between atoms: O_4  and  C_5
REMARK    4  A    between atoms: C_5  and  C_7
REMARK    5  A    between atoms: C_12  and  S_13
REMARK    6  A    between atoms: S_13  and  N_16
REMARK    7  A    between atoms: N_22  and  C_23
REMARK    8  A    between atoms: C_23  and  C_24
REMARK                            x       y       z     vdW  Elec       q    Type
REMARK                         _______ _______ _______ _____ _____    ______ ____
ROOT
ATOM      1  C   UNL     1       3.270   6.897  17.942  0.00  0.00    +0.000 A 
ATOM      2  C   UNL     1       4.613   7.136  17.659  0.00  0.00    +0.000 A 
ATOM      3  C   UNL     1       5.407   6.081  17.218  0.00  0.00    +0.000 A 
ATOM      4  C   UNL     1       4.866   4.789  17.104  0.00  0.00    +0.000 A 
ATOM      5 CL   UNL     1       5.633   3.770  15.940  0.00  0.00    +0.000 Cl
ATOM      6  C   UNL     1       3.623   4.505  17.669  0.00  0.00    +0.000 A 
ATOM      7  C   UNL     1       2.793   5.577  18.001  0.00  0.00    +0.000 A 
ENDROOT
BRANCH   6   8
ATOM      8  S   UNL     1       2.992   2.851  17.861  0.00  0.00    +0.000 S 
ATOM      9  O   UNL     1       1.886   2.726  16.922  0.00  0.00    +0.000 OA
ATOM     10  O   UNL     1       4.098   1.920  17.855  0.00  0.00    +0.000 OA
BRANCH   8  11
ATOM     11  N   UNL     1       2.328   2.754  19.417  0.00  0.00    +0.000 NA
ATOM     12  C   UNL     1       0.918   3.054  19.698  0.00  0.00    +0.000 C 
ATOM     13  C   UNL     1       0.999   4.308  20.549  0.00  0.00    +0.000 C 
ATOM     14  C   UNL     1       2.220   4.062  21.421  0.00  0.00    +0.000 C 
ATOM     15  C   UNL     1       3.121   3.132  20.604  0.00  0.00    +0.000 C 
ENDBRANCH   8  11
ENDBRANCH   6   8
BRANCH   1  16
ATOM     16  C   UNL     1       2.377   8.061  18.159  0.00  0.00    +0.000 C 
ATOM     17  O   UNL     1       2.098   8.889  17.308  0.00  0.00    +0.000 OA
BRANCH  16  18
ATOM     18  O   UNL     1       1.956   8.062  19.444  0.00  0.00    +0.000 OA
BRANCH  18  19
ATOM     19  C   UNL     1       1.471   9.322  19.889  0.00  0.00    +0.000 C 
BRANCH  19  21
ATOM     20  O   UNL     1       0.113   7.974  21.397  0.00  0.00    +0.000 OA
ATOM     21  C   UNL     1       0.523   9.091  21.063  0.00  0.00    +0.000 C 
ATOM     22  N   UNL     1       0.153  10.254  21.706  0.00  0.00    +0.000 N 
ATOM     23  H   UNL     1       0.516  11.145  21.409  0.00  0.00    +0.000 HD
BRANCH  22  24
ATOM     24  C   UNL     1      -0.768  10.255  22.822  0.00  0.00    +0.000 C 
BRANCH  24  25
ATOM     25  C   UNL     1      -1.400  11.606  22.904  0.00  0.00    +0.000 A 
ATOM     26  C   UNL     1      -2.554  11.965  23.573  0.00  0.00    +0.000 A 
ATOM     27  C   UNL     1      -2.888  13.336  23.379  0.00  0.00    +0.000 A 
ATOM     28  C   UNL     1      -1.965  13.983  22.589  0.00  0.00    +0.000 A 
ATOM     29  S   UNL     1      -0.703  12.943  22.092  0.00  0.00    +0.000 S 
ENDBRANCH  24  25
ENDBRANCH  22  24
ENDBRANCH  19  21
ENDBRANCH  18  19
ENDBRANCH  16  18
ENDBRANCH   1  16
TORSDOF 8
ENDMDL
MODEL 9
REMARK VINA RESULT:      -7.4      2.547      3.047
REMARK  Name = 
REMARK  8 active torsions:
REMARK  status: ('A' for Active; 'I' for Inactive)
REMARK    1  A    between atoms: C_2  and  C_3
REMARK    2  A    between atoms: C_3  and  O_4
REMARK    3  A    between atoms: O_4  and  C_5
REMARK    4  A    between atoms: C_5  and  C_7
REMARK    5  A    between atoms: C_12  and  S_13
REMARK    6  A    between atoms: S_13  and  N_16
REMARK    7  A    between atoms: N_22  and  C_23
REMARK    8  A    between atoms: C_23  and  C_24
REMARK                            x       y       z     vdW  Elec       q    Type
REMARK                         _______ _______ _______ _____ _____    ______ ____
ROOT
ATOM      1  C   UNL     1       2.676   7.308  18.214  0.00  0.00    +0.000 A 
ATOM      2  C   UNL     1       2.123   6.341  19.051  0.00  0.00    +0.000 A 
ATOM      3  C   UNL     1       2.756   5.107  19.166  0.00  0.00    +0.000 A 
ATOM      4  C   UNL     1       3.910   4.832  18.414  0.00  0.00    +0.000 A 
ATOM      5 CL   UNL     1       4.977   3.664  19.104  0.00  0.00    +0.000 Cl
ATOM      6  C   UNL     1       4.277   5.682  17.370  0.00  0.00    +0.000 A 
ATOM      7  C   UNL     1       3.715   6.958  17.336  0.00  0.00    +0.000 A 
ENDROOT
BRANCH   6   8
ATOM      8  S   UNL     1       5.520   5.267  16.163  0.00  0.00    +0.000 S 
ATOM      9  O   UNL     1       5.481   3.819  16.023  0.00  0.00    +0.000 OA
ATOM     10  O   UNL     1       5.380   6.143  15.022  0.00  0.00    +0.000 OA
BRANCH   8  11
ATOM     11  N   UNL     1       7.020   5.655  16.849  0.00  0.00    +0.000 NA
ATOM     12  C   UNL     1       7.686   4.798  17.838  0.00  0.00    +0.000 C 
ATOM     13  C   UNL     1       7.658   5.644  19.097  0.00  0.00    +0.000 C 
ATOM     14  C   UNL     1       7.911   7.051  18.579  0.00  0.00    +0.000 C 
ATOM     15  C   UNL     1       7.380   7.056  17.143  0.00  0.00    +0.000 C 
ENDBRANCH   8  11
ENDBRANCH   6   8
BRANCH   1  16
ATOM     16  C   UNL     1       2.152   8.693  18.293  0.00  0.00    +0.000 C 
ATOM     17  O   UNL     1       2.256   9.526  17.408  0.00  0.00    +0.000 OA
BRANCH  16  18
ATOM     18  O   UNL     1       1.573   8.878  19.501  0.00  0.00    +0.000 OA
BRANCH  18  19
ATOM     19  C   UNL     1       0.457   9.758  19.475  0.00  0.00    +0.000 C 
BRANCH  19  21
ATOM     20  O   UNL     1       1.243  10.920  21.467  0.00  0.00    +0.000 OA
ATOM     21  C   UNL     1       0.786  10.986  20.320  0.00  0.00    +0.000 C 
ATOM     22  N   UNL     1       0.506  12.179  19.686  0.00  0.00    +0.000 N 
ATOM     23  H   UNL     1       0.142  12.191  18.748  0.00  0.00    +0.000 HD
BRANCH  22  24
ATOM     24  C   UNL     1       0.714  13.458  20.330  0.00  0.00    +0.000 C 
BRANCH  24  25
ATOM     25  C   UNL     1       2.022  14.008  19.865  0.00  0.00    +0.000 A 
ATOM     26  C   UNL     1       2.418  14.277  18.569  0.00  0.00    +0.000 A 
ATOM     27  C   UNL     1       3.764  14.740  18.499  0.00  0.00    +0.000 A 
ATOM     28  C   UNL     1       4.341  14.831  19.745  0.00  0.00    +0.000 A 
ATOM     29  S   UNL     1       3.263  14.368  20.989  0.00  0.00    +0.000 S 
ENDBRANCH  24  25
ENDBRANCH  22  24
ENDBRANCH  19  21
ENDBRANCH  18  19
ENDBRANCH  16  18
ENDBRANCH   1  16
TORSDOF 8
ENDMDL
