MODEL 1
REMARK VINA RESULT:      -7.3      0.000      0.000
REMARK  Name = 
REMARK  17 active torsions:
REMARK  status: ('A' for Active; 'I' for Inactive)
REMARK    1  A    between atoms: C_1  and  O_2
REMARK    2  A    between atoms: O_2  and  C_3
REMARK    3  A    between atoms: C_5  and  C_6
REMARK    4  A    between atoms: C_7  and  C_8
REMARK    5  A    between atoms: C_8  and  C_10
REMARK    6  A    between atoms: C_13  and  O_14
REMARK    7  A    between atoms: O_14  and  C_15
REMARK    8  A    between atoms: C_15  and  C_16
REMARK    9  A    between atoms: C_16  and  C_17
REMARK   10  A    between atoms: C_16  and  C_18
REMARK   11  A    between atoms: C_21  and  O_22
REMARK   12  A    between atoms: N_25  and  C_26
REMARK   13  A    between atoms: C_26  and  C_27
REMARK   14  A    between atoms: C_27  and  N_28
REMARK   15  A    between atoms: N_28  and  C_29
REMARK   16  A    between atoms: N_28  and  C_30
REMARK   17  A    between atoms: C_33  and  O_34
REMARK                            x       y       z     vdW  Elec       q    Type
REMARK                         _______ _______ _______ _____ _____    ______ ____
ROOT
ATOM      1  C   UNL     1      -0.713  10.939  19.717  0.00  0.00    +0.000 C 
ATOM      2  C   UNL     1       0.713  11.196  19.313  0.00  0.00    +0.000 C 
ATOM      3  C   UNL     1       1.163  12.377  19.762  0.00  0.00    +0.000 C 
ATOM      4  C   UNL     1       0.079  12.972  20.581  0.00  0.00    +0.000 C 
ATOM      5  O   UNL     1       0.127  14.053  21.149  0.00  0.00    +0.000 OA
ATOM      6  N   UNL     1      -0.973  12.082  20.563  0.00  0.00    +0.000 N 
ENDROOT
BRANCH   1   9
ATOM      7  C   UNL     1      -3.840  11.476  17.554  0.00  0.00    +0.000 A 
ATOM      8  C   UNL     1      -2.886  11.604  18.576  0.00  0.00    +0.000 A 
ATOM      9  C   UNL     1      -1.686  10.871  18.554  0.00  0.00    +0.000 A 
ATOM     10  C   UNL     1      -1.415  10.071  17.436  0.00  0.00    +0.000 A 
ATOM     11  C   UNL     1      -2.347   9.943  16.411  0.00  0.00    +0.000 A 
ATOM     12  C   UNL     1      -3.565  10.623  16.479  0.00  0.00    +0.000 A 
BRANCH   7  14
ATOM     13  C   UNL     1      -6.088  11.579  18.363  0.00  0.00    +0.000 C 
ATOM     14  O   UNL     1      -4.968  12.223  17.771  0.00  0.00    +0.000 OA
ENDBRANCH   7  14
BRANCH  12  15
ATOM     15  O   UNL     1      -4.468  10.414  15.475  0.00  0.00    +0.000 OA
ATOM     16  H   UNL     1      -5.292  10.882  15.685  0.00  0.00    +0.000 HD
ENDBRANCH  12  15
ENDBRANCH   1   9
BRANCH   2  17
ATOM     17  C   UNL     1       1.609  10.340  18.505  0.00  0.00    +0.000 C 
ATOM     18  O   UNL     1       2.189  10.801  17.528  0.00  0.00    +0.000 OA
BRANCH  17  19
ATOM     19  C   UNL     1       1.842   8.926  18.883  0.00  0.00    +0.000 A 
ATOM     20  C   UNL     1       2.380   8.044  17.936  0.00  0.00    +0.000 A 
ATOM     21  C   UNL     1       2.545   6.690  18.251  0.00  0.00    +0.000 A 
ATOM     22  C   UNL     1       2.231   6.225  19.528  0.00  0.00    +0.000 A 
ATOM     23  C   UNL     1       1.760   7.119  20.489  0.00  0.00    +0.000 A 
ATOM     24  C   UNL     1       1.591   8.467  20.177  0.00  0.00    +0.000 A 
BRANCH  22  25
ATOM     25  O   UNL     1       2.344   4.930  19.952  0.00  0.00    +0.000 OA
BRANCH  25  26
ATOM     26  C   UNL     1       1.172   4.371  20.548  0.00  0.00    +0.000 C 
BRANCH  26  27
ATOM     27  C   UNL     1       1.351   2.851  20.692  0.00  0.00    +0.000 C 
ATOM     28  C   UNL     1       1.578   2.168  19.343  0.00  0.00    +0.000 C 
ATOM     29  C   UNL     1       2.509   2.552  21.642  0.00  0.00    +0.000 C 
ENDBRANCH  26  27
ENDBRANCH  25  26
ENDBRANCH  22  25
ENDBRANCH  17  19
ENDBRANCH   2  17
BRANCH   3  30
ATOM     30  O   UNL     1       2.388  12.955  19.565  0.00  0.00    +0.000 OA
ATOM     31  H   UNL     1       2.880  12.386  18.934  0.00  0.00    +0.000 HD
ENDBRANCH   3  30
BRANCH   6  32
ATOM     32  C   UNL     1      -2.229  12.273  21.280  0.00  0.00    +0.000 C 
BRANCH  32  33
ATOM     33  C   UNL     1      -2.141  12.037  22.805  0.00  0.00    +0.000 C 
BRANCH  33  34
ATOM     34  N   UNL     1      -2.791  13.058  23.653  0.00  0.00    +0.000 NA
ATOM     35  C   UNL     1      -2.812  14.371  22.998  0.00  0.00    +0.000 C 
ATOM     36  C   UNL     1      -4.167  12.644  23.953  0.00  0.00    +0.000 C 
ENDBRANCH  33  34
ENDBRANCH  32  33
ENDBRANCH   6  32
TORSDOF 12
ENDMDL
MODEL 2
REMARK VINA RESULT:      -7.3      2.526      4.819
REMARK  Name = 
REMARK  17 active torsions:
REMARK  status: ('A' for Active; 'I' for Inactive)
REMARK    1  A    between atoms: C_1  and  O_2
REMARK    2  A    between atoms: O_2  and  C_3
REMARK    3  A    between atoms: C_5  and  C_6
REMARK    4  A    between atoms: C_7  and  C_8
REMARK    5  A    between atoms: C_8  and  C_10
REMARK    6  A    between atoms: C_13  and  O_14
REMARK    7  A    between atoms: O_14  and  C_15
REMARK    8  A    between atoms: C_15  and  C_16
REMARK    9  A    between atoms: C_16  and  C_17
REMARK   10  A    between atoms: C_16  and  C_18
REMARK   11  A    between atoms: C_21  and  O_22
REMARK   12  A    between atoms: N_25  and  C_26
REMARK   13  A    between atoms: C_26  and  C_27
REMARK   14  A    between atoms: C_27  and  N_28
REMARK   15  A    between atoms: N_28  and  C_29
REMARK   16  A    between atoms: N_28  and  C_30
REMARK   17  A    between atoms: C_33  and  O_34
REMARK                            x       y       z     vdW  Elec       q    Type
REMARK                         _______ _______ _______ _____ _____    ______ ____
ROOT
ATOM      1  C   UNL     1      -0.006  11.026  20.123  0.00  0.00    +0.000 C 
ATOM      2  C   UNL     1       0.244  10.232  21.375  0.00  0.00    +0.000 C 
ATOM      3  C   UNL     1      -0.630  10.532  22.348  0.00  0.00    +0.000 C 
ATOM      4  C   UNL     1      -1.595  11.506  21.782  0.00  0.00    +0.000 C 
ATOM      5  O   UNL     1      -2.532  12.011  22.381  0.00  0.00    +0.000 OA
ATOM      6  N   UNL     1      -1.220  11.729  20.475  0.00  0.00    +0.000 N 
ENDROOT
BRANCH   1   9
ATOM      7  C   UNL     1       2.611  13.825  20.378  0.00  0.00    +0.000 A 
ATOM      8  C   UNL     1       1.645  12.864  20.720  0.00  0.00    +0.000 A 
ATOM      9  C   UNL     1       1.112  11.986  19.761  0.00  0.00    +0.000 A 
ATOM     10  C   UNL     1       1.633  12.025  18.461  0.00  0.00    +0.000 A 
ATOM     11  C   UNL     1       2.598  12.964  18.109  0.00  0.00    +0.000 A 
ATOM     12  C   UNL     1       3.068  13.876  19.056  0.00  0.00    +0.000 A 
BRANCH   7  14
ATOM     13  C   UNL     1       2.003  15.531  21.938  0.00  0.00    +0.000 C 
ATOM     14  O   UNL     1       2.973  14.627  21.428  0.00  0.00    +0.000 OA
ENDBRANCH   7  14
BRANCH  12  15
ATOM     15  O   UNL     1       3.971  14.816  18.642  0.00  0.00    +0.000 OA
ATOM     16  H   UNL     1       3.673  15.193  17.798  0.00  0.00    +0.000 HD
ENDBRANCH  12  15
ENDBRANCH   1   9
BRANCH   2  17
ATOM     17  C   UNL     1       1.301   9.231  21.635  0.00  0.00    +0.000 C 
ATOM     18  O   UNL     1       1.905   9.232  22.702  0.00  0.00    +0.000 OA
BRANCH  17  19
ATOM     19  C   UNL     1       1.621   8.195  20.624  0.00  0.00    +0.000 A 
ATOM     20  C   UNL     1       1.541   6.843  20.981  0.00  0.00    +0.000 A 
ATOM     21  C   UNL     1       1.903   5.850  20.063  0.00  0.00    +0.000 A 
ATOM     22  C   UNL     1       2.288   6.202  18.769  0.00  0.00    +0.000 A 
ATOM     23  C   UNL     1       2.301   7.545  18.396  0.00  0.00    +0.000 A 
ATOM     24  C   UNL     1       1.944   8.535  19.310  0.00  0.00    +0.000 A 
BRANCH  22  25
ATOM     25  O   UNL     1       2.668   5.327  17.789  0.00  0.00    +0.000 OA
BRANCH  25  26
ATOM     26  C   UNL     1       1.933   4.102  17.736  0.00  0.00    +0.000 C 
BRANCH  26  27
ATOM     27  C   UNL     1       2.899   2.942  17.453  0.00  0.00    +0.000 C 
ATOM     28  C   UNL     1       4.320   3.431  17.171  0.00  0.00    +0.000 C 
ATOM     29  C   UNL     1       2.896   1.965  18.629  0.00  0.00    +0.000 C 
ENDBRANCH  26  27
ENDBRANCH  25  26
ENDBRANCH  22  25
ENDBRANCH  17  19
ENDBRANCH   2  17
BRANCH   3  30
ATOM     30  O   UNL     1      -0.690  10.039  23.624  0.00  0.00    +0.000 OA
ATOM     31  H   UNL     1      -1.524   9.527  23.699  0.00  0.00    +0.000 HD
ENDBRANCH   3  30
BRANCH   6  32
ATOM     32  C   UNL     1      -1.933  12.601  19.548  0.00  0.00    +0.000 C 
BRANCH  32  33
ATOM     33  C   UNL     1      -2.593  11.871  18.357  0.00  0.00    +0.000 C 
BRANCH  33  34
ATOM     34  N   UNL     1      -4.013  11.503  18.535  0.00  0.00    +0.000 NA
ATOM     35  C   UNL     1      -4.680  12.376  19.507  0.00  0.00    +0.000 C 
ATOM     36  C   UNL     1      -4.709  11.593  17.245  0.00  0.00    +0.000 C 
ENDBRANCH  33  34
ENDBRANCH  32  33
ENDBRANCH   6  32
TORSDOF 12
ENDMDL
MODEL 3
REMARK VINA RESULT:      -7.3      2.540      5.038
REMARK  Name = 
REMARK  17 active torsions:
REMARK  status: ('A' for Active; 'I' for Inactive)
REMARK    1  A    between atoms: C_1  and  O_2
REMARK    2  A    between atoms: O_2  and  C_3
REMARK    3  A    between atoms: C_5  and  C_6
REMARK    4  A    between atoms: C_7  and  C_8
REMARK    5  A    between atoms: C_8  and  C_10
REMARK    6  A    between atoms: C_13  and  O_14
REMARK    7  A    between atoms: O_14  and  C_15
REMARK    8  A    between atoms: C_15  and  C_16
REMARK    9  A    between atoms: C_16  and  C_17
REMARK   10  A    between atoms: C_16  and  C_18
REMARK   11  A    between atoms: C_21  and  O_22
REMARK   12  A    between atoms: N_25  and  C_26
REMARK   13  A    between atoms: C_26  and  C_27
REMARK   14  A    between atoms: C_27  and  N_28
REMARK   15  A    between atoms: N_28  and  C_29
REMARK   16  A    between atoms: N_28  and  C_30
REMARK   17  A    between atoms: C_33  and  O_34
REMARK                            x       y       z     vdW  Elec       q    Type
REMARK                         _______ _______ _______ _____ _____    ______ ____
ROOT
ATOM      1  C   UNL     1      -0.011  11.005  20.125  0.00  0.00    +0.000 C 
ATOM      2  C   UNL     1       0.253  10.222  21.381  0.00  0.00    +0.000 C 
ATOM      3  C   UNL     1      -0.615  10.524  22.359  0.00  0.00    +0.000 C 
ATOM      4  C   UNL     1      -1.589  11.489  21.793  0.00  0.00    +0.000 C 
ATOM      5  O   UNL     1      -2.525  11.993  22.396  0.00  0.00    +0.000 OA
ATOM      6  N   UNL     1      -1.226  11.705  20.482  0.00  0.00    +0.000 N 
ENDROOT
BRANCH   1   9
ATOM      7  C   UNL     1       2.578  13.834  20.332  0.00  0.00    +0.000 A 
ATOM      8  C   UNL     1       1.620  12.872  20.691  0.00  0.00    +0.000 A 
ATOM      9  C   UNL     1       1.098  11.969  19.747  0.00  0.00    +0.000 A 
ATOM     10  C   UNL     1       1.624  11.987  18.449  0.00  0.00    +0.000 A 
ATOM     11  C   UNL     1       2.581  12.928  18.081  0.00  0.00    +0.000 A 
ATOM     12  C   UNL     1       3.039  13.864  19.011  0.00  0.00    +0.000 A 
BRANCH   7  14
ATOM     13  C   UNL     1       1.903  15.432  21.978  0.00  0.00    +0.000 C 
ATOM     14  O   UNL     1       2.929  14.660  21.368  0.00  0.00    +0.000 OA
ENDBRANCH   7  14
BRANCH  12  15
ATOM     15  O   UNL     1       3.934  14.803  18.581  0.00  0.00    +0.000 OA
ATOM     16  H   UNL     1       4.159  15.391  19.320  0.00  0.00    +0.000 HD
ENDBRANCH  12  15
ENDBRANCH   1   9
BRANCH   2  17
ATOM     17  C   UNL     1       1.317   9.228  21.640  0.00  0.00    +0.000 C 
ATOM     18  O   UNL     1       1.933   9.243  22.700  0.00  0.00    +0.000 OA
BRANCH  17  19
ATOM     19  C   UNL     1       1.631   8.184  20.636  0.00  0.00    +0.000 A 
ATOM     20  C   UNL     1       1.555   6.835  21.006  0.00  0.00    +0.000 A 
ATOM     21  C   UNL     1       1.913   5.834  20.094  0.00  0.00    +0.000 A 
ATOM     22  C   UNL     1       2.289   6.175  18.794  0.00  0.00    +0.000 A 
ATOM     23  C   UNL     1       2.297   7.514  18.409  0.00  0.00    +0.000 A 
ATOM     24  C   UNL     1       1.945   8.512  19.316  0.00  0.00    +0.000 A 
BRANCH  22  25
ATOM     25  O   UNL     1       2.662   5.292  17.819  0.00  0.00    +0.000 OA
BRANCH  25  26
ATOM     26  C   UNL     1       3.982   5.469  17.299  0.00  0.00    +0.000 C 
BRANCH  26  27
ATOM     27  C   UNL     1       4.878   4.319  17.784  0.00  0.00    +0.000 C 
ATOM     28  C   UNL     1       5.635   4.679  19.062  0.00  0.00    +0.000 C 
ATOM     29  C   UNL     1       4.038   3.061  18.000  0.00  0.00    +0.000 C 
ENDBRANCH  26  27
ENDBRANCH  25  26
ENDBRANCH  22  25
ENDBRANCH  17  19
ENDBRANCH   2  17
BRANCH   3  30
ATOM     30  O   UNL     1      -0.662  10.040  23.638  0.00  0.00    +0.000 OA
ATOM     31  H   UNL     1      -0.831  10.803  24.232  0.00  0.00    +0.000 HD
ENDBRANCH   3  30
BRANCH   6  32
ATOM     32  C   UNL     1      -1.951  12.566  19.554  0.00  0.00    +0.000 C 
BRANCH  32  33
ATOM     33  C   UNL     1      -3.164  11.897  18.870  0.00  0.00    +0.000 C 
BRANCH  33  34
ATOM     34  N   UNL     1      -2.952  11.450  17.477  0.00  0.00    +0.000 NA
ATOM     35  C   UNL     1      -2.364  10.107  17.424  0.00  0.00    +0.000 C 
ATOM     36  C   UNL     1      -4.235  11.447  16.762  0.00  0.00    +0.000 C 
ENDBRANCH  33  34
ENDBRANCH  32  33
ENDBRANCH   6  32
TORSDOF 12
ENDMDL
MODEL 4
REMARK VINA RESULT:      -7.1      1.244      1.617
REMARK  Name = 
REMARK  17 active torsions:
REMARK  status: ('A' for Active; 'I' for Inactive)
REMARK    1  A    between atoms: C_1  and  O_2
REMARK    2  A    between atoms: O_2  and  C_3
REMARK    3  A    between atoms: C_5  and  C_6
REMARK    4  A    between atoms: C_7  and  C_8
REMARK    5  A    between atoms: C_8  and  C_10
REMARK    6  A    between atoms: C_13  and  O_14
REMARK    7  A    between atoms: O_14  and  C_15
REMARK    8  A    between atoms: C_15  and  C_16
REMARK    9  A    between atoms: C_16  and  C_17
REMARK   10  A    between atoms: C_16  and  C_18
REMARK   11  A    between atoms: C_21  and  O_22
REMARK   12  A    between atoms: N_25  and  C_26
REMARK   13  A    between atoms: C_26  and  C_27
REMARK   14  A    between atoms: C_27  and  N_28
REMARK   15  A    between atoms: N_28  and  C_29
REMARK   16  A    between atoms: N_28  and  C_30
REMARK   17  A    between atoms: C_33  and  O_34
REMARK                            x       y       z     vdW  Elec       q    Type
REMARK                         _______ _______ _______ _____ _____    ______ ____
ROOT
ATOM      1  C   UNL     1      -1.571  11.524  19.669  0.00  0.00    +0.000 C 
ATOM      2  C   UNL     1      -0.160  12.019  19.508  0.00  0.00    +0.000 C 
ATOM      3  C   UNL     1      -0.022  13.293  19.903  0.00  0.00    +0.000 C 
ATOM      4  C   UNL     1      -1.335  13.727  20.441  0.00  0.00    +0.000 C 
ATOM      5  O   UNL     1      -1.590  14.835  20.889  0.00  0.00    +0.000 OA
ATOM      6  N   UNL     1      -2.190  12.653  20.326  0.00  0.00    +0.000 N 
ENDROOT
BRANCH   1   9
ATOM      7  C   UNL     1      -4.160  11.471  16.833  0.00  0.00    +0.000 A 
ATOM      8  C   UNL     1      -3.454  11.839  17.990  0.00  0.00    +0.000 A 
ATOM      9  C   UNL     1      -2.265  11.187  18.362  0.00  0.00    +0.000 A 
ATOM     10  C   UNL     1      -1.742  10.214  17.500  0.00  0.00    +0.000 A 
ATOM     11  C   UNL     1      -2.425   9.846  16.345  0.00  0.00    +0.000 A 
ATOM     12  C   UNL     1      -3.641  10.454  16.023  0.00  0.00    +0.000 A 
BRANCH   7  14
ATOM     13  C   UNL     1      -6.188  12.315  17.778  0.00  0.00    +0.000 C 
ATOM     14  O   UNL     1      -5.321  12.178  16.660  0.00  0.00    +0.000 OA
ENDBRANCH   7  14
BRANCH  12  15
ATOM     15  O   UNL     1      -4.299  10.012  14.910  0.00  0.00    +0.000 OA
ATOM     16  H   UNL     1      -3.989  10.512  14.137  0.00  0.00    +0.000 HD
ENDBRANCH  12  15
ENDBRANCH   1   9
BRANCH   2  17
ATOM     17  C   UNL     1       1.014  11.295  18.974  0.00  0.00    +0.000 C 
ATOM     18  O   UNL     1       1.784  11.852  18.200  0.00  0.00    +0.000 OA
BRANCH  17  19
ATOM     19  C   UNL     1       1.292   9.900  19.392  0.00  0.00    +0.000 A 
ATOM     20  C   UNL     1       1.945   9.037  18.502  0.00  0.00    +0.000 A 
ATOM     21  C   UNL     1       2.158   7.698  18.851  0.00  0.00    +0.000 A 
ATOM     22  C   UNL     1       1.774   7.233  20.109  0.00  0.00    +0.000 A 
ATOM     23  C   UNL     1       1.187   8.112  21.017  0.00  0.00    +0.000 A 
ATOM     24  C   UNL     1       0.971   9.445  20.671  0.00  0.00    +0.000 A 
BRANCH  22  25
ATOM     25  O   UNL     1       1.924   5.951  20.561  0.00  0.00    +0.000 OA
BRANCH  25  26
ATOM     26  C   UNL     1       2.849   5.143  19.830  0.00  0.00    +0.000 C 
BRANCH  26  27
ATOM     27  C   UNL     1       2.117   3.918  19.263  0.00  0.00    +0.000 C 
ATOM     28  C   UNL     1       0.974   3.459  20.169  0.00  0.00    +0.000 C 
ATOM     29  C   UNL     1       1.592   4.229  17.862  0.00  0.00    +0.000 C 
ENDBRANCH  26  27
ENDBRANCH  25  26
ENDBRANCH  22  25
ENDBRANCH  17  19
ENDBRANCH   2  17
BRANCH   3  30
ATOM     30  O   UNL     1       1.098  14.080  19.872  0.00  0.00    +0.000 OA
ATOM     31  H   UNL     1       1.515  13.957  18.992  0.00  0.00    +0.000 HD
ENDBRANCH   3  30
BRANCH   6  32
ATOM     32  C   UNL     1      -3.578  12.650  20.776  0.00  0.00    +0.000 C 
BRANCH  32  33
ATOM     33  C   UNL     1      -3.755  12.603  22.311  0.00  0.00    +0.000 C 
BRANCH  33  34
ATOM     34  N   UNL     1      -4.807  13.480  22.864  0.00  0.00    +0.000 NA
ATOM     35  C   UNL     1      -5.494  12.851  23.998  0.00  0.00    +0.000 C 
ATOM     36  C   UNL     1      -4.210  14.747  23.302  0.00  0.00    +0.000 C 
ENDBRANCH  33  34
ENDBRANCH  32  33
ENDBRANCH   6  32
TORSDOF 12
ENDMDL
MODEL 5
REMARK VINA RESULT:      -7.1      2.588      4.163
REMARK  Name = 
REMARK  17 active torsions:
REMARK  status: ('A' for Active; 'I' for Inactive)
REMARK    1  A    between atoms: C_1  and  O_2
REMARK    2  A    between atoms: O_2  and  C_3
REMARK    3  A    between atoms: C_5  and  C_6
REMARK    4  A    between atoms: C_7  and  C_8
REMARK    5  A    between atoms: C_8  and  C_10
REMARK    6  A    between atoms: C_13  and  O_14
REMARK    7  A    between atoms: O_14  and  C_15
REMARK    8  A    between atoms: C_15  and  C_16
REMARK    9  A    between atoms: C_16  and  C_17
REMARK   10  A    between atoms: C_16  and  C_18
REMARK   11  A    between atoms: C_21  and  O_22
REMARK   12  A    between atoms: N_25  and  C_26
REMARK   13  A    between atoms: C_26  and  C_27
REMARK   14  A    between atoms: C_27  and  N_28
REMARK   15  A    between atoms: N_28  and  C_29
REMARK   16  A    between atoms: N_28  and  C_30
REMARK   17  A    between atoms: C_33  and  O_34
REMARK                            x       y       z     vdW  Elec       q    Type
REMARK                         _______ _______ _______ _____ _____    ______ ____
ROOT
ATOM      1  C   UNL     1      -0.502  12.758  20.767  0.00  0.00    +0.000 C 
ATOM      2  C   UNL     1      -0.661  12.247  19.361  0.00  0.00    +0.000 C 
ATOM      3  C   UNL     1      -0.588  13.231  18.452  0.00  0.00    +0.000 C 
ATOM      4  C   UNL     1      -0.291  14.483  19.190  0.00  0.00    +0.000 C 
ATOM      5  O   UNL     1      -0.159  15.591  18.690  0.00  0.00    +0.000 OA
ATOM      6  N   UNL     1      -0.205  14.153  20.525  0.00  0.00    +0.000 N 
ENDROOT
BRANCH   1   9
ATOM      7  C   UNL     1      -4.139  12.925  21.989  0.00  0.00    +0.000 A 
ATOM      8  C   UNL     1      -3.003  12.983  21.165  0.00  0.00    +0.000 A 
ATOM      9  C   UNL     1      -1.737  12.591  21.633  0.00  0.00    +0.000 A 
ATOM     10  C   UNL     1      -1.643  12.049  22.922  0.00  0.00    +0.000 A 
ATOM     11  C   UNL     1      -2.761  11.976  23.746  0.00  0.00    +0.000 A 
ATOM     12  C   UNL     1      -4.000  12.433  23.291  0.00  0.00    +0.000 A 
BRANCH   7  14
ATOM     13  C   UNL     1      -5.663  12.803  20.150  0.00  0.00    +0.000 C 
ATOM     14  O   UNL     1      -5.273  13.397  21.381  0.00  0.00    +0.000 OA
ENDBRANCH   7  14
BRANCH  12  15
ATOM     15  O   UNL     1      -5.052  12.393  24.163  0.00  0.00    +0.000 OA
ATOM     16  H   UNL     1      -5.879  12.527  23.671  0.00  0.00    +0.000 HD
ENDBRANCH  12  15
ENDBRANCH   1   9
BRANCH   2  17
ATOM     17  C   UNL     1      -0.892  10.859  18.908  0.00  0.00    +0.000 C 
ATOM     18  O   UNL     1      -1.949  10.554  18.366  0.00  0.00    +0.000 OA
BRANCH  17  19
ATOM     19  C   UNL     1       0.159   9.827  19.073  0.00  0.00    +0.000 A 
ATOM     20  C   UNL     1       0.926   9.448  17.964  0.00  0.00    +0.000 A 
ATOM     21  C   UNL     1       1.878   8.428  18.083  0.00  0.00    +0.000 A 
ATOM     22  C   UNL     1       2.108   7.827  19.321  0.00  0.00    +0.000 A 
ATOM     23  C   UNL     1       1.391   8.255  20.437  0.00  0.00    +0.000 A 
ATOM     24  C   UNL     1       0.440   9.267  20.320  0.00  0.00    +0.000 A 
BRANCH  22  25
ATOM     25  O   UNL     1       3.003   6.822  19.561  0.00  0.00    +0.000 OA
BRANCH  25  26
ATOM     26  C   UNL     1       2.449   5.613  20.084  0.00  0.00    +0.000 C 
BRANCH  26  27
ATOM     27  C   UNL     1       1.813   4.809  18.940  0.00  0.00    +0.000 C 
ATOM     28  C   UNL     1       2.821   4.475  17.840  0.00  0.00    +0.000 C 
ATOM     29  C   UNL     1       1.184   3.529  19.491  0.00  0.00    +0.000 C 
ENDBRANCH  26  27
ENDBRANCH  25  26
ENDBRANCH  22  25
ENDBRANCH  17  19
ENDBRANCH   2  17
BRANCH   3  30
ATOM     30  O   UNL     1      -0.719  13.149  17.093  0.00  0.00    +0.000 OA
ATOM     31  H   UNL     1       0.112  12.762  16.743  0.00  0.00    +0.000 HD
ENDBRANCH   3  30
BRANCH   6  32
ATOM     32  C   UNL     1       0.111  15.097  21.592  0.00  0.00    +0.000 C 
BRANCH  32  33
ATOM     33  C   UNL     1       1.620  15.262  21.877  0.00  0.00    +0.000 C 
BRANCH  33  34
ATOM     34  N   UNL     1       2.224  16.534  21.432  0.00  0.00    +0.000 NA
ATOM     35  C   UNL     1       2.886  16.392  20.130  0.00  0.00    +0.000 C 
ATOM     36  C   UNL     1       1.183  17.566  21.337  0.00  0.00    +0.000 C 
ENDBRANCH  33  34
ENDBRANCH  32  33
ENDBRANCH   6  32
TORSDOF 12
ENDMDL
MODEL 6
REMARK VINA RESULT:      -7.1      2.602      4.039
REMARK  Name = 
REMARK  17 active torsions:
REMARK  status: ('A' for Active; 'I' for Inactive)
REMARK    1  A    between atoms: C_1  and  O_2
REMARK    2  A    between atoms: O_2  and  C_3
REMARK    3  A    between atoms: C_5  and  C_6
REMARK    4  A    between atoms: C_7  and  C_8
REMARK    5  A    between atoms: C_8  and  C_10
REMARK    6  A    between atoms: C_13  and  O_14
REMARK    7  A    between atoms: O_14  and  C_15
REMARK    8  A    between atoms: C_15  and  C_16
REMARK    9  A    between atoms: C_16  and  C_17
REMARK   10  A    between atoms: C_16  and  C_18
REMARK   11  A    between atoms: C_21  and  O_22
REMARK   12  A    between atoms: N_25  and  C_26
REMARK   13  A    between atoms: C_26  and  C_27
REMARK   14  A    between atoms: C_27  and  N_28
REMARK   15  A    between atoms: N_28  and  C_29
REMARK   16  A    between atoms: N_28  and  C_30
REMARK   17  A    between atoms: C_33  and  O_34
REMARK                            x       y       z     vdW  Elec       q    Type
REMARK                         _______ _______ _______ _____ _____    ______ ____
ROOT
ATOM      1  C   UNL     1      -0.605  12.715  20.828  0.00  0.00    +0.000 C 
ATOM      2  C   UNL     1      -0.747  12.167  19.435  0.00  0.00    +0.000 C 
ATOM      3  C   UNL     1      -0.673  13.128  18.502  0.00  0.00    +0.000 C 
ATOM      4  C   UNL     1      -0.392  14.401  19.210  0.00  0.00    +0.000 C 
ATOM      5  O   UNL     1      -0.264  15.496  18.683  0.00  0.00    +0.000 OA
ATOM      6  N   UNL     1      -0.317  14.105  20.554  0.00  0.00    +0.000 N 
ENDROOT
BRANCH   1   9
ATOM      7  C   UNL     1      -4.257  12.873  22.006  0.00  0.00    +0.000 A 
ATOM      8  C   UNL     1      -3.113  12.919  21.192  0.00  0.00    +0.000 A 
ATOM      9  C   UNL     1      -1.847  12.560  21.687  0.00  0.00    +0.000 A 
ATOM     10  C   UNL     1      -1.760  12.063  22.994  0.00  0.00    +0.000 A 
ATOM     11  C   UNL     1      -2.887  12.002  23.808  0.00  0.00    +0.000 A 
ATOM     12  C   UNL     1      -4.126  12.428  23.326  0.00  0.00    +0.000 A 
BRANCH   7  14
ATOM     13  C   UNL     1      -6.222  12.337  20.754  0.00  0.00    +0.000 C 
ATOM     14  O   UNL     1      -5.390  13.310  21.371  0.00  0.00    +0.000 OA
ENDBRANCH   7  14
BRANCH  12  15
ATOM     15  O   UNL     1      -5.187  12.403  24.187  0.00  0.00    +0.000 OA
ATOM     16  H   UNL     1      -5.942  12.855  23.776  0.00  0.00    +0.000 HD
ENDBRANCH  12  15
ENDBRANCH   1   9
BRANCH   2  17
ATOM     17  C   UNL     1      -0.964  10.765  19.015  0.00  0.00    +0.000 C 
ATOM     18  O   UNL     1      -2.046  10.419  18.554  0.00  0.00    +0.000 OA
BRANCH  17  19
ATOM     19  C   UNL     1       0.130   9.771  19.115  0.00  0.00    +0.000 A 
ATOM     20  C   UNL     1       0.889   9.472  17.976  0.00  0.00    +0.000 A 
ATOM     21  C   UNL     1       1.884   8.487  18.033  0.00  0.00    +0.000 A 
ATOM     22  C   UNL     1       2.162   7.842  19.238  0.00  0.00    +0.000 A 
ATOM     23  C   UNL     1       1.451   8.192  20.385  0.00  0.00    +0.000 A 
ATOM     24  C   UNL     1       0.458   9.169  20.331  0.00  0.00    +0.000 A 
BRANCH  22  25
ATOM     25  O   UNL     1       3.101   6.865  19.416  0.00  0.00    +0.000 OA
BRANCH  25  26
ATOM     26  C   UNL     1       2.598   5.593  19.831  0.00  0.00    +0.000 C 
BRANCH  26  27
ATOM     27  C   UNL     1       2.817   4.569  18.707  0.00  0.00    +0.000 C 
ATOM     28  C   UNL     1       1.623   4.496  17.754  0.00  0.00    +0.000 C 
ATOM     29  C   UNL     1       4.092   4.908  17.936  0.00  0.00    +0.000 C 
ENDBRANCH  26  27
ENDBRANCH  25  26
ENDBRANCH  22  25
ENDBRANCH  17  19
ENDBRANCH   2  17
BRANCH   3  30
ATOM     30  O   UNL     1      -0.790  13.010  17.143  0.00  0.00    +0.000 OA
ATOM     31  H   UNL     1      -0.077  13.553  16.742  0.00  0.00    +0.000 HD
ENDBRANCH   3  30
BRANCH   6  32
ATOM     32  C   UNL     1      -0.018  15.078  21.599  0.00  0.00    +0.000 C 
BRANCH  32  33
ATOM     33  C   UNL     1      -1.170  16.059  21.911  0.00  0.00    +0.000 C 
BRANCH  33  34
ATOM     34  N   UNL     1      -0.863  17.492  21.725  0.00  0.00    +0.000 NA
ATOM     35  C   UNL     1       0.538  17.699  21.340  0.00  0.00    +0.000 C 
ATOM     36  C   UNL     1      -1.738  18.052  20.687  0.00  0.00    +0.000 C 
ENDBRANCH  33  34
ENDBRANCH  32  33
ENDBRANCH   6  32
TORSDOF 12
ENDMDL
MODEL 7
REMARK VINA RESULT:      -7.1      2.550      5.135
REMARK  Name = 
REMARK  17 active torsions:
REMARK  status: ('A' for Active; 'I' for Inactive)
REMARK    1  A    between atoms: C_1  and  O_2
REMARK    2  A    between atoms: O_2  and  C_3
REMARK    3  A    between atoms: C_5  and  C_6
REMARK    4  A    between atoms: C_7  and  C_8
REMARK    5  A    between atoms: C_8  and  C_10
REMARK    6  A    between atoms: C_13  and  O_14
REMARK    7  A    between atoms: O_14  and  C_15
REMARK    8  A    between atoms: C_15  and  C_16
REMARK    9  A    between atoms: C_16  and  C_17
REMARK   10  A    between atoms: C_16  and  C_18
REMARK   11  A    between atoms: C_21  and  O_22
REMARK   12  A    between atoms: N_25  and  C_26
REMARK   13  A    between atoms: C_26  and  C_27
REMARK   14  A    between atoms: C_27  and  N_28
REMARK   15  A    between atoms: N_28  and  C_29
REMARK   16  A    between atoms: N_28  and  C_30
REMARK   17  A    between atoms: C_33  and  O_34
REMARK                            x       y       z     vdW  Elec       q    Type
REMARK                         _______ _______ _______ _____ _____    ______ ____
ROOT
ATOM      1  C   UNL     1       0.071  10.990  20.018  0.00  0.00    +0.000 C 
ATOM      2  C   UNL     1       0.263  10.166  21.262  0.00  0.00    +0.000 C 
ATOM      3  C   UNL     1      -0.666  10.430  22.193  0.00  0.00    +0.000 C 
ATOM      4  C   UNL     1      -1.610  11.408  21.601  0.00  0.00    +0.000 C 
ATOM      5  O   UNL     1      -2.585  11.887  22.162  0.00  0.00    +0.000 OA
ATOM      6  N   UNL     1      -1.169  11.670  20.322  0.00  0.00    +0.000 N 
ENDROOT
BRANCH   1   9
ATOM      7  C   UNL     1       2.712  13.732  20.522  0.00  0.00    +0.000 A 
ATOM      8  C   UNL     1       1.740  12.751  20.778  0.00  0.00    +0.000 A 
ATOM      9  C   UNL     1       1.194  11.972  19.742  0.00  0.00    +0.000 A 
ATOM     10  C   UNL     1       1.710  12.129  18.449  0.00  0.00    +0.000 A 
ATOM     11  C   UNL     1       2.680  13.091  18.182  0.00  0.00    +0.000 A 
ATOM     12  C   UNL     1       3.163  13.905  19.209  0.00  0.00    +0.000 A 
BRANCH   7  14
ATOM     13  C   UNL     1       4.407  14.237  22.131  0.00  0.00    +0.000 C 
ATOM     14  O   UNL     1       3.086  14.427  21.642  0.00  0.00    +0.000 OA
ENDBRANCH   7  14
BRANCH  12  15
ATOM     15  O   UNL     1       4.071  14.873  18.880  0.00  0.00    +0.000 OA
ATOM     16  H   UNL     1       3.808  15.710  19.295  0.00  0.00    +0.000 HD
ENDBRANCH  12  15
ENDBRANCH   1   9
BRANCH   2  17
ATOM     17  C   UNL     1       1.316   9.169  21.551  0.00  0.00    +0.000 C 
ATOM     18  O   UNL     1       1.921   9.202  22.618  0.00  0.00    +0.000 OA
BRANCH  17  19
ATOM     19  C   UNL     1       1.633   8.102  20.573  0.00  0.00    +0.000 A 
ATOM     20  C   UNL     1       2.033   8.458  19.278  0.00  0.00    +0.000 A 
ATOM     21  C   UNL     1       2.272   7.467  18.319  0.00  0.00    +0.000 A 
ATOM     22  C   UNL     1       2.171   6.119  18.665  0.00  0.00    +0.000 A 
ATOM     23  C   UNL     1       1.840   5.768  19.973  0.00  0.00    +0.000 A 
ATOM     24  C   UNL     1       1.598   6.753  20.929  0.00  0.00    +0.000 A 
BRANCH  22  25
ATOM     25  O   UNL     1       2.375   5.065  17.819  0.00  0.00    +0.000 OA
BRANCH  25  26
ATOM     26  C   UNL     1       3.740   4.767  17.521  0.00  0.00    +0.000 C 
BRANCH  26  27
ATOM     27  C   UNL     1       4.047   3.319  17.933  0.00  0.00    +0.000 C 
ATOM     28  C   UNL     1       4.513   3.220  19.385  0.00  0.00    +0.000 C 
ATOM     29  C   UNL     1       2.814   2.443  17.709  0.00  0.00    +0.000 C 
ENDBRANCH  26  27
ENDBRANCH  25  26
ENDBRANCH  22  25
ENDBRANCH  17  19
ENDBRANCH   2  17
BRANCH   3  30
ATOM     30  O   UNL     1      -0.788   9.902  23.450  0.00  0.00    +0.000 OA
ATOM     31  H   UNL     1       0.094   9.557  23.708  0.00  0.00    +0.000 HD
ENDBRANCH   3  30
BRANCH   6  32
ATOM     32  C   UNL     1      -1.842  12.559  19.381  0.00  0.00    +0.000 C 
BRANCH  32  33
ATOM     33  C   UNL     1      -2.954  11.886  18.545  0.00  0.00    +0.000 C 
BRANCH  33  34
ATOM     34  N   UNL     1      -2.508  10.837  17.606  0.00  0.00    +0.000 NA
ATOM     35  C   UNL     1      -3.233   9.579  17.816  0.00  0.00    +0.000 C 
ATOM     36  C   UNL     1      -2.717  11.292  16.226  0.00  0.00    +0.000 C 
ENDBRANCH  33  34
ENDBRANCH  32  33
ENDBRANCH   6  32
TORSDOF 12
ENDMDL
MODEL 8
REMARK VINA RESULT:      -7.1      2.376      4.686
REMARK  Name = 
REMARK  17 active torsions:
REMARK  status: ('A' for Active; 'I' for Inactive)
REMARK    1  A    between atoms: C_1  and  O_2
REMARK    2  A    between atoms: O_2  and  C_3
REMARK    3  A    between atoms: C_5  and  C_6
REMARK    4  A    between atoms: C_7  and  C_8
REMARK    5  A    between atoms: C_8  and  C_10
REMARK    6  A    between atoms: C_13  and  O_14
REMARK    7  A    between atoms: O_14  and  C_15
REMARK    8  A    between atoms: C_15  and  C_16
REMARK    9  A    between atoms: C_16  and  C_17
REMARK   10  A    between atoms: C_16  and  C_18
REMARK   11  A    between atoms: C_21  and  O_22
REMARK   12  A    between atoms: N_25  and  C_26
REMARK   13  A    between atoms: C_26  and  C_27
REMARK   14  A    between atoms: C_27  and  N_28
REMARK   15  A    between atoms: N_28  and  C_29
REMARK   16  A    between atoms: N_28  and  C_30
REMARK   17  A    between atoms: C_33  and  O_34
REMARK                            x       y       z     vdW  Elec       q    Type
REMARK                         _______ _______ _______ _____ _____    ______ ____
ROOT
ATOM      1  C   UNL     1       0.001  10.875  19.974  0.00  0.00    +0.000 C 
ATOM      2  C   UNL     1       0.261  10.217  21.301  0.00  0.00    +0.000 C 
ATOM      3  C   UNL     1      -0.591  10.635  22.249  0.00  0.00    +0.000 C 
ATOM      4  C   UNL     1      -1.550  11.558  21.596  0.00  0.00    +0.000 C 
ATOM      5  O   UNL     1      -2.470  12.141  22.151  0.00  0.00    +0.000 OA
ATOM      6  N   UNL     1      -1.195  11.632  20.267  0.00  0.00    +0.000 N 
ENDROOT
BRANCH   1   9
ATOM      7  C   UNL     1       2.528  13.761  19.789  0.00  0.00    +0.000 A 
ATOM      8  C   UNL     1       1.556  12.866  20.264  0.00  0.00    +0.000 A 
ATOM      9  C   UNL     1       1.127  11.772  19.492  0.00  0.00    +0.000 A 
ATOM     10  C   UNL     1       1.761  11.534  18.266  0.00  0.00    +0.000 A 
ATOM     11  C   UNL     1       2.734  12.406  17.787  0.00  0.00    +0.000 A 
ATOM     12  C   UNL     1       3.100  13.528  18.533  0.00  0.00    +0.000 A 
BRANCH   7  14
ATOM     13  C   UNL     1       2.110  16.027  20.425  0.00  0.00    +0.000 C 
ATOM     14  O   UNL     1       2.780  14.795  20.653  0.00  0.00    +0.000 OA
ENDBRANCH   7  14
BRANCH  12  15
ATOM     15  O   UNL     1       4.016  14.384  17.988  0.00  0.00    +0.000 OA
ATOM     16  H   UNL     1       4.317  14.028  17.137  0.00  0.00    +0.000 HD
ENDBRANCH  12  15
ENDBRANCH   1   9
BRANCH   2  17
ATOM     17  C   UNL     1       1.307   9.232  21.651  0.00  0.00    +0.000 C 
ATOM     18  O   UNL     1       1.953   9.357  22.686  0.00  0.00    +0.000 OA
BRANCH  17  19
ATOM     19  C   UNL     1       1.567   8.066  20.773  0.00  0.00    +0.000 A 
ATOM     20  C   UNL     1       2.104   8.277  19.497  0.00  0.00    +0.000 A 
ATOM     21  C   UNL     1       2.294   7.196  18.627  0.00  0.00    +0.000 A 
ATOM     22  C   UNL     1       2.005   5.898  19.050  0.00  0.00    +0.000 A 
ATOM     23  C   UNL     1       1.536   5.686  20.345  0.00  0.00    +0.000 A 
ATOM     24  C   UNL     1       1.342   6.760  21.211  0.00  0.00    +0.000 A 
BRANCH  22  25
ATOM     25  O   UNL     1       2.144   4.768  18.293  0.00  0.00    +0.000 OA
BRANCH  25  26
ATOM     26  C   UNL     1       3.248   3.928  18.636  0.00  0.00    +0.000 C 
BRANCH  26  27
ATOM     27  C   UNL     1       2.725   2.539  19.035  0.00  0.00    +0.000 C 
ATOM     28  C   UNL     1       1.254   2.350  18.666  0.00  0.00    +0.000 C 
ATOM     29  C   UNL     1       3.581   1.454  18.382  0.00  0.00    +0.000 C 
ENDBRANCH  26  27
ENDBRANCH  25  26
ENDBRANCH  22  25
ENDBRANCH  17  19
ENDBRANCH   2  17
BRANCH   3  30
ATOM     30  O   UNL     1      -0.636  10.283  23.571  0.00  0.00    +0.000 OA
ATOM     31  H   UNL     1      -0.743   9.308  23.609  0.00  0.00    +0.000 HD
ENDBRANCH   3  30
BRANCH   6  32
ATOM     32  C   UNL     1      -1.911  12.412  19.262  0.00  0.00    +0.000 C 
BRANCH  32  33
ATOM     33  C   UNL     1      -2.314  11.616  18.000  0.00  0.00    +0.000 C 
BRANCH  33  34
ATOM     34  N   UNL     1      -3.712  11.143  17.956  0.00  0.00    +0.000 NA
ATOM     35  C   UNL     1      -4.574  11.921  18.853  0.00  0.00    +0.000 C 
ATOM     36  C   UNL     1      -4.224  11.244  16.584  0.00  0.00    +0.000 C 
ENDBRANCH  33  34
ENDBRANCH  32  33
ENDBRANCH   6  32
TORSDOF 12
ENDMDL
MODEL 9
REMARK VINA RESULT:      -7.1      2.248      3.626
REMARK  Name = 
REMARK  17 active torsions:
REMARK  status: ('A' for Active; 'I' for Inactive)
REMARK    1  A    between atoms: C_1  and  O_2
REMARK    2  A    between atoms: O_2  and  C_3
REMARK    3  A    between atoms: C_5  and  C_6
REMARK    4  A    between atoms: C_7  and  C_8
REMARK    5  A    between atoms: C_8  and  C_10
REMARK    6  A    between atoms: C_13  and  O_14
REMARK    7  A    between atoms: O_14  and  C_15
REMARK    8  A    between atoms: C_15  and  C_16
REMARK    9  A    between atoms: C_16  and  C_17
REMARK   10  A    between atoms: C_16  and  C_18
REMARK   11  A    between atoms: C_21  and  O_22
REMARK   12  A    between atoms: N_25  and  C_26
REMARK   13  A    between atoms: C_26  and  C_27
REMARK   14  A    between atoms: C_27  and  N_28
REMARK   15  A    between atoms: N_28  and  C_29
REMARK   16  A    between atoms: N_28  and  C_30
REMARK   17  A    between atoms: C_33  and  O_34
REMARK                            x       y       z     vdW  Elec       q    Type
REMARK                         _______ _______ _______ _____ _____    ______ ____
ROOT
ATOM      1  C   UNL     1       0.041  12.528  20.954  0.00  0.00    +0.000 C 
ATOM      2  C   UNL     1       0.352  12.065  19.557  0.00  0.00    +0.000 C 
ATOM      3  C   UNL     1       1.050  12.977  18.864  0.00  0.00    +0.000 C 
ATOM      4  C   UNL     1       1.330  14.104  19.787  0.00  0.00    +0.000 C 
ATOM      5  O   UNL     1       1.942  15.123  19.503  0.00  0.00    +0.000 OA
ATOM      6  N   UNL     1       0.765  13.779  21.001  0.00  0.00    +0.000 N 
ENDROOT
BRANCH   1   9
ATOM      7  C   UNL     1      -3.393  12.380  22.666  0.00  0.00    +0.000 A 
ATOM      8  C   UNL     1      -2.010  12.291  22.437  0.00  0.00    +0.000 A 
ATOM      9  C   UNL     1      -1.438  12.727  21.229  0.00  0.00    +0.000 A 
ATOM     10  C   UNL     1      -2.269  13.342  20.283  0.00  0.00    +0.000 A 
ATOM     11  C   UNL     1      -3.639  13.446  20.501  0.00  0.00    +0.000 A 
ATOM     12  C   UNL     1      -4.204  12.946  21.677  0.00  0.00    +0.000 A 
BRANCH   7  14
ATOM     13  C   UNL     1      -4.151  12.766  24.901  0.00  0.00    +0.000 C 
ATOM     14  O   UNL     1      -3.776  11.858  23.874  0.00  0.00    +0.000 OA
ENDBRANCH   7  14
BRANCH  12  15
ATOM     15  O   UNL     1      -5.562  13.020  21.812  0.00  0.00    +0.000 OA
ATOM     16  H   UNL     1      -5.977  12.860  20.949  0.00  0.00    +0.000 HD
ENDBRANCH  12  15
ENDBRANCH   1   9
BRANCH   2  17
ATOM     17  C   UNL     1      -0.025  10.793  18.904  0.00  0.00    +0.000 C 
ATOM     18  O   UNL     1      -1.027  10.733  18.199  0.00  0.00    +0.000 OA
BRANCH  17  19
ATOM     19  C   UNL     1       0.817   9.584  19.067  0.00  0.00    +0.000 A 
ATOM     20  C   UNL     1       0.866   8.947  20.313  0.00  0.00    +0.000 A 
ATOM     21  C   UNL     1       1.706   7.844  20.507  0.00  0.00    +0.000 A 
ATOM     22  C   UNL     1       2.454   7.339  19.443  0.00  0.00    +0.000 A 
ATOM     23  C   UNL     1       2.351   7.934  18.187  0.00  0.00    +0.000 A 
ATOM     24  C   UNL     1       1.517   9.034  17.992  0.00  0.00    +0.000 A 
BRANCH  22  25
ATOM     25  O   UNL     1       3.310   6.275  19.509  0.00  0.00    +0.000 OA
BRANCH  25  26
ATOM     26  C   UNL     1       2.785   5.097  20.125  0.00  0.00    +0.000 C 
BRANCH  26  27
ATOM     27  C   UNL     1       1.658   4.526  19.251  0.00  0.00    +0.000 C 
ATOM     28  C   UNL     1       2.186   3.937  17.943  0.00  0.00    +0.000 C 
ATOM     29  C   UNL     1       0.878   3.470  20.033  0.00  0.00    +0.000 C 
ENDBRANCH  26  27
ENDBRANCH  25  26
ENDBRANCH  22  25
ENDBRANCH  17  19
ENDBRANCH   2  17
BRANCH   3  30
ATOM     30  O   UNL     1       1.478  12.919  17.565  0.00  0.00    +0.000 OA
ATOM     31  H   UNL     1       0.728  12.586  17.026  0.00  0.00    +0.000 HD
ENDBRANCH   3  30
BRANCH   6  32
ATOM     32  C   UNL     1       0.845  14.609  22.199  0.00  0.00    +0.000 C 
BRANCH  32  33
ATOM     33  C   UNL     1       0.010  15.908  22.137  0.00  0.00    +0.000 C 
BRANCH  33  34
ATOM     34  N   UNL     1      -1.258  15.894  22.894  0.00  0.00    +0.000 NA
ATOM     35  C   UNL     1      -1.088  15.297  24.223  0.00  0.00    +0.000 C 
ATOM     36  C   UNL     1      -1.758  17.267  23.040  0.00  0.00    +0.000 C 
ENDBRANCH  33  34
ENDBRANCH  32  33
ENDBRANCH   6  32
TORSDOF 12
ENDMDL
