MODEL 1
REMARK VINA RESULT:      -8.0      0.000      0.000
REMARK  Name = 
REMARK  4 active torsions:
REMARK  status: ('A' for Active; 'I' for Inactive)
REMARK    1  A    between atoms: N_1  and  C_2
REMARK    2  A    between atoms: C_6  and  C_7
REMARK    3  A    between atoms: C_8  and  C_9
REMARK    4  A    between atoms: N_11  and  C_12
REMARK                            x       y       z     vdW  Elec       q    Type
REMARK                         _______ _______ _______ _____ _____    ______ ____
ROOT
ATOM      1  C   UNL     1       8.956   9.539  19.010  0.00  0.00    +0.000 C 
ATOM      2  C   UNL     1       8.364   9.038  17.911  0.00  0.00    +0.000 C 
ENDROOT
BRANCH   1   7
ATOM      3  C   UNL     1      10.188  13.013  18.081  0.00  0.00    +0.000 A 
ATOM      4  C   UNL     1      10.799  13.381  19.281  0.00  0.00    +0.000 A 
ATOM      5  C   UNL     1      10.767  12.532  20.387  0.00  0.00    +0.000 A 
ATOM      6  C   UNL     1      10.144  11.287  20.291  0.00  0.00    +0.000 A 
ATOM      7  C   UNL     1       9.557  10.879  19.088  0.00  0.00    +0.000 A 
ATOM      8  C   UNL     1       9.623  11.737  17.980  0.00  0.00    +0.000 A 
BRANCH   3   9
ATOM      9  N   UNL     1      10.343  13.806  16.937  0.00  0.00    +0.000 N 
ATOM     10  H   UNL     1      11.224  14.309  16.905  0.00  0.00    +0.000 HD
ATOM     11  H   UNL     1       9.549  14.406  16.740  0.00  0.00    +0.000 HD
ENDBRANCH   3   9
ENDBRANCH   1   7
BRANCH   2  12
ATOM     12  C   UNL     1       7.792   7.662  17.948  0.00  0.00    +0.000 C 
ATOM     13  O   UNL     1       8.200   6.834  18.752  0.00  0.00    +0.000 OA
ATOM     14  N   UNL     1       6.777   7.493  17.026  0.00  0.00    +0.000 N 
ATOM     15  H   UNL     1       6.475   8.308  16.508  0.00  0.00    +0.000 HD
BRANCH  14  16
ATOM     16  C   UNL     1       6.034   6.310  16.802  0.00  0.00    +0.000 A 
ATOM     17  C   UNL     1       6.497   5.243  16.026  0.00  0.00    +0.000 A 
ATOM     18  C   UNL     1       5.725   4.089  15.863  0.00  0.00    +0.000 A 
ATOM     19  C   UNL     1       4.481   3.988  16.478  0.00  0.00    +0.000 A 
ATOM     20  C   UNL     1       4.007   5.053  17.239  0.00  0.00    +0.000 A 
ATOM     21 CL   UNL     1       2.472   4.931  18.008  0.00  0.00    +0.000 Cl
ATOM     22  C   UNL     1       4.769   6.214  17.395  0.00  0.00    +0.000 A 
ENDBRANCH  14  16
ENDBRANCH   2  12
TORSDOF 4
ENDMDL
MODEL 2
REMARK VINA RESULT:      -7.8      1.330      1.689
REMARK  Name = 
REMARK  4 active torsions:
REMARK  status: ('A' for Active; 'I' for Inactive)
REMARK    1  A    between atoms: N_1  and  C_2
REMARK    2  A    between atoms: C_6  and  C_7
REMARK    3  A    between atoms: C_8  and  C_9
REMARK    4  A    between atoms: N_11  and  C_12
REMARK                            x       y       z     vdW  Elec       q    Type
REMARK                         _______ _______ _______ _____ _____    ______ ____
ROOT
ATOM      1  C   UNL     1       9.112   9.584  18.940  0.00  0.00    +0.000 C 
ATOM      2  C   UNL     1       8.271   9.184  17.969  0.00  0.00    +0.000 C 
ENDROOT
BRANCH   1   7
ATOM      3  C   UNL     1      10.369  13.061  18.055  0.00  0.00    +0.000 A 
ATOM      4  C   UNL     1      10.812  13.483  19.310  0.00  0.00    +0.000 A 
ATOM      5  C   UNL     1      10.660  12.668  20.431  0.00  0.00    +0.000 A 
ATOM      6  C   UNL     1      10.085  11.403  20.300  0.00  0.00    +0.000 A 
ATOM      7  C   UNL     1       9.666  10.942  19.047  0.00  0.00    +0.000 A 
ATOM      8  C   UNL     1       9.851  11.767  17.927  0.00  0.00    +0.000 A 
BRANCH   3   9
ATOM      9  N   UNL     1      10.649  13.821  16.913  0.00  0.00    +0.000 N 
ATOM     10  H   UNL     1      11.349  13.405  16.307  0.00  0.00    +0.000 HD
ATOM     11  H   UNL     1      10.839  14.800  17.105  0.00  0.00    +0.000 HD
ENDBRANCH   3   9
ENDBRANCH   1   7
BRANCH   2  12
ATOM     12  C   UNL     1       7.776   7.778  17.960  0.00  0.00    +0.000 C 
ATOM     13  O   UNL     1       8.264   6.936  18.704  0.00  0.00    +0.000 OA
ATOM     14  N   UNL     1       6.733   7.596  17.073  0.00  0.00    +0.000 N 
ATOM     15  H   UNL     1       6.366   8.417  16.610  0.00  0.00    +0.000 HD
BRANCH  14  16
ATOM     16  C   UNL     1       6.046   6.385  16.820  0.00  0.00    +0.000 A 
ATOM     17  C   UNL     1       5.077   5.855  17.675  0.00  0.00    +0.000 A 
ATOM     18  C   UNL     1       4.414   4.665  17.356  0.00  0.00    +0.000 A 
ATOM     19  C   UNL     1       4.714   3.995  16.174  0.00  0.00    +0.000 A 
ATOM     20  C   UNL     1       5.690   4.509  15.325  0.00  0.00    +0.000 A 
ATOM     21 CL   UNL     1       6.060   3.687  13.858  0.00  0.00    +0.000 Cl
ATOM     22  C   UNL     1       6.364   5.690  15.646  0.00  0.00    +0.000 A 
ENDBRANCH  14  16
ENDBRANCH   2  12
TORSDOF 4
ENDMDL
MODEL 3
REMARK VINA RESULT:      -7.6      1.104      1.513
REMARK  Name = 
REMARK  4 active torsions:
REMARK  status: ('A' for Active; 'I' for Inactive)
REMARK    1  A    between atoms: N_1  and  C_2
REMARK    2  A    between atoms: C_6  and  C_7
REMARK    3  A    between atoms: C_8  and  C_9
REMARK    4  A    between atoms: N_11  and  C_12
REMARK                            x       y       z     vdW  Elec       q    Type
REMARK                         _______ _______ _______ _____ _____    ______ ____
ROOT
ATOM      1  C   UNL     1       9.102   9.543  18.968  0.00  0.00    +0.000 C 
ATOM      2  C   UNL     1       8.312   9.125  17.963  0.00  0.00    +0.000 C 
ENDROOT
BRANCH   1   7
ATOM      3  C   UNL     1      10.178  12.922  20.339  0.00  0.00    +0.000 A 
ATOM      4  C   UNL     1      10.667  13.510  19.171  0.00  0.00    +0.000 A 
ATOM      5  C   UNL     1      10.689  12.801  17.971  0.00  0.00    +0.000 A 
ATOM      6  C   UNL     1      10.193  11.498  17.922  0.00  0.00    +0.000 A 
ATOM      7  C   UNL     1       9.663  10.898  19.070  0.00  0.00    +0.000 A 
ATOM      8  C   UNL     1       9.626  11.638  20.262  0.00  0.00    +0.000 A 
BRANCH   3   9
ATOM      9  N   UNL     1      10.029  13.682  21.506  0.00  0.00    +0.000 N 
ATOM     10  H   UNL     1       9.605  13.172  22.274  0.00  0.00    +0.000 HD
ATOM     11  H   UNL     1       9.593  14.586  21.356  0.00  0.00    +0.000 HD
ENDBRANCH   3   9
ENDBRANCH   1   7
BRANCH   2  12
ATOM     12  C   UNL     1       7.803   7.723  17.964  0.00  0.00    +0.000 C 
ATOM     13  O   UNL     1       8.213   6.907  18.780  0.00  0.00    +0.000 OA
ATOM     14  N   UNL     1       6.840   7.516  16.995  0.00  0.00    +0.000 N 
ATOM     15  H   UNL     1       6.525   8.321  16.470  0.00  0.00    +0.000 HD
BRANCH  14  16
ATOM     16  C   UNL     1       6.164   6.302  16.729  0.00  0.00    +0.000 A 
ATOM     17  C   UNL     1       6.711   5.266  15.966  0.00  0.00    +0.000 A 
ATOM     18  C   UNL     1       6.001   4.078  15.760  0.00  0.00    +0.000 A 
ATOM     19  C   UNL     1       4.738   3.914  16.319  0.00  0.00    +0.000 A 
ATOM     20  C   UNL     1       4.181   4.948  17.066  0.00  0.00    +0.000 A 
ATOM     21 CL   UNL     1       2.621   4.747  17.765  0.00  0.00    +0.000 Cl
ATOM     22  C   UNL     1       4.880   6.141  17.264  0.00  0.00    +0.000 A 
ENDBRANCH  14  16
ENDBRANCH   2  12
TORSDOF 4
ENDMDL
MODEL 4
REMARK VINA RESULT:      -7.5      1.022      1.413
REMARK  Name = 
REMARK  4 active torsions:
REMARK  status: ('A' for Active; 'I' for Inactive)
REMARK    1  A    between atoms: N_1  and  C_2
REMARK    2  A    between atoms: C_6  and  C_7
REMARK    3  A    between atoms: C_8  and  C_9
REMARK    4  A    between atoms: N_11  and  C_12
REMARK                            x       y       z     vdW  Elec       q    Type
REMARK                         _______ _______ _______ _____ _____    ______ ____
ROOT
ATOM      1  C   UNL     1       8.736   9.698  18.587  0.00  0.00    +0.000 C 
ATOM      2  C   UNL     1       8.267   9.009  17.532  0.00  0.00    +0.000 C 
ENDROOT
BRANCH   1   7
ATOM      3  C   UNL     1      11.161  12.597  18.993  0.00  0.00    +0.000 A 
ATOM      4  C   UNL     1      10.431  13.611  18.369  0.00  0.00    +0.000 A 
ATOM      5  C   UNL     1       9.193  13.342  17.786  0.00  0.00    +0.000 A 
ATOM      6  C   UNL     1       8.659  12.054  17.847  0.00  0.00    +0.000 A 
ATOM      7  C   UNL     1       9.354  11.029  18.498  0.00  0.00    +0.000 A 
ATOM      8  C   UNL     1      10.586  11.326  19.101  0.00  0.00    +0.000 A 
BRANCH   3   9
ATOM      9  N   UNL     1      12.333  12.901  19.696  0.00  0.00    +0.000 N 
ATOM     10  H   UNL     1      12.385  13.866  20.006  0.00  0.00    +0.000 HD
ATOM     11  H   UNL     1      13.183  12.600  19.231  0.00  0.00    +0.000 HD
ENDBRANCH   3   9
ENDBRANCH   1   7
BRANCH   2  12
ATOM     12  C   UNL     1       7.663   7.662  17.744  0.00  0.00    +0.000 C 
ATOM     13  O   UNL     1       8.044   6.940  18.656  0.00  0.00    +0.000 OA
ATOM     14  N   UNL     1       6.655   7.393  16.838  0.00  0.00    +0.000 N 
ATOM     15  H   UNL     1       6.378   8.138  16.213  0.00  0.00    +0.000 HD
BRANCH  14  16
ATOM     16  C   UNL     1       5.887   6.207  16.763  0.00  0.00    +0.000 A 
ATOM     17  C   UNL     1       6.261   5.093  16.006  0.00  0.00    +0.000 A 
ATOM     18  C   UNL     1       5.471   3.939  15.993  0.00  0.00    +0.000 A 
ATOM     19  C   UNL     1       4.300   3.886  16.742  0.00  0.00    +0.000 A 
ATOM     20  C   UNL     1       3.914   4.998  17.486  0.00  0.00    +0.000 A 
ATOM     21 CL   UNL     1       2.469   4.935  18.421  0.00  0.00    +0.000 Cl
ATOM     22  C   UNL     1       4.692   6.158  17.492  0.00  0.00    +0.000 A 
ENDBRANCH  14  16
ENDBRANCH   2  12
TORSDOF 4
ENDMDL
MODEL 5
REMARK VINA RESULT:      -7.4      1.705      1.944
REMARK  Name = 
REMARK  4 active torsions:
REMARK  status: ('A' for Active; 'I' for Inactive)
REMARK    1  A    between atoms: N_1  and  C_2
REMARK    2  A    between atoms: C_6  and  C_7
REMARK    3  A    between atoms: C_8  and  C_9
REMARK    4  A    between atoms: N_11  and  C_12
REMARK                            x       y       z     vdW  Elec       q    Type
REMARK                         _______ _______ _______ _____ _____    ______ ____
ROOT
ATOM      1  C   UNL     1       8.399   9.288  18.018  0.00  0.00    +0.000 C 
ATOM      2  C   UNL     1       8.434   7.981  18.334  0.00  0.00    +0.000 C 
ENDROOT
BRANCH   1   7
ATOM      3  C   UNL     1      11.121  11.917  18.372  0.00  0.00    +0.000 A 
ATOM      4  C   UNL     1      11.051  12.153  19.747  0.00  0.00    +0.000 A 
ATOM      5  C   UNL     1      10.102  11.502  20.534  0.00  0.00    +0.000 A 
ATOM      6  C   UNL     1       9.227  10.583  19.953  0.00  0.00    +0.000 A 
ATOM      7  C   UNL     1       9.301  10.301  18.584  0.00  0.00    +0.000 A 
ATOM      8  C   UNL     1      10.281  10.947  17.815  0.00  0.00    +0.000 A 
BRANCH   3   9
ATOM      9  N   UNL     1      12.163  12.465  17.613  0.00  0.00    +0.000 N 
ATOM     10  H   UNL     1      12.110  12.240  16.625  0.00  0.00    +0.000 HD
ATOM     11  H   UNL     1      13.087  12.295  17.998  0.00  0.00    +0.000 HD
ENDBRANCH   3   9
ENDBRANCH   1   7
BRANCH   2  12
ATOM     12  C   UNL     1       7.464   7.045  17.697  0.00  0.00    +0.000 C 
ATOM     13  O   UNL     1       7.475   6.857  16.487  0.00  0.00    +0.000 OA
ATOM     14  N   UNL     1       6.636   6.440  18.623  0.00  0.00    +0.000 N 
ATOM     15  H   UNL     1       6.825   6.613  19.601  0.00  0.00    +0.000 HD
BRANCH  14  16
ATOM     16  C   UNL     1       5.607   5.509  18.348  0.00  0.00    +0.000 A 
ATOM     17  C   UNL     1       4.731   5.625  17.265  0.00  0.00    +0.000 A 
ATOM     18  C   UNL     1       3.749   4.657  17.032  0.00  0.00    +0.000 A 
ATOM     19  C   UNL     1       3.636   3.559  17.879  0.00  0.00    +0.000 A 
ATOM     20  C   UNL     1       4.495   3.445  18.968  0.00  0.00    +0.000 A 
ATOM     21 CL   UNL     1       4.364   2.085  20.015  0.00  0.00    +0.000 Cl
ATOM     22  C   UNL     1       5.469   4.416  19.213  0.00  0.00    +0.000 A 
ENDBRANCH  14  16
ENDBRANCH   2  12
TORSDOF 4
ENDMDL
MODEL 6
REMARK VINA RESULT:      -7.4      1.581      1.762
REMARK  Name = 
REMARK  4 active torsions:
REMARK  status: ('A' for Active; 'I' for Inactive)
REMARK    1  A    between atoms: N_1  and  C_2
REMARK    2  A    between atoms: C_6  and  C_7
REMARK    3  A    between atoms: C_8  and  C_9
REMARK    4  A    between atoms: N_11  and  C_12
REMARK                            x       y       z     vdW  Elec       q    Type
REMARK                         _______ _______ _______ _____ _____    ______ ____
ROOT
ATOM      1  C   UNL     1       8.022   9.324  17.810  0.00  0.00    +0.000 C 
ATOM      2  C   UNL     1       8.262   8.044  18.144  0.00  0.00    +0.000 C 
ENDROOT
BRANCH   1   7
ATOM      3  C   UNL     1       9.476  12.805  18.281  0.00  0.00    +0.000 A 
ATOM      4  C   UNL     1      10.223  12.599  19.442  0.00  0.00    +0.000 A 
ATOM      5  C   UNL     1      10.215  11.362  20.085  0.00  0.00    +0.000 A 
ATOM      6  C   UNL     1       9.475  10.305  19.552  0.00  0.00    +0.000 A 
ATOM      7  C   UNL     1       8.747  10.475  18.370  0.00  0.00    +0.000 A 
ATOM      8  C   UNL     1       8.790  11.720  17.723  0.00  0.00    +0.000 A 
BRANCH   3   9
ATOM      9  N   UNL     1       9.598  14.002  17.564  0.00  0.00    +0.000 N 
ATOM     10  H   UNL     1       9.065  14.771  17.959  0.00  0.00    +0.000 HD
ATOM     11  H   UNL     1       9.448  13.902  16.566  0.00  0.00    +0.000 HD
ENDBRANCH   3   9
ENDBRANCH   1   7
BRANCH   2  12
ATOM     12  C   UNL     1       7.459   6.958  17.513  0.00  0.00    +0.000 C 
ATOM     13  O   UNL     1       7.645   6.638  16.345  0.00  0.00    +0.000 OA
ATOM     14  N   UNL     1       6.565   6.386  18.398  0.00  0.00    +0.000 N 
ATOM     15  H   UNL     1       6.609   6.684  19.363  0.00  0.00    +0.000 HD
BRANCH  14  16
ATOM     16  C   UNL     1       5.656   5.340  18.115  0.00  0.00    +0.000 A 
ATOM     17  C   UNL     1       5.094   5.126  16.853  0.00  0.00    +0.000 A 
ATOM     18  C   UNL     1       4.220   4.057  16.631  0.00  0.00    +0.000 A 
ATOM     19  C   UNL     1       3.901   3.188  17.670  0.00  0.00    +0.000 A 
ATOM     20  C   UNL     1       4.444   3.406  18.933  0.00  0.00    +0.000 A 
ATOM     21 CL   UNL     1       4.058   2.330  20.220  0.00  0.00    +0.000 Cl
ATOM     22  C   UNL     1       5.308   4.479  19.164  0.00  0.00    +0.000 A 
ENDBRANCH  14  16
ENDBRANCH   2  12
TORSDOF 4
ENDMDL
MODEL 7
REMARK VINA RESULT:      -7.2      1.750      2.120
REMARK  Name = 
REMARK  4 active torsions:
REMARK  status: ('A' for Active; 'I' for Inactive)
REMARK    1  A    between atoms: N_1  and  C_2
REMARK    2  A    between atoms: C_6  and  C_7
REMARK    3  A    between atoms: C_8  and  C_9
REMARK    4  A    between atoms: N_11  and  C_12
REMARK                            x       y       z     vdW  Elec       q    Type
REMARK                         _______ _______ _______ _____ _____    ______ ____
ROOT
ATOM      1  C   UNL     1       8.327   9.284  18.066  0.00  0.00    +0.000 C 
ATOM      2  C   UNL     1       8.344   7.969  18.350  0.00  0.00    +0.000 C 
ENDROOT
BRANCH   1   7
ATOM      3  C   UNL     1       9.895  11.536  20.696  0.00  0.00    +0.000 A 
ATOM      4  C   UNL     1      10.775  12.266  19.894  0.00  0.00    +0.000 A 
ATOM      5  C   UNL     1      10.888  11.995  18.531  0.00  0.00    +0.000 A 
ATOM      6  C   UNL     1      10.096  11.004  17.950  0.00  0.00    +0.000 A 
ATOM      7  C   UNL     1       9.181  10.284  18.724  0.00  0.00    +0.000 A 
ATOM      8  C   UNL     1       9.063  10.589  20.088  0.00  0.00    +0.000 A 
BRANCH   3   9
ATOM      9  N   UNL     1       9.683  11.904  22.031  0.00  0.00    +0.000 N 
ATOM     10  H   UNL     1       8.832  11.522  22.430  0.00  0.00    +0.000 HD
ATOM     11  H   UNL     1       9.777  12.900  22.204  0.00  0.00    +0.000 HD
ENDBRANCH   3   9
ENDBRANCH   1   7
BRANCH   2  12
ATOM     12  C   UNL     1       7.428   7.048  17.618  0.00  0.00    +0.000 C 
ATOM     13  O   UNL     1       7.561   6.853  16.417  0.00  0.00    +0.000 OA
ATOM     14  N   UNL     1       6.497   6.464  18.455  0.00  0.00    +0.000 N 
ATOM     15  H   UNL     1       6.586   6.639  19.447  0.00  0.00    +0.000 HD
BRANCH  14  16
ATOM     16  C   UNL     1       5.484   5.550  18.078  0.00  0.00    +0.000 A 
ATOM     17  C   UNL     1       5.625   4.631  17.035  0.00  0.00    +0.000 A 
ATOM     18  C   UNL     1       4.595   3.736  16.726  0.00  0.00    +0.000 A 
ATOM     19  C   UNL     1       3.414   3.750  17.462  0.00  0.00    +0.000 A 
ATOM     20  C   UNL     1       3.262   4.674  18.491  0.00  0.00    +0.000 A 
ATOM     21 CL   UNL     1       1.804   4.691  19.409  0.00  0.00    +0.000 Cl
ATOM     22  C   UNL     1       4.281   5.579  18.795  0.00  0.00    +0.000 A 
ENDBRANCH  14  16
ENDBRANCH   2  12
TORSDOF 4
ENDMDL
MODEL 8
REMARK VINA RESULT:      -7.1      1.134      1.311
REMARK  Name = 
REMARK  4 active torsions:
REMARK  status: ('A' for Active; 'I' for Inactive)
REMARK    1  A    between atoms: N_1  and  C_2
REMARK    2  A    between atoms: C_6  and  C_7
REMARK    3  A    between atoms: C_8  and  C_9
REMARK    4  A    between atoms: N_11  and  C_12
REMARK                            x       y       z     vdW  Elec       q    Type
REMARK                         _______ _______ _______ _____ _____    ______ ____
ROOT
ATOM      1  C   UNL     1       8.099   9.383  17.716  0.00  0.00    +0.000 C 
ATOM      2  C   UNL     1       8.141   8.116  18.164  0.00  0.00    +0.000 C 
ENDROOT
BRANCH   1   7
ATOM      3  C   UNL     1       9.547  12.836  18.378  0.00  0.00    +0.000 A 
ATOM      4  C   UNL     1      10.243  12.582  19.562  0.00  0.00    +0.000 A 
ATOM      5  C   UNL     1      10.200  11.322  20.157  0.00  0.00    +0.000 A 
ATOM      6  C   UNL     1       9.480  10.290  19.554  0.00  0.00    +0.000 A 
ATOM      7  C   UNL     1       8.804  10.508  18.349  0.00  0.00    +0.000 A 
ATOM      8  C   UNL     1       8.881  11.776  17.752  0.00  0.00    +0.000 A 
BRANCH   3   9
ATOM      9  N   UNL     1       9.706  14.058  17.712  0.00  0.00    +0.000 N 
ATOM     10  H   UNL     1      10.649  14.430  17.762  0.00  0.00    +0.000 HD
ATOM     11  H   UNL     1       9.005  14.751  17.951  0.00  0.00    +0.000 HD
ENDBRANCH   3   9
ENDBRANCH   1   7
BRANCH   2  12
ATOM     12  C   UNL     1       7.381   7.057  17.441  0.00  0.00    +0.000 C 
ATOM     13  O   UNL     1       7.712   6.703  16.316  0.00  0.00    +0.000 OA
ATOM     14  N   UNL     1       6.344   6.548  18.199  0.00  0.00    +0.000 N 
ATOM     15  H   UNL     1       6.267   6.863  19.157  0.00  0.00    +0.000 HD
BRANCH  14  16
ATOM     16  C   UNL     1       5.431   5.540  17.806  0.00  0.00    +0.000 A 
ATOM     17  C   UNL     1       5.746   4.528  16.895  0.00  0.00    +0.000 A 
ATOM     18  C   UNL     1       4.807   3.545  16.566  0.00  0.00    +0.000 A 
ATOM     19  C   UNL     1       3.543   3.563  17.148  0.00  0.00    +0.000 A 
ATOM     20  C   UNL     1       3.219   4.578  18.044  0.00  0.00    +0.000 A 
ATOM     21 CL   UNL     1       1.659   4.602  18.773  0.00  0.00    +0.000 Cl
ATOM     22  C   UNL     1       4.148   5.570  18.367  0.00  0.00    +0.000 A 
ENDBRANCH  14  16
ENDBRANCH   2  12
TORSDOF 4
ENDMDL
MODEL 9
REMARK VINA RESULT:      -7.1      1.068      1.198
REMARK  Name = 
REMARK  4 active torsions:
REMARK  status: ('A' for Active; 'I' for Inactive)
REMARK    1  A    between atoms: N_1  and  C_2
REMARK    2  A    between atoms: C_6  and  C_7
REMARK    3  A    between atoms: C_8  and  C_9
REMARK    4  A    between atoms: N_11  and  C_12
REMARK                            x       y       z     vdW  Elec       q    Type
REMARK                         _______ _______ _______ _____ _____    ______ ____
ROOT
ATOM      1  C   UNL     1       8.260   9.659  17.874  0.00  0.00    +0.000 C 
ATOM      2  C   UNL     1       8.666   8.583  18.571  0.00  0.00    +0.000 C 
ENDROOT
BRANCH   1   7
ATOM      3  C   UNL     1       8.725  13.431  17.796  0.00  0.00    +0.000 A 
ATOM      4  C   UNL     1      10.060  13.518  18.195  0.00  0.00    +0.000 A 
ATOM      5  C   UNL     1      10.780  12.371  18.529  0.00  0.00    +0.000 A 
ATOM      6  C   UNL     1      10.174  11.118  18.439  0.00  0.00    +0.000 A 
ATOM      7  C   UNL     1       8.848  11.000  18.006  0.00  0.00    +0.000 A 
ATOM      8  C   UNL     1       8.150  12.164  17.649  0.00  0.00    +0.000 A 
BRANCH   3   9
ATOM      9  N   UNL     1       8.051  14.567  17.328  0.00  0.00    +0.000 N 
ATOM     10  H   UNL     1       7.128  14.689  17.732  0.00  0.00    +0.000 HD
ATOM     11  H   UNL     1       8.044  14.656  16.318  0.00  0.00    +0.000 HD
ENDBRANCH   3   9
ENDBRANCH   1   7
BRANCH   2  12
ATOM     12  C   UNL     1       7.991   7.271  18.355  0.00  0.00    +0.000 C 
ATOM     13  O   UNL     1       8.130   6.354  19.154  0.00  0.00    +0.000 OA
ATOM     14  N   UNL     1       7.210   7.266  17.215  0.00  0.00    +0.000 N 
ATOM     15  H   UNL     1       7.106   8.140  16.716  0.00  0.00    +0.000 HD
BRANCH  14  16
ATOM     16  C   UNL     1       6.447   6.181  16.724  0.00  0.00    +0.000 A 
ATOM     17  C   UNL     1       6.881   5.333  15.701  0.00  0.00    +0.000 A 
ATOM     18  C   UNL     1       6.090   4.260  15.277  0.00  0.00    +0.000 A 
ATOM     19  C   UNL     1       4.857   4.023  15.875  0.00  0.00    +0.000 A 
ATOM     20  C   UNL     1       4.412   4.873  16.883  0.00  0.00    +0.000 A 
ATOM     21 CL   UNL     1       2.889   4.579  17.632  0.00  0.00    +0.000 Cl
ATOM     22  C   UNL     1       5.192   5.953  17.302  0.00  0.00    +0.000 A 
ENDBRANCH  14  16
ENDBRANCH   2  12
TORSDOF 4
ENDMDL
