MODEL 1
REMARK VINA RESULT:      -7.9      0.000      0.000
REMARK  Name = 
REMARK  7 active torsions:
REMARK  status: ('A' for Active; 'I' for Inactive)
REMARK    1  A    between atoms: C_1  and  O_2
REMARK    2  A    between atoms: O_2  and  C_3
REMARK    3  A    between atoms: C_5  and  C_6
REMARK    4  A    between atoms: C_13  and  S_14
REMARK    5  A    between atoms: S_14  and  C_17
REMARK    6  A    between atoms: C_20  and  C_21
REMARK    7  A    between atoms: C_21  and  N_22
REMARK                            x       y       z     vdW  Elec       q    Type
REMARK                         _______ _______ _______ _____ _____    ______ ____
ROOT
ATOM      1  C   UNL     1       3.349   7.600  17.543  0.00  0.00    +0.000 A 
ATOM      2  C   UNL     1       2.675   6.677  18.361  0.00  0.00    +0.000 A 
ATOM      3  C   UNL     1       3.184   5.384  18.584  0.00  0.00    +0.000 A 
ATOM      4  C   UNL     1       4.397   5.029  17.966  0.00  0.00    +0.000 A 
ATOM      5  C   UNL     1       5.064   5.935  17.134  0.00  0.00    +0.000 A 
ATOM      6  C   UNL     1       4.541   7.214  16.924  0.00  0.00    +0.000 A 
ENDROOT
BRANCH   3   7
ATOM      7  C   UNL     1       2.455   4.435  19.481  0.00  0.00    +0.000 A 
ATOM      8  C   UNL     1       2.734   4.397  20.867  0.00  0.00    +0.000 A 
ATOM      9  C   UNL     1       2.074   3.497  21.704  0.00  0.00    +0.000 A 
ATOM     10  C   UNL     1       1.132   2.611  21.177  0.00  0.00    +0.000 A 
ATOM     11  C   UNL     1       0.840   2.636  19.814  0.00  0.00    +0.000 A 
ATOM     12  C   UNL     1       1.487   3.543  18.970  0.00  0.00    +0.000 A 
ENDBRANCH   3   7
BRANCH   5  13
ATOM     13  S   UNL     1       6.630   5.473  16.400  0.00  0.00    +0.000 S 
ATOM     14  O   UNL     1       7.554   6.701  16.373  0.00  0.00    +0.000 OA
ATOM     15  O   UNL     1       7.412   4.576  17.372  0.00  0.00    +0.000 OA
BRANCH  13  16
ATOM     16  C   UNL     1       6.627   4.726  14.785  0.00  0.00    +0.000 A 
ATOM     17  C   UNL     1       7.481   5.051  13.743  0.00  0.00    +0.000 A 
ATOM     18  N   UNL     1       7.203   4.416  12.575  0.00  0.00    +0.000 NA
ATOM     19  C   UNL     1       6.133   3.595  12.692  0.00  0.00    +0.000 A 
ATOM     20  S   UNL     1       5.490   3.615  14.248  0.00  0.00    +0.000 S 
BRANCH  19  21
ATOM     21  C   UNL     1       5.570   2.810  11.555  0.00  0.00    +0.000 C 
BRANCH  21  22
ATOM     22  N   UNL     1       6.067   1.440  11.609  0.00  0.00    +0.000 NA
ATOM     23  H   UNL     1       5.857   0.966  10.698  0.00  0.00    +0.000 HD
ATOM     24  H   UNL     1       5.551   0.928  12.359  0.00  0.00    +0.000 HD
ENDBRANCH  21  22
ENDBRANCH  19  21
ENDBRANCH  13  16
ENDBRANCH   5  13
BRANCH   1  26
ATOM     25  C   UNL     1       1.728   9.385  17.891  0.00  0.00    +0.000 C 
ATOM     26  O   UNL     1       2.886   8.863  17.344  0.00  0.00    +0.000 OA
ENDBRANCH   1  26
TORSDOF 6
ENDMDL
MODEL 2
REMARK VINA RESULT:      -7.9      1.728      3.719
REMARK  Name = 
REMARK  7 active torsions:
REMARK  status: ('A' for Active; 'I' for Inactive)
REMARK    1  A    between atoms: C_1  and  O_2
REMARK    2  A    between atoms: O_2  and  C_3
REMARK    3  A    between atoms: C_5  and  C_6
REMARK    4  A    between atoms: C_13  and  S_14
REMARK    5  A    between atoms: S_14  and  C_17
REMARK    6  A    between atoms: C_20  and  C_21
REMARK    7  A    between atoms: C_21  and  N_22
REMARK                            x       y       z     vdW  Elec       q    Type
REMARK                         _______ _______ _______ _____ _____    ______ ____
ROOT
ATOM      1  C   UNL     1       3.603   3.893  18.859  0.00  0.00    +0.000 A 
ATOM      2  C   UNL     1       2.862   5.064  19.086  0.00  0.00    +0.000 A 
ATOM      3  C   UNL     1       3.282   6.309  18.581  0.00  0.00    +0.000 A 
ATOM      4  C   UNL     1       4.473   6.358  17.833  0.00  0.00    +0.000 A 
ATOM      5  C   UNL     1       5.227   5.199  17.619  0.00  0.00    +0.000 A 
ATOM      6  C   UNL     1       4.793   3.973  18.131  0.00  0.00    +0.000 A 
ENDROOT
BRANCH   3   7
ATOM      7  C   UNL     1       2.456   7.534  18.818  0.00  0.00    +0.000 A 
ATOM      8  C   UNL     1       1.876   7.776  20.085  0.00  0.00    +0.000 A 
ATOM      9  C   UNL     1       1.086   8.904  20.304  0.00  0.00    +0.000 A 
ATOM     10  C   UNL     1       0.848   9.806  19.266  0.00  0.00    +0.000 A 
ATOM     11  C   UNL     1       1.415   9.588  18.011  0.00  0.00    +0.000 A 
ATOM     12  C   UNL     1       2.219   8.467  17.786  0.00  0.00    +0.000 A 
ENDBRANCH   3   7
BRANCH   5  13
ATOM     13  S   UNL     1       6.713   5.282  16.624  0.00  0.00    +0.000 S 
ATOM     14  O   UNL     1       7.215   6.735  16.589  0.00  0.00    +0.000 OA
ATOM     15  O   UNL     1       7.877   4.621  17.379  0.00  0.00    +0.000 OA
BRANCH  13  16
ATOM     16  C   UNL     1       6.661   4.656  14.959  0.00  0.00    +0.000 A 
ATOM     17  C   UNL     1       7.455   5.088  13.910  0.00  0.00    +0.000 A 
ATOM     18  N   UNL     1       7.146   4.531  12.710  0.00  0.00    +0.000 NA
ATOM     19  C   UNL     1       6.110   3.666  12.811  0.00  0.00    +0.000 A 
ATOM     20  S   UNL     1       5.538   3.547  14.391  0.00  0.00    +0.000 S 
BRANCH  19  21
ATOM     21  C   UNL     1       5.522   2.947  11.644  0.00  0.00    +0.000 C 
BRANCH  21  22
ATOM     22  N   UNL     1       5.976   1.560  11.639  0.00  0.00    +0.000 NA
ATOM     23  H   UNL     1       6.796   1.473  10.993  0.00  0.00    +0.000 HD
ATOM     24  H   UNL     1       5.208   0.960  11.262  0.00  0.00    +0.000 HD
ENDBRANCH  21  22
ENDBRANCH  19  21
ENDBRANCH  13  16
ENDBRANCH   5  13
BRANCH   1  26
ATOM     25  C   UNL     1       3.442   1.467  18.692  0.00  0.00    +0.000 C 
ATOM     26  O   UNL     1       3.193   2.678  19.312  0.00  0.00    +0.000 OA
ENDBRANCH   1  26
TORSDOF 6
ENDMDL
MODEL 3
REMARK VINA RESULT:      -7.9      1.813      3.863
REMARK  Name = 
REMARK  7 active torsions:
REMARK  status: ('A' for Active; 'I' for Inactive)
REMARK    1  A    between atoms: C_1  and  O_2
REMARK    2  A    between atoms: O_2  and  C_3
REMARK    3  A    between atoms: C_5  and  C_6
REMARK    4  A    between atoms: C_13  and  S_14
REMARK    5  A    between atoms: S_14  and  C_17
REMARK    6  A    between atoms: C_20  and  C_21
REMARK    7  A    between atoms: C_21  and  N_22
REMARK                            x       y       z     vdW  Elec       q    Type
REMARK                         _______ _______ _______ _____ _____    ______ ____
ROOT
ATOM      1  C   UNL     1       3.986   4.035  19.407  0.00  0.00    +0.000 A 
ATOM      2  C   UNL     1       3.171   5.177  19.482  0.00  0.00    +0.000 A 
ATOM      3  C   UNL     1       3.473   6.344  18.756  0.00  0.00    +0.000 A 
ATOM      4  C   UNL     1       4.620   6.345  17.941  0.00  0.00    +0.000 A 
ATOM      5  C   UNL     1       5.448   5.219  17.876  0.00  0.00    +0.000 A 
ATOM      6  C   UNL     1       5.131   4.069  18.607  0.00  0.00    +0.000 A 
ENDROOT
BRANCH   3   7
ATOM      7  C   UNL     1       2.570   7.534  18.838  0.00  0.00    +0.000 A 
ATOM      8  C   UNL     1       2.417   8.399  17.730  0.00  0.00    +0.000 A 
ATOM      9  C   UNL     1       1.594   9.522  17.809  0.00  0.00    +0.000 A 
ATOM     10  C   UNL     1       0.917   9.813  18.995  0.00  0.00    +0.000 A 
ATOM     11  C   UNL     1       1.051   8.970  20.097  0.00  0.00    +0.000 A 
ATOM     12  C   UNL     1       1.863   7.835  20.022  0.00  0.00    +0.000 A 
ENDBRANCH   3   7
BRANCH   5  13
ATOM     13  S   UNL     1       6.874   5.231  16.795  0.00  0.00    +0.000 S 
ATOM     14  O   UNL     1       7.455   6.654  16.745  0.00  0.00    +0.000 OA
ATOM     15  O   UNL     1       8.041   4.495  17.472  0.00  0.00    +0.000 OA
BRANCH  13  16
ATOM     16  C   UNL     1       6.688   4.632  15.130  0.00  0.00    +0.000 A 
ATOM     17  C   UNL     1       7.462   5.010  14.044  0.00  0.00    +0.000 A 
ATOM     18  N   UNL     1       7.048   4.494  12.858  0.00  0.00    +0.000 NA
ATOM     19  C   UNL     1       5.951   3.715  13.005  0.00  0.00    +0.000 A 
ATOM     20  S   UNL     1       5.452   3.624  14.610  0.00  0.00    +0.000 S 
BRANCH  19  21
ATOM     21  C   UNL     1       5.249   3.060  11.863  0.00  0.00    +0.000 C 
BRANCH  21  22
ATOM     22  N   UNL     1       5.858   1.763  11.588  0.00  0.00    +0.000 NA
ATOM     23  H   UNL     1       5.411   1.041  12.202  0.00  0.00    +0.000 HD
ATOM     24  H   UNL     1       6.871   1.811  11.838  0.00  0.00    +0.000 HD
ENDBRANCH  21  22
ENDBRANCH  19  21
ENDBRANCH  13  16
ENDBRANCH   5  13
BRANCH   1  26
ATOM     25  C   UNL     1       4.573   1.854  20.322  0.00  0.00    +0.000 C 
ATOM     26  O   UNL     1       3.689   2.889  20.077  0.00  0.00    +0.000 OA
ENDBRANCH   1  26
TORSDOF 6
ENDMDL
MODEL 4
REMARK VINA RESULT:      -7.6      1.795      3.902
REMARK  Name = 
REMARK  7 active torsions:
REMARK  status: ('A' for Active; 'I' for Inactive)
REMARK    1  A    between atoms: C_1  and  O_2
REMARK    2  A    between atoms: O_2  and  C_3
REMARK    3  A    between atoms: C_5  and  C_6
REMARK    4  A    between atoms: C_13  and  S_14
REMARK    5  A    between atoms: S_14  and  C_17
REMARK    6  A    between atoms: C_20  and  C_21
REMARK    7  A    between atoms: C_21  and  N_22
REMARK                            x       y       z     vdW  Elec       q    Type
REMARK                         _______ _______ _______ _____ _____    ______ ____
ROOT
ATOM      1  C   UNL     1       3.069   4.171  19.705  0.00  0.00    +0.000 A 
ATOM      2  C   UNL     1       2.347   5.376  19.725  0.00  0.00    +0.000 A 
ATOM      3  C   UNL     1       2.862   6.551  19.146  0.00  0.00    +0.000 A 
ATOM      4  C   UNL     1       4.128   6.495  18.536  0.00  0.00    +0.000 A 
ATOM      5  C   UNL     1       4.862   5.304  18.529  0.00  0.00    +0.000 A 
ATOM      6  C   UNL     1       4.334   4.148  19.111  0.00  0.00    +0.000 A 
ENDROOT
BRANCH   3   7
ATOM      7  C   UNL     1       2.056   7.812  19.162  0.00  0.00    +0.000 A 
ATOM      8  C   UNL     1       1.462   8.271  20.361  0.00  0.00    +0.000 A 
ATOM      9  C   UNL     1       0.691   9.433  20.376  0.00  0.00    +0.000 A 
ATOM     10  C   UNL     1       0.486  10.154  19.198  0.00  0.00    +0.000 A 
ATOM     11  C   UNL     1       1.067   9.720  18.007  0.00  0.00    +0.000 A 
ATOM     12  C   UNL     1       1.852   8.564  17.985  0.00  0.00    +0.000 A 
ENDBRANCH   3   7
BRANCH   5  13
ATOM     13  S   UNL     1       6.450   5.248  17.705  0.00  0.00    +0.000 S 
ATOM     14  O   UNL     1       7.132   6.620  17.833  0.00  0.00    +0.000 OA
ATOM     15  O   UNL     1       7.428   4.392  18.525  0.00  0.00    +0.000 OA
BRANCH  13  16
ATOM     16  C   UNL     1       6.510   4.740  16.000  0.00  0.00    +0.000 A 
ATOM     17  C   UNL     1       7.431   5.172  15.061  0.00  0.00    +0.000 A 
ATOM     18  N   UNL     1       7.196   4.722  13.800  0.00  0.00    +0.000 NA
ATOM     19  C   UNL     1       6.092   3.941  13.745  0.00  0.00    +0.000 A 
ATOM     20  S   UNL     1       5.365   3.767  15.254  0.00  0.00    +0.000 S 
BRANCH  19  21
ATOM     21  C   UNL     1       5.565   3.352  12.480  0.00  0.00    +0.000 C 
BRANCH  21  22
ATOM     22  N   UNL     1       6.560   2.456  11.901  0.00  0.00    +0.000 NA
ATOM     23  H   UNL     1       6.851   1.757  12.625  0.00  0.00    +0.000 HD
ATOM     24  H   UNL     1       7.403   3.016  11.643  0.00  0.00    +0.000 HD
ENDBRANCH  21  22
ENDBRANCH  19  21
ENDBRANCH  13  16
ENDBRANCH   5  13
BRANCH   1  26
ATOM     25  C   UNL     1       2.445   2.748  21.581  0.00  0.00    +0.000 C 
ATOM     26  O   UNL     1       2.570   3.021  20.231  0.00  0.00    +0.000 OA
ENDBRANCH   1  26
TORSDOF 6
ENDMDL
MODEL 5
REMARK VINA RESULT:      -7.3      1.783      3.935
REMARK  Name = 
REMARK  7 active torsions:
REMARK  status: ('A' for Active; 'I' for Inactive)
REMARK    1  A    between atoms: C_1  and  O_2
REMARK    2  A    between atoms: O_2  and  C_3
REMARK    3  A    between atoms: C_5  and  C_6
REMARK    4  A    between atoms: C_13  and  S_14
REMARK    5  A    between atoms: S_14  and  C_17
REMARK    6  A    between atoms: C_20  and  C_21
REMARK    7  A    between atoms: C_21  and  N_22
REMARK                            x       y       z     vdW  Elec       q    Type
REMARK                         _______ _______ _______ _____ _____    ______ ____
ROOT
ATOM      1  C   UNL     1       2.960   4.012  19.132  0.00  0.00    +0.000 A 
ATOM      2  C   UNL     1       2.274   5.230  19.270  0.00  0.00    +0.000 A 
ATOM      3  C   UNL     1       2.864   6.453  18.900  0.00  0.00    +0.000 A 
ATOM      4  C   UNL     1       4.171   6.431  18.379  0.00  0.00    +0.000 A 
ATOM      5  C   UNL     1       4.869   5.225  18.256  0.00  0.00    +0.000 A 
ATOM      6  C   UNL     1       4.265   4.021  18.632  0.00  0.00    +0.000 A 
ENDROOT
BRANCH   3   7
ATOM      7  C   UNL     1       2.096   7.729  19.035  0.00  0.00    +0.000 A 
ATOM      8  C   UNL     1       1.903   8.575  17.919  0.00  0.00    +0.000 A 
ATOM      9  C   UNL     1       1.208   9.777  18.046  0.00  0.00    +0.000 A 
ATOM     10  C   UNL     1       0.701  10.166  19.287  0.00  0.00    +0.000 A 
ATOM     11  C   UNL     1       0.877   9.344  20.399  0.00  0.00    +0.000 A 
ATOM     12  C   UNL     1       1.561   8.131  20.278  0.00  0.00    +0.000 A 
ENDBRANCH   3   7
BRANCH   5  13
ATOM     13  S   UNL     1       6.512   5.223  17.546  0.00  0.00    +0.000 S 
ATOM     14  O   UNL     1       7.173   6.587  17.802  0.00  0.00    +0.000 OA
ATOM     15  O   UNL     1       7.435   4.323  18.384  0.00  0.00    +0.000 OA
BRANCH  13  16
ATOM     16  C   UNL     1       6.698   4.813  15.825  0.00  0.00    +0.000 A 
ATOM     17  C   UNL     1       7.516   5.471  14.922  0.00  0.00    +0.000 A 
ATOM     18  N   UNL     1       7.396   5.037  13.640  0.00  0.00    +0.000 NA
ATOM     19  C   UNL     1       6.484   4.042  13.531  0.00  0.00    +0.000 A 
ATOM     20  S   UNL     1       5.794   3.653  15.017  0.00  0.00    +0.000 S 
BRANCH  19  21
ATOM     21  C   UNL     1       6.108   3.410  12.233  0.00  0.00    +0.000 C 
BRANCH  21  22
ATOM     22  N   UNL     1       4.656   3.385  12.099  0.00  0.00    +0.000 NA
ATOM     23  H   UNL     1       4.282   4.349  12.267  0.00  0.00    +0.000 HD
ATOM     24  H   UNL     1       4.264   2.759  12.838  0.00  0.00    +0.000 HD
ENDBRANCH  21  22
ENDBRANCH  19  21
ENDBRANCH  13  16
ENDBRANCH   5  13
BRANCH   1  26
ATOM     25  C   UNL     1       1.817   2.514  20.675  0.00  0.00    +0.000 C 
ATOM     26  O   UNL     1       2.391   2.820  19.455  0.00  0.00    +0.000 OA
ENDBRANCH   1  26
TORSDOF 6
ENDMDL
MODEL 6
REMARK VINA RESULT:      -7.3      2.305      4.699
REMARK  Name = 
REMARK  7 active torsions:
REMARK  status: ('A' for Active; 'I' for Inactive)
REMARK    1  A    between atoms: C_1  and  O_2
REMARK    2  A    between atoms: O_2  and  C_3
REMARK    3  A    between atoms: C_5  and  C_6
REMARK    4  A    between atoms: C_13  and  S_14
REMARK    5  A    between atoms: S_14  and  C_17
REMARK    6  A    between atoms: C_20  and  C_21
REMARK    7  A    between atoms: C_21  and  N_22
REMARK                            x       y       z     vdW  Elec       q    Type
REMARK                         _______ _______ _______ _____ _____    ______ ____
ROOT
ATOM      1  C   UNL     1       1.795   4.627  20.620  0.00  0.00    +0.000 A 
ATOM      2  C   UNL     1       1.343   5.948  20.465  0.00  0.00    +0.000 A 
ATOM      3  C   UNL     1       2.135   6.927  19.836  0.00  0.00    +0.000 A 
ATOM      4  C   UNL     1       3.404   6.551  19.356  0.00  0.00    +0.000 A 
ATOM      5  C   UNL     1       3.869   5.242  19.523  0.00  0.00    +0.000 A 
ATOM      6  C   UNL     1       3.067   4.285  20.153  0.00  0.00    +0.000 A 
ENDROOT
BRANCH   3   7
ATOM      7  C   UNL     1       1.614   8.319  19.664  0.00  0.00    +0.000 A 
ATOM      8  C   UNL     1       1.789   9.007  18.441  0.00  0.00    +0.000 A 
ATOM      9  C   UNL     1       1.326  10.313  18.284  0.00  0.00    +0.000 A 
ATOM     10  C   UNL     1       0.689  10.963  19.343  0.00  0.00    +0.000 A 
ATOM     11  C   UNL     1       0.502  10.299  20.555  0.00  0.00    +0.000 A 
ATOM     12  C   UNL     1       0.952   8.986  20.717  0.00  0.00    +0.000 A 
ENDBRANCH   3   7
BRANCH   5  13
ATOM     13  S   UNL     1       5.466   4.780  18.861  0.00  0.00    +0.000 S 
ATOM     14  O   UNL     1       6.570   5.431  19.711  0.00  0.00    +0.000 OA
ATOM     15  O   UNL     1       5.741   3.298  19.164  0.00  0.00    +0.000 OA
BRANCH  13  16
ATOM     16  C   UNL     1       5.804   5.101  17.144  0.00  0.00    +0.000 A 
ATOM     17  C   UNL     1       5.243   6.117  16.387  0.00  0.00    +0.000 A 
ATOM     18  N   UNL     1       5.578   6.082  15.071  0.00  0.00    +0.000 NA
ATOM     19  C   UNL     1       6.397   5.042  14.789  0.00  0.00    +0.000 A 
ATOM     20  S   UNL     1       6.748   4.126  16.158  0.00  0.00    +0.000 S 
BRANCH  19  21
ATOM     21  C   UNL     1       6.883   4.726  13.415  0.00  0.00    +0.000 C 
BRANCH  21  22
ATOM     22  N   UNL     1       6.366   3.428  12.994  0.00  0.00    +0.000 NA
ATOM     23  H   UNL     1       5.321   3.477  12.949  0.00  0.00    +0.000 HD
ATOM     24  H   UNL     1       6.620   2.719  13.717  0.00  0.00    +0.000 HD
ENDBRANCH  21  22
ENDBRANCH  19  21
ENDBRANCH  13  16
ENDBRANCH   5  13
BRANCH   1  26
ATOM     25  C   UNL     1       1.500   2.478  21.730  0.00  0.00    +0.000 C 
ATOM     26  O   UNL     1       1.028   3.663  21.196  0.00  0.00    +0.000 OA
ENDBRANCH   1  26
TORSDOF 6
ENDMDL
MODEL 7
REMARK VINA RESULT:      -7.2      4.202      7.846
REMARK  Name = 
REMARK  7 active torsions:
REMARK  status: ('A' for Active; 'I' for Inactive)
REMARK    1  A    between atoms: C_1  and  O_2
REMARK    2  A    between atoms: O_2  and  C_3
REMARK    3  A    between atoms: C_5  and  C_6
REMARK    4  A    between atoms: C_13  and  S_14
REMARK    5  A    between atoms: S_14  and  C_17
REMARK    6  A    between atoms: C_20  and  C_21
REMARK    7  A    between atoms: C_21  and  N_22
REMARK                            x       y       z     vdW  Elec       q    Type
REMARK                         _______ _______ _______ _____ _____    ______ ____
ROOT
ATOM      1  C   UNL     1       7.052   4.608  18.044  0.00  0.00    +0.000 A 
ATOM      2  C   UNL     1       7.262   4.514  16.658  0.00  0.00    +0.000 A 
ATOM      3  C   UNL     1       6.195   4.297  15.766  0.00  0.00    +0.000 A 
ATOM      4  C   UNL     1       4.897   4.176  16.295  0.00  0.00    +0.000 A 
ATOM      5  C   UNL     1       4.682   4.249  17.675  0.00  0.00    +0.000 A 
ATOM      6  C   UNL     1       5.756   4.464  18.545  0.00  0.00    +0.000 A 
ENDROOT
BRANCH   3   7
ATOM      7  C   UNL     1       6.450   4.227  14.293  0.00  0.00    +0.000 A 
ATOM      8  C   UNL     1       7.440   5.041  13.695  0.00  0.00    +0.000 A 
ATOM      9  C   UNL     1       7.665   4.997  12.319  0.00  0.00    +0.000 A 
ATOM     10  C   UNL     1       6.903   4.152  11.511  0.00  0.00    +0.000 A 
ATOM     11  C   UNL     1       5.925   3.338  12.082  0.00  0.00    +0.000 A 
ATOM     12  C   UNL     1       5.702   3.366  13.462  0.00  0.00    +0.000 A 
ENDBRANCH   3   7
BRANCH   5  13
ATOM     13  S   UNL     1       3.015   4.140  18.317  0.00  0.00    +0.000 S 
ATOM     14  O   UNL     1       2.036   3.951  17.146  0.00  0.00    +0.000 OA
ATOM     15  O   UNL     1       2.826   2.795  19.037  0.00  0.00    +0.000 OA
BRANCH  13  16
ATOM     16  C   UNL     1       2.413   5.453  19.357  0.00  0.00    +0.000 A 
ATOM     17  C   UNL     1       1.752   5.289  20.563  0.00  0.00    +0.000 A 
ATOM     18  N   UNL     1       1.295   6.445  21.111  0.00  0.00    +0.000 NA
ATOM     19  C   UNL     1       1.590   7.516  20.339  0.00  0.00    +0.000 A 
ATOM     20  S   UNL     1       2.436   7.080  18.950  0.00  0.00    +0.000 S 
BRANCH  19  21
ATOM     21  C   UNL     1       1.165   8.908  20.666  0.00  0.00    +0.000 C 
BRANCH  21  22
ATOM     22  N   UNL     1       0.173   8.882  21.737  0.00  0.00    +0.000 NA
ATOM     23  H   UNL     1      -0.391   9.764  21.699  0.00  0.00    +0.000 HD
ATOM     24  H   UNL     1       0.674   8.864  22.654  0.00  0.00    +0.000 HD
ENDBRANCH  21  22
ENDBRANCH  19  21
ENDBRANCH  13  16
ENDBRANCH   5  13
BRANCH   1  26
ATOM     25  C   UNL     1       8.069   5.831  19.890  0.00  0.00    +0.000 C 
ATOM     26  O   UNL     1       8.068   4.850  18.914  0.00  0.00    +0.000 OA
ENDBRANCH   1  26
TORSDOF 6
ENDMDL
MODEL 8
REMARK VINA RESULT:      -7.2      1.740      3.916
REMARK  Name = 
REMARK  7 active torsions:
REMARK  status: ('A' for Active; 'I' for Inactive)
REMARK    1  A    between atoms: C_1  and  O_2
REMARK    2  A    between atoms: O_2  and  C_3
REMARK    3  A    between atoms: C_5  and  C_6
REMARK    4  A    between atoms: C_13  and  S_14
REMARK    5  A    between atoms: S_14  and  C_17
REMARK    6  A    between atoms: C_20  and  C_21
REMARK    7  A    between atoms: C_21  and  N_22
REMARK                            x       y       z     vdW  Elec       q    Type
REMARK                         _______ _______ _______ _____ _____    ______ ____
ROOT
ATOM      1  C   UNL     1       3.689   4.337  19.547  0.00  0.00    +0.000 A 
ATOM      2  C   UNL     1       2.849   5.456  19.676  0.00  0.00    +0.000 A 
ATOM      3  C   UNL     1       3.086   6.641  18.953  0.00  0.00    +0.000 A 
ATOM      4  C   UNL     1       4.194   6.682  18.086  0.00  0.00    +0.000 A 
ATOM      5  C   UNL     1       5.047   5.579  17.967  0.00  0.00    +0.000 A 
ATOM      6  C   UNL     1       4.794   4.413  18.696  0.00  0.00    +0.000 A 
ENDROOT
BRANCH   3   7
ATOM      7  C   UNL     1       2.157   7.805  19.093  0.00  0.00    +0.000 A 
ATOM      8  C   UNL     1       1.808   8.585  17.967  0.00  0.00    +0.000 A 
ATOM      9  C   UNL     1       0.961   9.686  18.096  0.00  0.00    +0.000 A 
ATOM     10  C   UNL     1       0.454  10.037  19.349  0.00  0.00    +0.000 A 
ATOM     11  C   UNL     1       0.784   9.278  20.470  0.00  0.00    +0.000 A 
ATOM     12  C   UNL     1       1.622   8.165  20.348  0.00  0.00    +0.000 A 
ENDBRANCH   3   7
BRANCH   5  13
ATOM     13  S   UNL     1       6.420   5.643  16.822  0.00  0.00    +0.000 S 
ATOM     14  O   UNL     1       6.868   7.104  16.654  0.00  0.00    +0.000 OA
ATOM     15  O   UNL     1       7.676   5.058  17.488  0.00  0.00    +0.000 OA
BRANCH  13  16
ATOM     16  C   UNL     1       6.221   4.919  15.208  0.00  0.00    +0.000 A 
ATOM     17  C   UNL     1       5.063   4.332  14.724  0.00  0.00    +0.000 A 
ATOM     18  N   UNL     1       5.200   3.753  13.503  0.00  0.00    +0.000 NA
ATOM     19  C   UNL     1       6.461   3.879  13.027  0.00  0.00    +0.000 A 
ATOM     20  S   UNL     1       7.457   4.719  14.092  0.00  0.00    +0.000 S 
BRANCH  19  21
ATOM     21  C   UNL     1       6.913   3.293  11.731  0.00  0.00    +0.000 C 
BRANCH  21  22
ATOM     22  N   UNL     1       6.363   1.950  11.579  0.00  0.00    +0.000 NA
ATOM     23  H   UNL     1       6.360   1.697  10.562  0.00  0.00    +0.000 HD
ATOM     24  H   UNL     1       5.371   1.957  11.907  0.00  0.00    +0.000 HD
ENDBRANCH  21  22
ENDBRANCH  19  21
ENDBRANCH  13  16
ENDBRANCH   5  13
BRANCH   1  26
ATOM     25  C   UNL     1       2.633   3.041  21.319  0.00  0.00    +0.000 C 
ATOM     26  O   UNL     1       3.453   3.176  20.214  0.00  0.00    +0.000 OA
ENDBRANCH   1  26
TORSDOF 6
ENDMDL
MODEL 9
REMARK VINA RESULT:      -7.2      1.898      3.886
REMARK  Name = 
REMARK  7 active torsions:
REMARK  status: ('A' for Active; 'I' for Inactive)
REMARK    1  A    between atoms: C_1  and  O_2
REMARK    2  A    between atoms: O_2  and  C_3
REMARK    3  A    between atoms: C_5  and  C_6
REMARK    4  A    between atoms: C_13  and  S_14
REMARK    5  A    between atoms: S_14  and  C_17
REMARK    6  A    between atoms: C_20  and  C_21
REMARK    7  A    between atoms: C_21  and  N_22
REMARK                            x       y       z     vdW  Elec       q    Type
REMARK                         _______ _______ _______ _____ _____    ______ ____
ROOT
ATOM      1  C   UNL     1       3.726   4.370  19.493  0.00  0.00    +0.000 A 
ATOM      2  C   UNL     1       2.874   5.479  19.629  0.00  0.00    +0.000 A 
ATOM      3  C   UNL     1       3.101   6.671  18.916  0.00  0.00    +0.000 A 
ATOM      4  C   UNL     1       4.209   6.731  18.051  0.00  0.00    +0.000 A 
ATOM      5  C   UNL     1       5.073   5.638  17.925  0.00  0.00    +0.000 A 
ATOM      6  C   UNL     1       4.832   4.463  18.644  0.00  0.00    +0.000 A 
ENDROOT
BRANCH   3   7
ATOM      7  C   UNL     1       2.160   7.825  19.063  0.00  0.00    +0.000 A 
ATOM      8  C   UNL     1       1.595   8.137  20.322  0.00  0.00    +0.000 A 
ATOM      9  C   UNL     1       0.699   9.197  20.459  0.00  0.00    +0.000 A 
ATOM     10  C   UNL     1       0.340   9.960  19.347  0.00  0.00    +0.000 A 
ATOM     11  C   UNL     1       0.889   9.671  18.098  0.00  0.00    +0.000 A 
ATOM     12  C   UNL     1       1.798   8.619  17.953  0.00  0.00    +0.000 A 
ENDBRANCH   3   7
BRANCH   5  13
ATOM     13  S   UNL     1       6.448   5.724  16.782  0.00  0.00    +0.000 S 
ATOM     14  O   UNL     1       6.849   7.196  16.589  0.00  0.00    +0.000 OA
ATOM     15  O   UNL     1       7.719   5.193  17.463  0.00  0.00    +0.000 OA
BRANCH  13  16
ATOM     16  C   UNL     1       6.277   4.965  15.182  0.00  0.00    +0.000 A 
ATOM     17  C   UNL     1       5.187   4.225  14.751  0.00  0.00    +0.000 A 
ATOM     18  N   UNL     1       5.348   3.656  13.528  0.00  0.00    +0.000 NA
ATOM     19  C   UNL     1       6.559   3.943  12.997  0.00  0.00    +0.000 A 
ATOM     20  S   UNL     1       7.480   4.918  14.014  0.00  0.00    +0.000 S 
BRANCH  19  21
ATOM     21  C   UNL     1       7.028   3.409  11.685  0.00  0.00    +0.000 C 
BRANCH  21  22
ATOM     22  N   UNL     1       6.651   2.005  11.560  0.00  0.00    +0.000 NA
ATOM     23  H   UNL     1       7.028   1.631  10.658  0.00  0.00    +0.000 HD
ATOM     24  H   UNL     1       5.609   1.943  11.519  0.00  0.00    +0.000 HD
ENDBRANCH  21  22
ENDBRANCH  19  21
ENDBRANCH  13  16
ENDBRANCH   5  13
BRANCH   1  26
ATOM     25  C   UNL     1       4.419   2.178  20.299  0.00  0.00    +0.000 C 
ATOM     26  O   UNL     1       3.501   3.201  20.151  0.00  0.00    +0.000 OA
ENDBRANCH   1  26
TORSDOF 6
ENDMDL
