MODEL 1
REMARK VINA RESULT:      -6.5      0.000      0.000
REMARK  Name = 
REMARK  12 active torsions:
REMARK  status: ('A' for Active; 'I' for Inactive)
REMARK    1  A    between atoms: C_1  and  C_2
REMARK    2  A    between atoms: C_2  and  C_3
REMARK    3  A    between atoms: C_2  and  C_4
REMARK    4  A    between atoms: C_4  and  N_5
REMARK    5  A    between atoms: C_4  and  C_17
REMARK    6  A    between atoms: C_6  and  O_8
REMARK    7  A    between atoms: O_8  and  C_9
REMARK    8  A    between atoms: C_9  and  C_10
REMARK    9  A    between atoms: C_10  and  C_11
REMARK   10  A    between atoms: C_11  and  C_12
REMARK   11  A    between atoms: C_17  and  C_18
REMARK   12  A    between atoms: C_17  and  C_19
REMARK                            x       y       z     vdW  Elec       q    Type
REMARK                         _______ _______ _______ _____ _____    ______ ____
ROOT
ATOM      1  N   UNL     1       5.070   5.936  18.076  0.00  0.00    +0.000 N 
ATOM      2  C   UNL     1       3.872   6.486  18.421  0.00  0.00    +0.000 C 
ATOM      3  O   UNL     1       3.231   7.270  17.744  0.00  0.00    +0.000 OA
ATOM      4  H   UNL     1       5.477   5.318  18.767  0.00  0.00    +0.000 HD
ENDROOT
BRANCH   1   5
ATOM      5  C   UNL     1       5.850   6.360  16.918  0.00  0.00    +0.000 C 
BRANCH   5   7
ATOM      6  C   UNL     1       6.985   4.940  15.083  0.00  0.00    +0.000 C 
ATOM      7  C   UNL     1       5.665   5.356  15.741  0.00  0.00    +0.000 C 
ATOM      8  C   UNL     1       4.890   4.101  16.177  0.00  0.00    +0.000 C 
ENDBRANCH   5   7
BRANCH   5   9
ATOM      9  C   UNL     1       7.331   6.595  17.351  0.00  0.00    +0.000 C 
ATOM     10  C   UNL     1       7.667   8.080  17.520  0.00  0.00    +0.000 C 
ATOM     11  C   UNL     1       7.666   5.870  18.665  0.00  0.00    +0.000 C 
ENDBRANCH   5   9
ENDBRANCH   1   5
BRANCH   2  12
ATOM     12  O   UNL     1       3.518   6.030  19.645  0.00  0.00    +0.000 OA
BRANCH  12  13
ATOM     13  C   UNL     1       2.107   6.059  19.933  0.00  0.00    +0.000 C 
BRANCH  13  14
ATOM     14  C   UNL     1       1.742   4.816  20.728  0.00  0.00    +0.000 C 
BRANCH  14  15
ATOM     15  C   UNL     1       1.322   3.663  19.823  0.00  0.00    +0.000 C 
BRANCH  15  16
ATOM     16  C   UNL     1       2.485   2.812  19.450  0.00  0.00    +0.000 A 
ATOM     17  C   UNL     1       3.675   2.629  20.119  0.00  0.00    +0.000 A 
ATOM     18  N   UNL     1       4.382   1.739  19.358  0.00  0.00    +0.000 N 
ATOM     19  C   UNL     1       3.610   1.418  18.280  0.00  0.00    +0.000 A 
ATOM     20  N   UNL     1       2.458   2.048  18.306  0.00  0.00    +0.000 NA
ATOM     21  H   UNL     1       5.305   1.381  19.555  0.00  0.00    +0.000 HD
ENDBRANCH  15  16
ENDBRANCH  14  15
ENDBRANCH  13  14
ENDBRANCH  12  13
ENDBRANCH   2  12
TORSDOF 8
ENDMDL
MODEL 2
REMARK VINA RESULT:      -6.4      2.186      5.331
REMARK  Name = 
REMARK  12 active torsions:
REMARK  status: ('A' for Active; 'I' for Inactive)
REMARK    1  A    between atoms: C_1  and  C_2
REMARK    2  A    between atoms: C_2  and  C_3
REMARK    3  A    between atoms: C_2  and  C_4
REMARK    4  A    between atoms: C_4  and  N_5
REMARK    5  A    between atoms: C_4  and  C_17
REMARK    6  A    between atoms: C_6  and  O_8
REMARK    7  A    between atoms: O_8  and  C_9
REMARK    8  A    between atoms: C_9  and  C_10
REMARK    9  A    between atoms: C_10  and  C_11
REMARK   10  A    between atoms: C_11  and  C_12
REMARK   11  A    between atoms: C_17  and  C_18
REMARK   12  A    between atoms: C_17  and  C_19
REMARK                            x       y       z     vdW  Elec       q    Type
REMARK                         _______ _______ _______ _____ _____    ______ ____
ROOT
ATOM      1  N   UNL     1       3.809   4.464  18.906  0.00  0.00    +0.000 N 
ATOM      2  C   UNL     1       4.659   3.588  19.512  0.00  0.00    +0.000 C 
ATOM      3  O   UNL     1       4.326   2.636  20.197  0.00  0.00    +0.000 OA
ATOM      4  H   UNL     1       4.256   5.212  18.391  0.00  0.00    +0.000 HD
ENDROOT
BRANCH   1   5
ATOM      5  C   UNL     1       2.371   4.495  19.150  0.00  0.00    +0.000 C 
BRANCH   5   7
ATOM      6  C   UNL     1       2.537   3.060  17.009  0.00  0.00    +0.000 C 
ATOM      7  C   UNL     1       1.624   3.607  18.111  0.00  0.00    +0.000 C 
ATOM      8  C   UNL     1       0.878   2.443  18.786  0.00  0.00    +0.000 C 
ENDBRANCH   5   7
BRANCH   5   9
ATOM      9  C   UNL     1       1.889   5.978  19.210  0.00  0.00    +0.000 C 
ATOM     10  C   UNL     1       1.862   6.532  20.638  0.00  0.00    +0.000 C 
ATOM     11  C   UNL     1       2.767   6.901  18.348  0.00  0.00    +0.000 C 
ENDBRANCH   5   9
ENDBRANCH   1   5
BRANCH   2  12
ATOM     12  O   UNL     1       5.932   3.956  19.242  0.00  0.00    +0.000 OA
BRANCH  12  13
ATOM     13  C   UNL     1       6.201   5.369  19.330  0.00  0.00    +0.000 C 
BRANCH  13  14
ATOM     14  C   UNL     1       7.136   5.762  18.197  0.00  0.00    +0.000 C 
BRANCH  14  15
ATOM     15  C   UNL     1       7.642   4.548  17.428  0.00  0.00    +0.000 C 
BRANCH  15  16
ATOM     16  C   UNL     1       7.052   4.481  16.063  0.00  0.00    +0.000 A 
ATOM     17  C   UNL     1       5.941   3.789  15.634  0.00  0.00    +0.000 A 
ATOM     18  N   UNL     1       5.828   4.081  14.303  0.00  0.00    +0.000 N 
ATOM     19  C   UNL     1       6.851   4.925  13.981  0.00  0.00    +0.000 A 
ATOM     20  N   UNL     1       7.607   5.186  15.022  0.00  0.00    +0.000 NA
ATOM     21  H   UNL     1       5.119   3.740  13.670  0.00  0.00    +0.000 HD
ENDBRANCH  15  16
ENDBRANCH  14  15
ENDBRANCH  13  14
ENDBRANCH  12  13
ENDBRANCH   2  12
TORSDOF 8
ENDMDL
MODEL 3
REMARK VINA RESULT:      -6.2      1.957      5.940
REMARK  Name = 
REMARK  12 active torsions:
REMARK  status: ('A' for Active; 'I' for Inactive)
REMARK    1  A    between atoms: C_1  and  C_2
REMARK    2  A    between atoms: C_2  and  C_3
REMARK    3  A    between atoms: C_2  and  C_4
REMARK    4  A    between atoms: C_4  and  N_5
REMARK    5  A    between atoms: C_4  and  C_17
REMARK    6  A    between atoms: C_6  and  O_8
REMARK    7  A    between atoms: O_8  and  C_9
REMARK    8  A    between atoms: C_9  and  C_10
REMARK    9  A    between atoms: C_10  and  C_11
REMARK   10  A    between atoms: C_11  and  C_12
REMARK   11  A    between atoms: C_17  and  C_18
REMARK   12  A    between atoms: C_17  and  C_19
REMARK                            x       y       z     vdW  Elec       q    Type
REMARK                         _______ _______ _______ _____ _____    ______ ____
ROOT
ATOM      1  N   UNL     1       3.310   3.815  18.631  0.00  0.00    +0.000 N 
ATOM      2  C   UNL     1       4.654   3.643  18.492  0.00  0.00    +0.000 C 
ATOM      3  O   UNL     1       5.481   3.777  19.377  0.00  0.00    +0.000 OA
ATOM      4  H   UNL     1       2.769   3.684  17.786  0.00  0.00    +0.000 HD
ENDROOT
BRANCH   1   5
ATOM      5  C   UNL     1       2.686   4.373  19.826  0.00  0.00    +0.000 C 
BRANCH   5   7
ATOM      6  C   UNL     1       0.868   2.751  18.970  0.00  0.00    +0.000 C 
ATOM      7  C   UNL     1       1.322   3.674  20.104  0.00  0.00    +0.000 C 
ATOM      8  C   UNL     1       1.342   2.891  21.428  0.00  0.00    +0.000 C 
ENDBRANCH   5   7
BRANCH   5   9
ATOM      9  C   UNL     1       2.610   5.926  19.691  0.00  0.00    +0.000 C 
ATOM     10  C   UNL     1       2.222   6.377  18.279  0.00  0.00    +0.000 C 
ATOM     11  C   UNL     1       1.612   6.540  20.688  0.00  0.00    +0.000 C 
ENDBRANCH   5   9
ENDBRANCH   1   5
BRANCH   2  12
ATOM     12  O   UNL     1       4.923   3.313  17.207  0.00  0.00    +0.000 OA
BRANCH  12  13
ATOM     13  C   UNL     1       4.509   4.278  16.221  0.00  0.00    +0.000 C 
BRANCH  13  14
ATOM     14  C   UNL     1       5.260   5.578  16.461  0.00  0.00    +0.000 C 
BRANCH  14  15
ATOM     15  C   UNL     1       6.758   5.349  16.626  0.00  0.00    +0.000 C 
BRANCH  15  16
ATOM     16  C   UNL     1       7.396   6.452  17.396  0.00  0.00    +0.000 A 
ATOM     17  C   UNL     1       8.039   6.398  18.614  0.00  0.00    +0.000 A 
ATOM     18  N   UNL     1       8.451   7.679  18.859  0.00  0.00    +0.000 N 
ATOM     19  C   UNL     1       8.056   8.446  17.801  0.00  0.00    +0.000 A 
ATOM     20  N   UNL     1       7.417   7.735  16.901  0.00  0.00    +0.000 NA
ATOM     21  H   UNL     1       8.958   8.003  19.670  0.00  0.00    +0.000 HD
ENDBRANCH  15  16
ENDBRANCH  14  15
ENDBRANCH  13  14
ENDBRANCH  12  13
ENDBRANCH   2  12
TORSDOF 8
ENDMDL
MODEL 4
REMARK VINA RESULT:      -6.2      0.740      1.236
REMARK  Name = 
REMARK  12 active torsions:
REMARK  status: ('A' for Active; 'I' for Inactive)
REMARK    1  A    between atoms: C_1  and  C_2
REMARK    2  A    between atoms: C_2  and  C_3
REMARK    3  A    between atoms: C_2  and  C_4
REMARK    4  A    between atoms: C_4  and  N_5
REMARK    5  A    between atoms: C_4  and  C_17
REMARK    6  A    between atoms: C_6  and  O_8
REMARK    7  A    between atoms: O_8  and  C_9
REMARK    8  A    between atoms: C_9  and  C_10
REMARK    9  A    between atoms: C_10  and  C_11
REMARK   10  A    between atoms: C_11  and  C_12
REMARK   11  A    between atoms: C_17  and  C_18
REMARK   12  A    between atoms: C_17  and  C_19
REMARK                            x       y       z     vdW  Elec       q    Type
REMARK                         _______ _______ _______ _____ _____    ______ ____
ROOT
ATOM      1  N   UNL     1       5.139   5.687  18.503  0.00  0.00    +0.000 N 
ATOM      2  C   UNL     1       3.834   6.043  18.666  0.00  0.00    +0.000 C 
ATOM      3  O   UNL     1       3.136   6.581  17.825  0.00  0.00    +0.000 OA
ATOM      4  H   UNL     1       5.577   5.269  19.315  0.00  0.00    +0.000 HD
ENDROOT
BRANCH   1   5
ATOM      5  C   UNL     1       5.944   6.074  17.350  0.00  0.00    +0.000 C 
BRANCH   5   7
ATOM      6  C   UNL     1       5.339   5.602  14.884  0.00  0.00    +0.000 C 
ATOM      7  C   UNL     1       5.815   5.014  16.216  0.00  0.00    +0.000 C 
ATOM      8  C   UNL     1       7.131   4.247  15.998  0.00  0.00    +0.000 C 
ENDBRANCH   5   7
BRANCH   5   9
ATOM      9  C   UNL     1       7.406   6.360  17.814  0.00  0.00    +0.000 C 
ATOM     10  C   UNL     1       7.764   7.849  17.753  0.00  0.00    +0.000 C 
ATOM     11  C   UNL     1       7.663   5.859  19.245  0.00  0.00    +0.000 C 
ENDBRANCH   5   9
ENDBRANCH   1   5
BRANCH   2  12
ATOM     12  O   UNL     1       3.445   5.717  19.920  0.00  0.00    +0.000 OA
BRANCH  12  13
ATOM     13  C   UNL     1       2.084   6.053  20.253  0.00  0.00    +0.000 C 
BRANCH  13  14
ATOM     14  C   UNL     1       1.351   4.784  20.661  0.00  0.00    +0.000 C 
BRANCH  14  15
ATOM     15  C   UNL     1       2.314   3.642  20.966  0.00  0.00    +0.000 C 
BRANCH  15  16
ATOM     16  C   UNL     1       2.515   2.767  19.779  0.00  0.00    +0.000 A 
ATOM     17  C   UNL     1       1.609   2.404  18.806  0.00  0.00    +0.000 A 
ATOM     18  N   UNL     1       2.307   1.606  17.944  0.00  0.00    +0.000 N 
ATOM     19  C   UNL     1       3.586   1.518  18.412  0.00  0.00    +0.000 A 
ATOM     20  N   UNL     1       3.744   2.208  19.517  0.00  0.00    +0.000 NA
ATOM     21  H   UNL     1       1.949   1.162  17.111  0.00  0.00    +0.000 HD
ENDBRANCH  15  16
ENDBRANCH  14  15
ENDBRANCH  13  14
ENDBRANCH  12  13
ENDBRANCH   2  12
TORSDOF 8
ENDMDL
MODEL 5
REMARK VINA RESULT:      -6.2      0.924      1.434
REMARK  Name = 
REMARK  12 active torsions:
REMARK  status: ('A' for Active; 'I' for Inactive)
REMARK    1  A    between atoms: C_1  and  C_2
REMARK    2  A    between atoms: C_2  and  C_3
REMARK    3  A    between atoms: C_2  and  C_4
REMARK    4  A    between atoms: C_4  and  N_5
REMARK    5  A    between atoms: C_4  and  C_17
REMARK    6  A    between atoms: C_6  and  O_8
REMARK    7  A    between atoms: O_8  and  C_9
REMARK    8  A    between atoms: C_9  and  C_10
REMARK    9  A    between atoms: C_10  and  C_11
REMARK   10  A    between atoms: C_11  and  C_12
REMARK   11  A    between atoms: C_17  and  C_18
REMARK   12  A    between atoms: C_17  and  C_19
REMARK                            x       y       z     vdW  Elec       q    Type
REMARK                         _______ _______ _______ _____ _____    ______ ____
ROOT
ATOM      1  N   UNL     1       5.320   5.613  17.935  0.00  0.00    +0.000 N 
ATOM      2  C   UNL     1       4.229   6.414  18.090  0.00  0.00    +0.000 C 
ATOM      3  O   UNL     1       3.900   7.317  17.341  0.00  0.00    +0.000 OA
ATOM      4  H   UNL     1       5.457   4.924  18.665  0.00  0.00    +0.000 HD
ENDROOT
BRANCH   1   5
ATOM      5  C   UNL     1       6.362   5.850  16.942  0.00  0.00    +0.000 C 
BRANCH   5   7
ATOM      6  C   UNL     1       5.327   3.703  15.947  0.00  0.00    +0.000 C 
ATOM      7  C   UNL     1       6.578   4.581  16.066  0.00  0.00    +0.000 C 
ATOM      8  C   UNL     1       7.091   4.938  14.660  0.00  0.00    +0.000 C 
ENDBRANCH   5   7
BRANCH   5   9
ATOM      9  C   UNL     1       7.645   6.378  17.656  0.00  0.00    +0.000 C 
ATOM     10  C   UNL     1       7.758   7.905  17.615  0.00  0.00    +0.000 C 
ATOM     11  C   UNL     1       7.710   5.927  19.126  0.00  0.00    +0.000 C 
ENDBRANCH   5   9
ENDBRANCH   1   5
BRANCH   2  12
ATOM     12  O   UNL     1       3.577   6.052  19.220  0.00  0.00    +0.000 OA
BRANCH  12  13
ATOM     13  C   UNL     1       2.142   5.984  19.112  0.00  0.00    +0.000 C 
BRANCH  13  14
ATOM     14  C   UNL     1       1.773   4.826  18.199  0.00  0.00    +0.000 C 
BRANCH  14  15
ATOM     15  C   UNL     1       1.468   3.556  18.983  0.00  0.00    +0.000 C 
BRANCH  15  16
ATOM     16  C   UNL     1       2.685   2.716  19.157  0.00  0.00    +0.000 A 
ATOM     17  C   UNL     1       3.255   1.824  18.276  0.00  0.00    +0.000 A 
ATOM     18  N   UNL     1       4.359   1.338  18.920  0.00  0.00    +0.000 N 
ATOM     19  C   UNL     1       4.420   1.943  20.141  0.00  0.00    +0.000 A 
ATOM     20  N   UNL     1       3.425   2.782  20.315  0.00  0.00    +0.000 NA
ATOM     21  H   UNL     1       5.013   0.657  18.562  0.00  0.00    +0.000 HD
ENDBRANCH  15  16
ENDBRANCH  14  15
ENDBRANCH  13  14
ENDBRANCH  12  13
ENDBRANCH   2  12
TORSDOF 8
ENDMDL
MODEL 6
REMARK VINA RESULT:      -6.1      1.983      5.739
REMARK  Name = 
REMARK  12 active torsions:
REMARK  status: ('A' for Active; 'I' for Inactive)
REMARK    1  A    between atoms: C_1  and  C_2
REMARK    2  A    between atoms: C_2  and  C_3
REMARK    3  A    between atoms: C_2  and  C_4
REMARK    4  A    between atoms: C_4  and  N_5
REMARK    5  A    between atoms: C_4  and  C_17
REMARK    6  A    between atoms: C_6  and  O_8
REMARK    7  A    between atoms: O_8  and  C_9
REMARK    8  A    between atoms: C_9  and  C_10
REMARK    9  A    between atoms: C_10  and  C_11
REMARK   10  A    between atoms: C_11  and  C_12
REMARK   11  A    between atoms: C_17  and  C_18
REMARK   12  A    between atoms: C_17  and  C_19
REMARK                            x       y       z     vdW  Elec       q    Type
REMARK                         _______ _______ _______ _____ _____    ______ ____
ROOT
ATOM      1  N   UNL     1       4.152   3.794  19.607  0.00  0.00    +0.000 N 
ATOM      2  C   UNL     1       4.926   4.882  19.339  0.00  0.00    +0.000 C 
ATOM      3  O   UNL     1       4.523   5.952  18.916  0.00  0.00    +0.000 OA
ATOM      4  H   UNL     1       4.654   2.977  19.933  0.00  0.00    +0.000 HD
ENDROOT
BRANCH   1   5
ATOM      5  C   UNL     1       2.742   3.696  19.245  0.00  0.00    +0.000 C 
BRANCH   5   7
ATOM      6  C   UNL     1       0.428   3.131  20.242  0.00  0.00    +0.000 C 
ATOM      7  C   UNL     1       1.856   3.609  20.523  0.00  0.00    +0.000 C 
ATOM      8  C   UNL     1       2.495   2.717  21.601  0.00  0.00    +0.000 C 
ENDBRANCH   5   7
BRANCH   5   9
ATOM      9  C   UNL     1       2.550   2.522  18.235  0.00  0.00    +0.000 C 
ATOM     10  C   UNL     1       2.617   2.983  16.775  0.00  0.00    +0.000 C 
ATOM     11  C   UNL     1       3.594   1.411  18.440  0.00  0.00    +0.000 C 
ENDBRANCH   5   9
ENDBRANCH   1   5
BRANCH   2  12
ATOM     12  O   UNL     1       6.218   4.577  19.603  0.00  0.00    +0.000 OA
BRANCH  12  13
ATOM     13  C   UNL     1       7.155   5.659  19.444  0.00  0.00    +0.000 C 
BRANCH  13  14
ATOM     14  C   UNL     1       7.926   5.453  18.150  0.00  0.00    +0.000 C 
BRANCH  14  15
ATOM     15  C   UNL     1       7.264   6.159  16.973  0.00  0.00    +0.000 C 
BRANCH  15  16
ATOM     16  C   UNL     1       6.892   5.197  15.899  0.00  0.00    +0.000 A 
ATOM     17  C   UNL     1       6.119   4.060  15.985  0.00  0.00    +0.000 A 
ATOM     18  N   UNL     1       6.078   3.557  14.714  0.00  0.00    +0.000 N 
ATOM     19  C   UNL     1       6.809   4.391  13.919  0.00  0.00    +0.000 A 
ATOM     20  N   UNL     1       7.312   5.392  14.604  0.00  0.00    +0.000 NA
ATOM     21  H   UNL     1       5.595   2.722  14.413  0.00  0.00    +0.000 HD
ENDBRANCH  15  16
ENDBRANCH  14  15
ENDBRANCH  13  14
ENDBRANCH  12  13
ENDBRANCH   2  12
TORSDOF 8
ENDMDL
MODEL 7
REMARK VINA RESULT:      -6.1      2.033      5.221
REMARK  Name = 
REMARK  12 active torsions:
REMARK  status: ('A' for Active; 'I' for Inactive)
REMARK    1  A    between atoms: C_1  and  C_2
REMARK    2  A    between atoms: C_2  and  C_3
REMARK    3  A    between atoms: C_2  and  C_4
REMARK    4  A    between atoms: C_4  and  N_5
REMARK    5  A    between atoms: C_4  and  C_17
REMARK    6  A    between atoms: C_6  and  O_8
REMARK    7  A    between atoms: O_8  and  C_9
REMARK    8  A    between atoms: C_9  and  C_10
REMARK    9  A    between atoms: C_10  and  C_11
REMARK   10  A    between atoms: C_11  and  C_12
REMARK   11  A    between atoms: C_17  and  C_18
REMARK   12  A    between atoms: C_17  and  C_19
REMARK                            x       y       z     vdW  Elec       q    Type
REMARK                         _______ _______ _______ _____ _____    ______ ____
ROOT
ATOM      1  N   UNL     1       3.905   4.499  18.829  0.00  0.00    +0.000 N 
ATOM      2  C   UNL     1       4.732   3.597  19.428  0.00  0.00    +0.000 C 
ATOM      3  O   UNL     1       4.376   2.668  20.131  0.00  0.00    +0.000 OA
ATOM      4  H   UNL     1       4.371   5.223  18.296  0.00  0.00    +0.000 HD
ENDROOT
BRANCH   1   5
ATOM      5  C   UNL     1       2.475   4.589  19.100  0.00  0.00    +0.000 C 
BRANCH   5   7
ATOM      6  C   UNL     1       2.546   3.037  17.037  0.00  0.00    +0.000 C 
ATOM      7  C   UNL     1       1.678   3.665  18.133  0.00  0.00    +0.000 C 
ATOM      8  C   UNL     1       0.926   2.557  18.891  0.00  0.00    +0.000 C 
ENDBRANCH   5   7
BRANCH   5   9
ATOM      9  C   UNL     1       2.039   6.087  19.081  0.00  0.00    +0.000 C 
ATOM     10  C   UNL     1       1.908   6.682  20.487  0.00  0.00    +0.000 C 
ATOM     11  C   UNL     1       3.018   6.959  18.276  0.00  0.00    +0.000 C 
ENDBRANCH   5   9
ENDBRANCH   1   5
BRANCH   2  12
ATOM     12  O   UNL     1       6.014   3.912  19.129  0.00  0.00    +0.000 OA
BRANCH  12  13
ATOM     13  C   UNL     1       6.357   5.305  19.262  0.00  0.00    +0.000 C 
BRANCH  13  14
ATOM     14  C   UNL     1       7.574   5.595  18.398  0.00  0.00    +0.000 C 
BRANCH  14  15
ATOM     15  C   UNL     1       7.213   6.405  17.159  0.00  0.00    +0.000 C 
BRANCH  15  16
ATOM     16  C   UNL     1       6.663   5.538  16.081  0.00  0.00    +0.000 A 
ATOM     17  C   UNL     1       7.336   4.853  15.092  0.00  0.00    +0.000 A 
ATOM     18  N   UNL     1       6.366   4.203  14.381  0.00  0.00    +0.000 N 
ATOM     19  C   UNL     1       5.165   4.507  14.955  0.00  0.00    +0.000 A 
ATOM     20  N   UNL     1       5.310   5.310  15.983  0.00  0.00    +0.000 NA
ATOM     21  H   UNL     1       6.506   3.605  13.580  0.00  0.00    +0.000 HD
ENDBRANCH  15  16
ENDBRANCH  14  15
ENDBRANCH  13  14
ENDBRANCH  12  13
ENDBRANCH   2  12
TORSDOF 8
ENDMDL
MODEL 8
REMARK VINA RESULT:      -6.1      1.884      5.606
REMARK  Name = 
REMARK  12 active torsions:
REMARK  status: ('A' for Active; 'I' for Inactive)
REMARK    1  A    between atoms: C_1  and  C_2
REMARK    2  A    between atoms: C_2  and  C_3
REMARK    3  A    between atoms: C_2  and  C_4
REMARK    4  A    between atoms: C_4  and  N_5
REMARK    5  A    between atoms: C_4  and  C_17
REMARK    6  A    between atoms: C_6  and  O_8
REMARK    7  A    between atoms: O_8  and  C_9
REMARK    8  A    between atoms: C_9  and  C_10
REMARK    9  A    between atoms: C_10  and  C_11
REMARK   10  A    between atoms: C_11  and  C_12
REMARK   11  A    between atoms: C_17  and  C_18
REMARK   12  A    between atoms: C_17  and  C_19
REMARK                            x       y       z     vdW  Elec       q    Type
REMARK                         _______ _______ _______ _____ _____    ______ ____
ROOT
ATOM      1  N   UNL     1       3.226   5.233  18.612  0.00  0.00    +0.000 N 
ATOM      2  C   UNL     1       3.580   6.449  18.111  0.00  0.00    +0.000 C 
ATOM      3  O   UNL     1       2.822   7.382  17.913  0.00  0.00    +0.000 OA
ATOM      4  H   UNL     1       3.980   4.563  18.693  0.00  0.00    +0.000 HD
ENDROOT
BRANCH   1   5
ATOM      5  C   UNL     1       1.843   4.811  18.806  0.00  0.00    +0.000 C 
BRANCH   5   7
ATOM      6  C   UNL     1       2.553   3.978  21.146  0.00  0.00    +0.000 C 
ATOM      7  C   UNL     1       1.504   4.736  20.325  0.00  0.00    +0.000 C 
ATOM      8  C   UNL     1       1.288   6.133  20.931  0.00  0.00    +0.000 C 
ENDBRANCH   5   7
BRANCH   5   9
ATOM      9  C   UNL     1       1.590   3.490  18.014  0.00  0.00    +0.000 C 
ATOM     10  C   UNL     1       2.890   2.779  17.623  0.00  0.00    +0.000 C 
ATOM     11  C   UNL     1       0.718   2.502  18.808  0.00  0.00    +0.000 C 
ENDBRANCH   5   9
ENDBRANCH   1   5
BRANCH   2  12
ATOM     12  O   UNL     1       4.909   6.447  17.857  0.00  0.00    +0.000 OA
BRANCH  12  13
ATOM     13  C   UNL     1       5.702   5.603  18.713  0.00  0.00    +0.000 C 
BRANCH  13  14
ATOM     14  C   UNL     1       7.165   5.742  18.320  0.00  0.00    +0.000 C 
BRANCH  14  15
ATOM     15  C   UNL     1       7.670   4.523  17.558  0.00  0.00    +0.000 C 
BRANCH  15  16
ATOM     16  C   UNL     1       7.086   4.455  16.190  0.00  0.00    +0.000 A 
ATOM     17  C   UNL     1       6.000   3.732  15.747  0.00  0.00    +0.000 A 
ATOM     18  N   UNL     1       5.883   4.038  14.419  0.00  0.00    +0.000 N 
ATOM     19  C   UNL     1       6.879   4.919  14.112  0.00  0.00    +0.000 A 
ATOM     20  N   UNL     1       7.622   5.192  15.160  0.00  0.00    +0.000 NA
ATOM     21  H   UNL     1       5.188   3.682  13.779  0.00  0.00    +0.000 HD
ENDBRANCH  15  16
ENDBRANCH  14  15
ENDBRANCH  13  14
ENDBRANCH  12  13
ENDBRANCH   2  12
TORSDOF 8
ENDMDL
MODEL 9
REMARK VINA RESULT:      -5.9      2.018      6.073
REMARK  Name = 
REMARK  12 active torsions:
REMARK  status: ('A' for Active; 'I' for Inactive)
REMARK    1  A    between atoms: C_1  and  C_2
REMARK    2  A    between atoms: C_2  and  C_3
REMARK    3  A    between atoms: C_2  and  C_4
REMARK    4  A    between atoms: C_4  and  N_5
REMARK    5  A    between atoms: C_4  and  C_17
REMARK    6  A    between atoms: C_6  and  O_8
REMARK    7  A    between atoms: O_8  and  C_9
REMARK    8  A    between atoms: C_9  and  C_10
REMARK    9  A    between atoms: C_10  and  C_11
REMARK   10  A    between atoms: C_11  and  C_12
REMARK   11  A    between atoms: C_17  and  C_18
REMARK   12  A    between atoms: C_17  and  C_19
REMARK                            x       y       z     vdW  Elec       q    Type
REMARK                         _______ _______ _______ _____ _____    ______ ____
ROOT
ATOM      1  N   UNL     1       2.950   3.964  18.567  0.00  0.00    +0.000 N 
ATOM      2  C   UNL     1       4.104   3.240  18.550  0.00  0.00    +0.000 C 
ATOM      3  O   UNL     1       4.755   2.920  19.529  0.00  0.00    +0.000 OA
ATOM      4  H   UNL     1       2.550   4.159  17.659  0.00  0.00    +0.000 HD
ENDROOT
BRANCH   1   5
ATOM      5  C   UNL     1       2.429   4.623  19.759  0.00  0.00    +0.000 C 
BRANCH   5   7
ATOM      6  C   UNL     1       0.587   2.859  19.350  0.00  0.00    +0.000 C 
ATOM      7  C   UNL     1       1.243   3.809  20.358  0.00  0.00    +0.000 C 
ATOM      8  C   UNL     1       1.667   3.020  21.609  0.00  0.00    +0.000 C 
ENDBRANCH   5   7
BRANCH   5   9
ATOM      9  C   UNL     1       2.096   6.110  19.422  0.00  0.00    +0.000 C 
ATOM     10  C   UNL     1       1.949   6.981  20.674  0.00  0.00    +0.000 C 
ATOM     11  C   UNL     1       3.162   6.745  18.513  0.00  0.00    +0.000 C 
ENDBRANCH   5   9
ENDBRANCH   1   5
BRANCH   2  12
ATOM     12  O   UNL     1       4.418   2.947  17.267  0.00  0.00    +0.000 OA
BRANCH  12  13
ATOM     13  C   UNL     1       4.970   4.035  16.500  0.00  0.00    +0.000 C 
BRANCH  13  14
ATOM     14  C   UNL     1       6.153   4.617  17.258  0.00  0.00    +0.000 C 
BRANCH  14  15
ATOM     15  C   UNL     1       6.856   5.711  16.463  0.00  0.00    +0.000 C 
BRANCH  15  16
ATOM     16  C   UNL     1       7.480   6.722  17.361  0.00  0.00    +0.000 A 
ATOM     17  C   UNL     1       8.037   6.546  18.609  0.00  0.00    +0.000 A 
ATOM     18  N   UNL     1       8.477   7.785  18.984  0.00  0.00    +0.000 N 
ATOM     19  C   UNL     1       8.182   8.649  17.969  0.00  0.00    +0.000 A 
ATOM     20  N   UNL     1       7.580   8.038  16.975  0.00  0.00    +0.000 NA
ATOM     21  H   UNL     1       8.938   8.023  19.850  0.00  0.00    +0.000 HD
ENDBRANCH  15  16
ENDBRANCH  14  15
ENDBRANCH  13  14
ENDBRANCH  12  13
ENDBRANCH   2  12
TORSDOF 8
ENDMDL
