MODEL 1
REMARK VINA RESULT:      -7.5      0.000      0.000
REMARK  Name = 
REMARK  4 active torsions:
REMARK  status: ('A' for Active; 'I' for Inactive)
REMARK    1  A    between atoms: S_2  and  C_4
REMARK    2  A    between atoms: S_2  and  N_11
REMARK    3  A    between atoms: C_17  and  C_18
REMARK    4  A    between atoms: C_18  and  N_19
REMARK                            x       y       z     vdW  Elec       q    Type
REMARK                         _______ _______ _______ _____ _____    ______ ____
ROOT
ATOM      1  N   UNL     1      -0.334  11.252  19.950  0.00  0.00    +0.000 N 
ATOM      2  C   UNL     1      -0.537  11.082  21.296  0.00  0.00    +0.000 A 
ATOM      3  C   UNL     1       0.105   9.918  21.660  0.00  0.00    +0.000 A 
ATOM      4 CL   UNL     1       0.109   9.256  23.226  0.00  0.00    +0.000 Cl
ATOM      5  C   UNL     1       0.754   9.365  20.504  0.00  0.00    +0.000 A 
ATOM      6  C   UNL     1       1.627   8.253  20.248  0.00  0.00    +0.000 A 
ATOM      7  C   UNL     1       2.037   7.954  18.929  0.00  0.00    +0.000 A 
ATOM      8  C   UNL     1       1.433   8.665  17.889  0.00  0.00    +0.000 A 
ATOM      9  C   UNL     1       0.634   9.785  18.103  0.00  0.00    +0.000 A 
ATOM     10  C   UNL     1       0.351  10.166  19.426  0.00  0.00    +0.000 A 
ENDROOT
BRANCH   1  12
ATOM     11  O   UNL     1      -1.669  13.383  20.017  0.00  0.00    +0.000 OA
ATOM     12  S   UNL     1      -0.767  12.679  19.109  0.00  0.00    +0.000 S 
ATOM     13  O   UNL     1      -1.166  12.284  17.780  0.00  0.00    +0.000 OA
BRANCH  12  14
ATOM     14  C   UNL     1       0.702  13.680  18.930  0.00  0.00    +0.000 A 
ATOM     15  C   UNL     1       1.868  13.163  18.340  0.00  0.00    +0.000 A 
ATOM     16  C   UNL     1       2.988  13.989  18.198  0.00  0.00    +0.000 A 
ATOM     17  C   UNL     1       2.947  15.305  18.618  0.00  0.00    +0.000 A 
ATOM     18  F   UNL     1       4.029  16.088  18.480  0.00  0.00    +0.000 F 
ATOM     19  C   UNL     1       1.794  15.839  19.195  0.00  0.00    +0.000 A 
ATOM     20  C   UNL     1       0.663  15.026  19.340  0.00  0.00    +0.000 A 
ENDBRANCH  12  14
ENDBRANCH   1  12
BRANCH   7  21
ATOM     21  C   UNL     1       3.058   6.872  18.533  0.00  0.00    +0.000 C 
BRANCH  21  22
ATOM     22  N   UNL     1       2.635   5.504  18.905  0.00  0.00    +0.000 NA
ATOM     23  C   UNL     1       2.241   4.593  17.823  0.00  0.00    +0.000 C 
ATOM     24  C   UNL     1       3.331   3.692  17.181  0.00  0.00    +0.000 C 
ATOM     25  N   UNL     1       4.454   3.252  18.009  0.00  0.00    +0.000 NA
ATOM     26  C   UNL     1       4.746   4.089  19.166  0.00  0.00    +0.000 C 
ATOM     27  C   UNL     1       3.535   4.785  19.820  0.00  0.00    +0.000 C 
ATOM     28  H   UNL     1       5.296   3.162  17.427  0.00  0.00    +0.000 HD
ENDBRANCH  21  22
ENDBRANCH   7  21
TORSDOF 4
ENDMDL
MODEL 2
REMARK VINA RESULT:      -7.5      3.276      4.087
REMARK  Name = 
REMARK  4 active torsions:
REMARK  status: ('A' for Active; 'I' for Inactive)
REMARK    1  A    between atoms: S_2  and  C_4
REMARK    2  A    between atoms: S_2  and  N_11
REMARK    3  A    between atoms: C_17  and  C_18
REMARK    4  A    between atoms: C_18  and  N_19
REMARK                            x       y       z     vdW  Elec       q    Type
REMARK                         _______ _______ _______ _____ _____    ______ ____
ROOT
ATOM      1  N   UNL     1      -0.560  11.152  20.072  0.00  0.00    +0.000 N 
ATOM      2  C   UNL     1      -0.573  10.972  21.432  0.00  0.00    +0.000 A 
ATOM      3  C   UNL     1       0.235   9.890  21.706  0.00  0.00    +0.000 A 
ATOM      4 CL   UNL     1       0.509   9.246  23.256  0.00  0.00    +0.000 Cl
ATOM      5  C   UNL     1       0.793   9.403  20.475  0.00  0.00    +0.000 A 
ATOM      6  C   UNL     1       1.746   8.394  20.106  0.00  0.00    +0.000 A 
ATOM      7  C   UNL     1       2.018   8.130  18.744  0.00  0.00    +0.000 A 
ATOM      8  C   UNL     1       1.213   8.760  17.792  0.00  0.00    +0.000 A 
ATOM      9  C   UNL     1       0.327   9.786  18.110  0.00  0.00    +0.000 A 
ATOM     10  C   UNL     1       0.171  10.145  19.460  0.00  0.00    +0.000 A 
ENDROOT
BRANCH   1  12
ATOM     11  O   UNL     1      -0.465  12.685  18.079  0.00  0.00    +0.000 OA
ATOM     12  S   UNL     1      -1.252  12.514  19.299  0.00  0.00    +0.000 S 
ATOM     13  O   UNL     1      -1.367  13.554  20.292  0.00  0.00    +0.000 OA
BRANCH  12  14
ATOM     14  C   UNL     1      -2.915  12.083  18.808  0.00  0.00    +0.000 A 
ATOM     15  C   UNL     1      -3.162  11.365  17.626  0.00  0.00    +0.000 A 
ATOM     16  C   UNL     1      -4.477  11.028  17.292  0.00  0.00    +0.000 A 
ATOM     17  C   UNL     1      -5.525  11.381  18.122  0.00  0.00    +0.000 A 
ATOM     18  F   UNL     1      -6.784  11.055  17.789  0.00  0.00    +0.000 F 
ATOM     19  C   UNL     1      -5.297  12.084  19.306  0.00  0.00    +0.000 A 
ATOM     20  C   UNL     1      -3.985  12.425  19.656  0.00  0.00    +0.000 A 
ENDBRANCH  12  14
ENDBRANCH   1  12
BRANCH   7  21
ATOM     21  C   UNL     1       3.097   7.166  18.219  0.00  0.00    +0.000 C 
BRANCH  21  22
ATOM     22  N   UNL     1       3.046   5.830  18.851  0.00  0.00    +0.000 NA
ATOM     23  C   UNL     1       2.540   4.711  18.045  0.00  0.00    +0.000 C 
ATOM     24  C   UNL     1       3.555   3.880  17.214  0.00  0.00    +0.000 C 
ATOM     25  N   UNL     1       4.923   3.739  17.715  0.00  0.00    +0.000 NA
ATOM     26  C   UNL     1       5.366   4.784  18.630  0.00  0.00    +0.000 C 
ATOM     27  C   UNL     1       4.277   5.399  19.531  0.00  0.00    +0.000 C 
ATOM     28  H   UNL     1       5.574   3.676  16.923  0.00  0.00    +0.000 HD
ENDBRANCH  21  22
ENDBRANCH   7  21
TORSDOF 4
ENDMDL
MODEL 3
REMARK VINA RESULT:      -7.4      0.487      1.048
REMARK  Name = 
REMARK  4 active torsions:
REMARK  status: ('A' for Active; 'I' for Inactive)
REMARK    1  A    between atoms: S_2  and  C_4
REMARK    2  A    between atoms: S_2  and  N_11
REMARK    3  A    between atoms: C_17  and  C_18
REMARK    4  A    between atoms: C_18  and  N_19
REMARK                            x       y       z     vdW  Elec       q    Type
REMARK                         _______ _______ _______ _____ _____    ______ ____
ROOT
ATOM      1  N   UNL     1      -0.462  11.204  19.832  0.00  0.00    +0.000 N 
ATOM      2  C   UNL     1      -0.639  11.041  21.183  0.00  0.00    +0.000 A 
ATOM      3  C   UNL     1       0.084   9.928  21.556  0.00  0.00    +0.000 A 
ATOM      4 CL   UNL     1       0.150   9.291  23.131  0.00  0.00    +0.000 Cl
ATOM      5  C   UNL     1       0.757   9.403  20.400  0.00  0.00    +0.000 A 
ATOM      6  C   UNL     1       1.700   8.349  20.150  0.00  0.00    +0.000 A 
ATOM      7  C   UNL     1       2.115   8.058  18.830  0.00  0.00    +0.000 A 
ATOM      8  C   UNL     1       1.453   8.711  17.787  0.00  0.00    +0.000 A 
ATOM      9  C   UNL     1       0.583   9.778  17.995  0.00  0.00    +0.000 A 
ATOM     10  C   UNL     1       0.289  10.159  19.315  0.00  0.00    +0.000 A 
ENDROOT
BRANCH   1  12
ATOM     11  O   UNL     1      -1.908  13.261  19.899  0.00  0.00    +0.000 OA
ATOM     12  S   UNL     1      -1.000  12.585  18.976  0.00  0.00    +0.000 S 
ATOM     13  O   UNL     1      -1.421  12.138  17.670  0.00  0.00    +0.000 OA
BRANCH  12  14
ATOM     14  C   UNL     1       0.406  13.659  18.724  0.00  0.00    +0.000 A 
ATOM     15  C   UNL     1       0.308  15.046  18.927  0.00  0.00    +0.000 A 
ATOM     16  C   UNL     1       1.439  15.847  18.742  0.00  0.00    +0.000 A 
ATOM     17  C   UNL     1       2.648  15.282  18.380  0.00  0.00    +0.000 A 
ATOM     18  F   UNL     1       3.727  16.061  18.202  0.00  0.00    +0.000 F 
ATOM     19  C   UNL     1       2.767  13.905  18.187  0.00  0.00    +0.000 A 
ATOM     20  C   UNL     1       1.644  13.089  18.372  0.00  0.00    +0.000 A 
ENDBRANCH  12  14
ENDBRANCH   1  12
BRANCH   7  21
ATOM     21  C   UNL     1       3.202   7.042  18.438  0.00  0.00    +0.000 C 
BRANCH  21  22
ATOM     22  N   UNL     1       3.071   5.744  19.137  0.00  0.00    +0.000 NA
ATOM     23  C   UNL     1       2.030   4.819  18.670  0.00  0.00    +0.000 C 
ATOM     24  C   UNL     1       2.400   3.781  17.575  0.00  0.00    +0.000 C 
ATOM     25  N   UNL     1       3.773   3.277  17.523  0.00  0.00    +0.000 NA
ATOM     26  C   UNL     1       4.782   4.144  18.120  0.00  0.00    +0.000 C 
ATOM     27  C   UNL     1       4.320   4.991  19.323  0.00  0.00    +0.000 C 
ATOM     28  H   UNL     1       4.027   3.073  16.548  0.00  0.00    +0.000 HD
ENDBRANCH  21  22
ENDBRANCH   7  21
TORSDOF 4
ENDMDL
MODEL 4
REMARK VINA RESULT:      -7.4      4.760      8.160
REMARK  Name = 
REMARK  4 active torsions:
REMARK  status: ('A' for Active; 'I' for Inactive)
REMARK    1  A    between atoms: S_2  and  C_4
REMARK    2  A    between atoms: S_2  and  N_11
REMARK    3  A    between atoms: C_17  and  C_18
REMARK    4  A    between atoms: C_18  and  N_19
REMARK                            x       y       z     vdW  Elec       q    Type
REMARK                         _______ _______ _______ _____ _____    ______ ____
ROOT
ATOM      1  N   UNL     1       3.454   4.244  19.084  0.00  0.00    +0.000 N 
ATOM      2  C   UNL     1       3.059   3.149  19.811  0.00  0.00    +0.000 A 
ATOM      3  C   UNL     1       2.097   3.578  20.699  0.00  0.00    +0.000 A 
ATOM      4 CL   UNL     1       1.326   2.593  21.851  0.00  0.00    +0.000 Cl
ATOM      5  C   UNL     1       1.866   4.981  20.493  0.00  0.00    +0.000 A 
ATOM      6  C   UNL     1       0.957   5.962  21.018  0.00  0.00    +0.000 A 
ATOM      7  C   UNL     1       1.059   7.315  20.623  0.00  0.00    +0.000 A 
ATOM      8  C   UNL     1       2.165   7.681  19.850  0.00  0.00    +0.000 A 
ATOM      9  C   UNL     1       3.025   6.749  19.274  0.00  0.00    +0.000 A 
ATOM     10  C   UNL     1       2.827   5.387  19.555  0.00  0.00    +0.000 A 
ENDROOT
BRANCH   1  12
ATOM     11  O   UNL     1       3.663   4.637  16.608  0.00  0.00    +0.000 OA
ATOM     12  S   UNL     1       4.477   4.141  17.715  0.00  0.00    +0.000 S 
ATOM     13  O   UNL     1       5.054   2.818  17.713  0.00  0.00    +0.000 OA
BRANCH  12  14
ATOM     14  C   UNL     1       5.824   5.291  17.947  0.00  0.00    +0.000 A 
ATOM     15  C   UNL     1       5.978   6.410  17.111  0.00  0.00    +0.000 A 
ATOM     16  C   UNL     1       7.034   7.298  17.342  0.00  0.00    +0.000 A 
ATOM     17  C   UNL     1       7.909   7.089  18.392  0.00  0.00    +0.000 A 
ATOM     18  F   UNL     1       8.920   7.947  18.604  0.00  0.00    +0.000 F 
ATOM     19  C   UNL     1       7.764   5.991  19.240  0.00  0.00    +0.000 A 
ATOM     20  C   UNL     1       6.710   5.095  19.023  0.00  0.00    +0.000 A 
ENDBRANCH  12  14
ENDBRANCH   1  12
BRANCH   7  21
ATOM     21  C   UNL     1       0.081   8.437  21.014  0.00  0.00    +0.000 C 
BRANCH  21  22
ATOM     22  N   UNL     1       0.704   9.496  21.839  0.00  0.00    +0.000 NA
ATOM     23  C   UNL     1       0.904  10.813  21.222  0.00  0.00    +0.000 C 
ATOM     24  C   UNL     1      -0.223  11.873  21.358  0.00  0.00    +0.000 C 
ATOM     25  N   UNL     1      -1.066  11.850  22.554  0.00  0.00    +0.000 NA
ATOM     26  C   UNL     1      -1.143  10.567  23.242  0.00  0.00    +0.000 C 
ATOM     27  C   UNL     1       0.122   9.688  23.176  0.00  0.00    +0.000 C 
ATOM     28  H   UNL     1      -2.013  12.170  22.313  0.00  0.00    +0.000 HD
ENDBRANCH  21  22
ENDBRANCH   7  21
TORSDOF 4
ENDMDL
MODEL 5
REMARK VINA RESULT:      -7.4      1.015      1.227
REMARK  Name = 
REMARK  4 active torsions:
REMARK  status: ('A' for Active; 'I' for Inactive)
REMARK    1  A    between atoms: S_2  and  C_4
REMARK    2  A    between atoms: S_2  and  N_11
REMARK    3  A    between atoms: C_17  and  C_18
REMARK    4  A    between atoms: C_18  and  N_19
REMARK                            x       y       z     vdW  Elec       q    Type
REMARK                         _______ _______ _______ _____ _____    ______ ____
ROOT
ATOM      1  N   UNL     1       0.080  11.404  20.012  0.00  0.00    +0.000 N 
ATOM      2  C   UNL     1      -0.449  10.975  21.203  0.00  0.00    +0.000 A 
ATOM      3  C   UNL     1      -0.035   9.673  21.386  0.00  0.00    +0.000 A 
ATOM      4 CL   UNL     1      -0.467   8.690  22.704  0.00  0.00    +0.000 Cl
ATOM      5  C   UNL     1       0.806   9.294  20.284  0.00  0.00    +0.000 A 
ATOM      6  C   UNL     1       1.595   8.144  19.941  0.00  0.00    +0.000 A 
ATOM      7  C   UNL     1       2.268   8.082  18.700  0.00  0.00    +0.000 A 
ATOM      8  C   UNL     1       2.002   9.091  17.771  0.00  0.00    +0.000 A 
ATOM      9  C   UNL     1       1.296  10.248  18.092  0.00  0.00    +0.000 A 
ATOM     10  C   UNL     1       0.752  10.367  19.382  0.00  0.00    +0.000 A 
ENDROOT
BRANCH   1  12
ATOM     11  O   UNL     1      -0.759  13.720  20.521  0.00  0.00    +0.000 OA
ATOM     12  S   UNL     1       0.007  13.031  19.484  0.00  0.00    +0.000 S 
ATOM     13  O   UNL     1      -0.412  13.011  18.104  0.00  0.00    +0.000 OA
BRANCH  12  14
ATOM     14  C   UNL     1       1.665  13.694  19.511  0.00  0.00    +0.000 A 
ATOM     15  C   UNL     1       2.316  13.976  20.724  0.00  0.00    +0.000 A 
ATOM     16  C   UNL     1       3.624  14.472  20.701  0.00  0.00    +0.000 A 
ATOM     17  C   UNL     1       4.278  14.668  19.499  0.00  0.00    +0.000 A 
ATOM     18  F   UNL     1       5.532  15.148  19.487  0.00  0.00    +0.000 F 
ATOM     19  C   UNL     1       3.652  14.382  18.285  0.00  0.00    +0.000 A 
ATOM     20  C   UNL     1       2.344  13.881  18.293  0.00  0.00    +0.000 A 
ENDBRANCH  12  14
ENDBRANCH   1  12
BRANCH   7  21
ATOM     21  C   UNL     1       3.236   6.969  18.262  0.00  0.00    +0.000 C 
BRANCH  21  22
ATOM     22  N   UNL     1       2.932   5.655  18.872  0.00  0.00    +0.000 NA
ATOM     23  C   UNL     1       2.310   4.634  18.020  0.00  0.00    +0.000 C 
ATOM     24  C   UNL     1       3.234   3.654  17.246  0.00  0.00    +0.000 C 
ATOM     25  N   UNL     1       4.525   3.296  17.834  0.00  0.00    +0.000 NA
ATOM     26  C   UNL     1       5.066   4.254  18.790  0.00  0.00    +0.000 C 
ATOM     27  C   UNL     1       4.030   5.032  19.626  0.00  0.00    +0.000 C 
ATOM     28  H   UNL     1       5.209   3.131  17.085  0.00  0.00    +0.000 HD
ENDBRANCH  21  22
ENDBRANCH   7  21
TORSDOF 4
ENDMDL
MODEL 6
REMARK VINA RESULT:      -7.3      3.233      4.042
REMARK  Name = 
REMARK  4 active torsions:
REMARK  status: ('A' for Active; 'I' for Inactive)
REMARK    1  A    between atoms: S_2  and  C_4
REMARK    2  A    between atoms: S_2  and  N_11
REMARK    3  A    between atoms: C_17  and  C_18
REMARK    4  A    between atoms: C_18  and  N_19
REMARK                            x       y       z     vdW  Elec       q    Type
REMARK                         _______ _______ _______ _____ _____    ______ ____
ROOT
ATOM      1  N   UNL     1      -0.305  11.075  20.135  0.00  0.00    +0.000 N 
ATOM      2  C   UNL     1      -0.328  10.882  21.493  0.00  0.00    +0.000 A 
ATOM      3  C   UNL     1       0.437   9.766  21.758  0.00  0.00    +0.000 A 
ATOM      4 CL   UNL     1       0.682   9.096  23.301  0.00  0.00    +0.000 Cl
ATOM      5  C   UNL     1       0.975   9.269  20.522  0.00  0.00    +0.000 A 
ATOM      6  C   UNL     1       1.888   8.225  20.144  0.00  0.00    +0.000 A 
ATOM      7  C   UNL     1       2.151   7.965  18.780  0.00  0.00    +0.000 A 
ATOM      8  C   UNL     1       1.373   8.636  17.833  0.00  0.00    +0.000 A 
ATOM      9  C   UNL     1       0.529   9.694  18.161  0.00  0.00    +0.000 A 
ATOM     10  C   UNL     1       0.385  10.045  19.514  0.00  0.00    +0.000 A 
ENDROOT
BRANCH   1  12
ATOM     11  O   UNL     1      -0.126  12.640  18.174  0.00  0.00    +0.000 OA
ATOM     12  S   UNL     1      -0.941  12.471  19.375  0.00  0.00    +0.000 S 
ATOM     13  O   UNL     1      -1.043  13.495  20.386  0.00  0.00    +0.000 OA
BRANCH  12  14
ATOM     14  C   UNL     1      -2.606  12.100  18.846  0.00  0.00    +0.000 A 
ATOM     15  C   UNL     1      -3.714  12.437  19.641  0.00  0.00    +0.000 A 
ATOM     16  C   UNL     1      -5.002  12.150  19.178  0.00  0.00    +0.000 A 
ATOM     17  C   UNL     1      -5.188  11.556  17.943  0.00  0.00    +0.000 A 
ATOM     18  F   UNL     1      -6.429  11.282  17.509  0.00  0.00    +0.000 F 
ATOM     19  C   UNL     1      -4.100  11.226  17.134  0.00  0.00    +0.000 A 
ATOM     20  C   UNL     1      -2.804  11.511  17.583  0.00  0.00    +0.000 A 
ENDBRANCH  12  14
ENDBRANCH   1  12
BRANCH   7  21
ATOM     21  C   UNL     1       3.191   6.964  18.246  0.00  0.00    +0.000 C 
BRANCH  21  22
ATOM     22  N   UNL     1       3.506   5.880  19.203  0.00  0.00    +0.000 NA
ATOM     23  C   UNL     1       2.667   4.675  19.172  0.00  0.00    +0.000 C 
ATOM     24  C   UNL     1       3.097   3.498  18.254  0.00  0.00    +0.000 C 
ATOM     25  N   UNL     1       4.523   3.289  18.004  0.00  0.00    +0.000 NA
ATOM     26  C   UNL     1       5.369   4.464  18.178  0.00  0.00    +0.000 C 
ATOM     27  C   UNL     1       4.916   5.468  19.258  0.00  0.00    +0.000 C 
ATOM     28  H   UNL     1       4.655   2.908  17.059  0.00  0.00    +0.000 HD
ENDBRANCH  21  22
ENDBRANCH   7  21
TORSDOF 4
ENDMDL
MODEL 7
REMARK VINA RESULT:      -7.3      4.735      8.205
REMARK  Name = 
REMARK  4 active torsions:
REMARK  status: ('A' for Active; 'I' for Inactive)
REMARK    1  A    between atoms: S_2  and  C_4
REMARK    2  A    between atoms: S_2  and  N_11
REMARK    3  A    between atoms: C_17  and  C_18
REMARK    4  A    between atoms: C_18  and  N_19
REMARK                            x       y       z     vdW  Elec       q    Type
REMARK                         _______ _______ _______ _____ _____    ______ ____
ROOT
ATOM      1  N   UNL     1       2.847   3.693  19.040  0.00  0.00    +0.000 N 
ATOM      2  C   UNL     1       2.418   2.753  19.942  0.00  0.00    +0.000 A 
ATOM      3  C   UNL     1       1.740   3.424  20.937  0.00  0.00    +0.000 A 
ATOM      4 CL   UNL     1       1.051   2.694  22.309  0.00  0.00    +0.000 Cl
ATOM      5  C   UNL     1       1.723   4.826  20.623  0.00  0.00    +0.000 A 
ATOM      6  C   UNL     1       1.122   6.000  21.192  0.00  0.00    +0.000 A 
ATOM      7  C   UNL     1       1.379   7.275  20.639  0.00  0.00    +0.000 A 
ATOM      8  C   UNL     1       2.357   7.362  19.645  0.00  0.00    +0.000 A 
ATOM      9  C   UNL     1       2.911   6.242  19.030  0.00  0.00    +0.000 A 
ATOM     10  C   UNL     1       2.535   4.968  19.488  0.00  0.00    +0.000 A 
ENDROOT
BRANCH   1  12
ATOM     11  O   UNL     1       2.503   3.592  16.550  0.00  0.00    +0.000 OA
ATOM     12  S   UNL     1       3.546   3.294  17.529  0.00  0.00    +0.000 S 
ATOM     13  O   UNL     1       4.123   1.979  17.662  0.00  0.00    +0.000 OA
BRANCH  12  14
ATOM     14  C   UNL     1       4.899   4.423  17.233  0.00  0.00    +0.000 A 
ATOM     15  C   UNL     1       4.909   5.268  16.110  0.00  0.00    +0.000 A 
ATOM     16  C   UNL     1       5.976   6.153  15.929  0.00  0.00    +0.000 A 
ATOM     17  C   UNL     1       7.004   6.212  16.851  0.00  0.00    +0.000 A 
ATOM     18  F   UNL     1       8.026   7.063  16.665  0.00  0.00    +0.000 F 
ATOM     19  C   UNL     1       7.005   5.389  17.978  0.00  0.00    +0.000 A 
ATOM     20  C   UNL     1       5.941   4.500  18.175  0.00  0.00    +0.000 A 
ENDBRANCH  12  14
ENDBRANCH   1  12
BRANCH   7  21
ATOM     21  C   UNL     1       0.709   8.590  21.075  0.00  0.00    +0.000 C 
BRANCH  21  22
ATOM     22  N   UNL     1       0.966   9.714  20.147  0.00  0.00    +0.000 NA
ATOM     23  C   UNL     1       0.140   9.802  18.936  0.00  0.00    +0.000 C 
ATOM     24  C   UNL     1      -1.175  10.627  18.996  0.00  0.00    +0.000 C 
ATOM     25  N   UNL     1      -1.240  11.776  19.899  0.00  0.00    +0.000 NA
ATOM     26  C   UNL     1      -0.312  11.745  21.023  0.00  0.00    +0.000 C 
ATOM     27  C   UNL     1       1.038  11.046  20.764  0.00  0.00    +0.000 C 
ATOM     28  H   UNL     1      -2.201  11.885  20.249  0.00  0.00    +0.000 HD
ENDBRANCH  21  22
ENDBRANCH   7  21
TORSDOF 4
ENDMDL
MODEL 8
REMARK VINA RESULT:      -7.3      1.826      2.151
REMARK  Name = 
REMARK  4 active torsions:
REMARK  status: ('A' for Active; 'I' for Inactive)
REMARK    1  A    between atoms: S_2  and  C_4
REMARK    2  A    between atoms: S_2  and  N_11
REMARK    3  A    between atoms: C_17  and  C_18
REMARK    4  A    between atoms: C_18  and  N_19
REMARK                            x       y       z     vdW  Elec       q    Type
REMARK                         _______ _______ _______ _____ _____    ______ ____
ROOT
ATOM      1  N   UNL     1       0.933  10.987  19.727  0.00  0.00    +0.000 N 
ATOM      2  C   UNL     1       0.328  10.978  20.958  0.00  0.00    +0.000 A 
ATOM      3  C   UNL     1       0.441   9.698  21.457  0.00  0.00    +0.000 A 
ATOM      4 CL   UNL     1      -0.193   9.173  22.944  0.00  0.00    +0.000 Cl
ATOM      5  C   UNL     1       1.169   8.895  20.514  0.00  0.00    +0.000 A 
ATOM      6  C   UNL     1       1.678   7.552  20.484  0.00  0.00    +0.000 A 
ATOM      7  C   UNL     1       2.314   7.053  19.325  0.00  0.00    +0.000 A 
ATOM      8  C   UNL     1       2.275   7.848  18.175  0.00  0.00    +0.000 A 
ATOM      9  C   UNL     1       1.848   9.173  18.187  0.00  0.00    +0.000 A 
ATOM     10  C   UNL     1       1.352   9.709  19.387  0.00  0.00    +0.000 A 
ENDROOT
BRANCH   1  12
ATOM     11  O   UNL     1      -0.063  12.736  18.218  0.00  0.00    +0.000 OA
ATOM     12  S   UNL     1       1.223  12.419  18.834  0.00  0.00    +0.000 S 
ATOM     13  O   UNL     1       2.417  12.199  18.054  0.00  0.00    +0.000 OA
BRANCH  12  14
ATOM     14  C   UNL     1       1.598  13.724  19.994  0.00  0.00    +0.000 A 
ATOM     15  C   UNL     1       2.752  13.677  20.795  0.00  0.00    +0.000 A 
ATOM     16  C   UNL     1       3.020  14.732  21.673  0.00  0.00    +0.000 A 
ATOM     17  C   UNL     1       2.170  15.820  21.743  0.00  0.00    +0.000 A 
ATOM     18  F   UNL     1       2.435  16.826  22.592  0.00  0.00    +0.000 F 
ATOM     19  C   UNL     1       1.027  15.890  20.947  0.00  0.00    +0.000 A 
ATOM     20  C   UNL     1       0.747  14.843  20.060  0.00  0.00    +0.000 A 
ENDBRANCH  12  14
ENDBRANCH   1  12
BRANCH   7  21
ATOM     21  C   UNL     1       3.005   5.684  19.203  0.00  0.00    +0.000 C 
BRANCH  21  22
ATOM     22  N   UNL     1       2.708   4.989  17.931  0.00  0.00    +0.000 NA
ATOM     23  C   UNL     1       3.726   4.075  17.397  0.00  0.00    +0.000 C 
ATOM     24  C   UNL     1       3.665   2.578  17.810  0.00  0.00    +0.000 C 
ATOM     25  N   UNL     1       2.360   1.983  18.096  0.00  0.00    +0.000 NA
ATOM     26  C   UNL     1       1.315   2.922  18.488  0.00  0.00    +0.000 C 
ATOM     27  C   UNL     1       1.398   4.326  17.857  0.00  0.00    +0.000 C 
ATOM     28  H   UNL     1       2.463   1.261  18.820  0.00  0.00    +0.000 HD
ENDBRANCH  21  22
ENDBRANCH   7  21
TORSDOF 4
ENDMDL
MODEL 9
REMARK VINA RESULT:      -7.2      3.216      3.934
REMARK  Name = 
REMARK  4 active torsions:
REMARK  status: ('A' for Active; 'I' for Inactive)
REMARK    1  A    between atoms: S_2  and  C_4
REMARK    2  A    between atoms: S_2  and  N_11
REMARK    3  A    between atoms: C_17  and  C_18
REMARK    4  A    between atoms: C_18  and  N_19
REMARK                            x       y       z     vdW  Elec       q    Type
REMARK                         _______ _______ _______ _____ _____    ______ ____
ROOT
ATOM      1  N   UNL     1      -0.563  10.989  19.973  0.00  0.00    +0.000 N 
ATOM      2  C   UNL     1      -0.652  10.821  21.332  0.00  0.00    +0.000 A 
ATOM      3  C   UNL     1       0.168   9.764  21.665  0.00  0.00    +0.000 A 
ATOM      4 CL   UNL     1       0.367   9.141  23.234  0.00  0.00    +0.000 Cl
ATOM      5  C   UNL     1       0.810   9.281  20.473  0.00  0.00    +0.000 A 
ATOM      6  C   UNL     1       1.810   8.295  20.172  0.00  0.00    +0.000 A 
ATOM      7  C   UNL     1       2.170   8.027  18.831  0.00  0.00    +0.000 A 
ATOM      8  C   UNL     1       1.406   8.627  17.826  0.00  0.00    +0.000 A 
ATOM      9  C   UNL     1       0.475   9.631  18.082  0.00  0.00    +0.000 A 
ATOM     10  C   UNL     1       0.230   9.996  19.416  0.00  0.00    +0.000 A 
ENDROOT
BRANCH   1  12
ATOM     11  O   UNL     1      -0.115  12.948  18.460  0.00  0.00    +0.000 OA
ATOM     12  S   UNL     1      -1.244  12.324  19.146  0.00  0.00    +0.000 S 
ATOM     13  O   UNL     1      -2.059  13.042  20.097  0.00  0.00    +0.000 OA
BRANCH  12  14
ATOM     14  C   UNL     1      -2.350  11.691  17.894  0.00  0.00    +0.000 A 
ATOM     15  C   UNL     1      -3.730  11.579  18.131  0.00  0.00    +0.000 A 
ATOM     16  C   UNL     1      -4.564  11.101  17.115  0.00  0.00    +0.000 A 
ATOM     17  C   UNL     1      -4.041  10.756  15.883  0.00  0.00    +0.000 A 
ATOM     18  F   UNL     1      -4.849  10.295  14.915  0.00  0.00    +0.000 F 
ATOM     19  C   UNL     1      -2.674  10.872  15.625  0.00  0.00    +0.000 A 
ATOM     20  C   UNL     1      -1.828  11.354  16.632  0.00  0.00    +0.000 A 
ENDBRANCH  12  14
ENDBRANCH   1  12
BRANCH   7  21
ATOM     21  C   UNL     1       3.303   7.089  18.380  0.00  0.00    +0.000 C 
BRANCH  21  22
ATOM     22  N   UNL     1       3.259   5.762  19.032  0.00  0.00    +0.000 NA
ATOM     23  C   UNL     1       2.510   4.693  18.358  0.00  0.00    +0.000 C 
ATOM     24  C   UNL     1       3.267   3.776  17.359  0.00  0.00    +0.000 C 
ATOM     25  N   UNL     1       4.687   3.512  17.589  0.00  0.00    +0.000 NA
ATOM     26  C   UNL     1       5.390   4.512  18.383  0.00  0.00    +0.000 C 
ATOM     27  C   UNL     1       4.555   5.222  19.468  0.00  0.00    +0.000 C 
ATOM     28  H   UNL     1       5.165   3.392  16.687  0.00  0.00    +0.000 HD
ENDBRANCH  21  22
ENDBRANCH   7  21
TORSDOF 4
ENDMDL
