MODEL 1
REMARK VINA RESULT:      -9.0      0.000      0.000
REMARK  Name = 
REMARK  5 active torsions:
REMARK  status: ('A' for Active; 'I' for Inactive)
REMARK    1  A    between atoms: C_1  and  O_2
REMARK    2  A    between atoms: O_2  and  C_3
REMARK    3  A    between atoms: C_12  and  C_14
REMARK    4  A    between atoms: C_17  and  C_18
REMARK    5  A    between atoms: C_22  and  C_23
REMARK                            x       y       z     vdW  Elec       q    Type
REMARK                         _______ _______ _______ _____ _____    ______ ____
ROOT
ATOM      1  C   UNL     1       1.751  10.342  19.205  0.00  0.00    +0.000 A 
ATOM      2  C   UNL     1       1.554   9.381  20.199  0.00  0.00    +0.000 A 
ATOM      3  C   UNL     1       1.787   8.028  19.933  0.00  0.00    +0.000 A 
ATOM      4  C   UNL     1       2.145   7.596  18.647  0.00  0.00    +0.000 A 
ATOM      5  C   UNL     1       2.281   8.546  17.630  0.00  0.00    +0.000 A 
ATOM      6  C   UNL     1       2.092   9.910  17.912  0.00  0.00    +0.000 A 
ENDROOT
BRANCH   1  16
ATOM      7  C   UNL     1      -4.995  13.163  23.013  0.00  0.00    +0.000 A 
ATOM      8  C   UNL     1      -5.321  14.488  23.121  0.00  0.00    +0.000 A 
ATOM      9  C   UNL     1      -4.553  15.326  22.360  0.00  0.00    +0.000 A 
ATOM     10  N   UNL     1      -3.549  14.904  21.566  0.00  0.00    +0.000 NA
ATOM     11  C   UNL     1      -3.300  13.586  21.521  0.00  0.00    +0.000 A 
ATOM     12  N   UNL     1      -2.268  13.116  20.754  0.00  0.00    +0.000 N 
ATOM     13  C   UNL     1      -1.393  14.012  19.995  0.00  0.00    +0.000 C 
ATOM     14  C   UNL     1       0.091  13.665  20.259  0.00  0.00    +0.000 C 
ATOM     15  N   UNL     1       0.354  12.218  20.135  0.00  0.00    +0.000 N 
ATOM     16  C   UNL     1       1.477  11.792  19.428  0.00  0.00    +0.000 C 
ATOM     17  O   UNL     1       2.280  12.586  18.937  0.00  0.00    +0.000 OA
ATOM     18  C   UNL     1      -0.526  11.407  20.989  0.00  0.00    +0.000 C 
ATOM     19  C   UNL     1      -2.003  11.682  20.649  0.00  0.00    +0.000 C 
ATOM     20  N   UNL     1      -4.011  12.700  22.227  0.00  0.00    +0.000 NA
BRANCH   7  22
ATOM     21  C   UNL     1      -7.062  12.703  24.002  0.00  0.00    +0.000 C 
ATOM     22  O   UNL     1      -5.719  12.275  23.786  0.00  0.00    +0.000 OA
ENDBRANCH   7  22
ENDBRANCH   1  16
BRANCH   4  23
ATOM     23  C   UNL     1       2.134   6.141  18.407  0.00  0.00    +0.000 C 
ATOM     24  C   UNL     1       3.280   5.583  18.000  0.00  0.00    +0.000 C 
ATOM     25  O   UNL     1       4.483   6.265  18.046  0.00  0.00    +0.000 OA
ATOM     26  C   UNL     1       5.359   5.574  17.257  0.00  0.00    +0.000 A 
ATOM     27  C   UNL     1       6.646   5.983  16.972  0.00  0.00    +0.000 A 
ATOM     28  C   UNL     1       7.374   5.211  16.059  0.00  0.00    +0.000 A 
ATOM     29  C   UNL     1       6.801   4.066  15.463  0.00  0.00    +0.000 A 
ATOM     30  C   UNL     1       5.505   3.645  15.803  0.00  0.00    +0.000 A 
ATOM     31  C   UNL     1       4.811   4.413  16.719  0.00  0.00    +0.000 A 
ATOM     32  C   UNL     1       3.444   4.299  17.252  0.00  0.00    +0.000 C 
ATOM     33  O   UNL     1       2.641   3.415  17.065  0.00  0.00    +0.000 OA
BRANCH  27  34
ATOM     34  C   UNL     1       7.251   7.170  17.619  0.00  0.00    +0.000 C 
ATOM     35  N   UNL     1       8.080   6.962  18.689  0.00  0.00    +0.000 N 
ATOM     36  O   UNL     1       7.037   8.296  17.194  0.00  0.00    +0.000 OA
ATOM     37  H   UNL     1       8.329   6.038  19.030  0.00  0.00    +0.000 HD
ATOM     38  H   UNL     1       8.579   7.748  19.079  0.00  0.00    +0.000 HD
ENDBRANCH  27  34
ENDBRANCH   4  23
TORSDOF 4
ENDMDL
MODEL 2
REMARK VINA RESULT:      -8.8      2.658      3.891
REMARK  Name = 
REMARK  5 active torsions:
REMARK  status: ('A' for Active; 'I' for Inactive)
REMARK    1  A    between atoms: C_1  and  O_2
REMARK    2  A    between atoms: O_2  and  C_3
REMARK    3  A    between atoms: C_12  and  C_14
REMARK    4  A    between atoms: C_17  and  C_18
REMARK    5  A    between atoms: C_22  and  C_23
REMARK                            x       y       z     vdW  Elec       q    Type
REMARK                         _______ _______ _______ _____ _____    ______ ____
ROOT
ATOM      1  C   UNL     1       0.457   9.695  21.200  0.00  0.00    +0.000 A 
ATOM      2  C   UNL     1       0.541  10.359  19.974  0.00  0.00    +0.000 A 
ATOM      3  C   UNL     1       1.226   9.780  18.901  0.00  0.00    +0.000 A 
ATOM      4  C   UNL     1       1.910   8.565  19.051  0.00  0.00    +0.000 A 
ATOM      5  C   UNL     1       1.885   7.927  20.295  0.00  0.00    +0.000 A 
ATOM      6  C   UNL     1       1.156   8.487  21.359  0.00  0.00    +0.000 A 
ENDROOT
BRANCH   1  16
ATOM      7  C   UNL     1      -5.164  15.704  20.677  0.00  0.00    +0.000 A 
ATOM      8  C   UNL     1      -5.713  16.341  21.757  0.00  0.00    +0.000 A 
ATOM      9  C   UNL     1      -5.105  16.063  22.950  0.00  0.00    +0.000 A 
ATOM     10  N   UNL     1      -4.054  15.228  23.076  0.00  0.00    +0.000 NA
ATOM     11  C   UNL     1      -3.581  14.647  21.963  0.00  0.00    +0.000 A 
ATOM     12  N   UNL     1      -2.536  13.766  22.049  0.00  0.00    +0.000 N 
ATOM     13  C   UNL     1      -1.928  13.404  23.330  0.00  0.00    +0.000 C 
ATOM     14  C   UNL     1      -1.806  11.867  23.453  0.00  0.00    +0.000 C 
ATOM     15  N   UNL     1      -1.219  11.258  22.243  0.00  0.00    +0.000 N 
ATOM     16  C   UNL     1      -0.227  10.290  22.387  0.00  0.00    +0.000 C 
ATOM     17  O   UNL     1       0.146   9.895  23.492  0.00  0.00    +0.000 OA
ATOM     18  C   UNL     1      -1.942  11.623  21.016  0.00  0.00    +0.000 C 
ATOM     19  C   UNL     1      -1.970  13.154  20.848  0.00  0.00    +0.000 C 
ATOM     20  N   UNL     1      -4.113  14.875  20.757  0.00  0.00    +0.000 NA
BRANCH   7  22
ATOM     21  C   UNL     1      -6.550  14.819  19.015  0.00  0.00    +0.000 C 
ATOM     22  O   UNL     1      -5.761  15.925  19.450  0.00  0.00    +0.000 OA
ENDBRANCH   7  22
ENDBRANCH   1  16
BRANCH   4  23
ATOM     23  C   UNL     1       2.795   8.158  17.944  0.00  0.00    +0.000 C 
ATOM     24  C   UNL     1       2.931   6.844  17.726  0.00  0.00    +0.000 C 
ATOM     25  O   UNL     1       2.099   5.913  18.321  0.00  0.00    +0.000 OA
ATOM     26  C   UNL     1       2.705   4.697  18.183  0.00  0.00    +0.000 A 
ATOM     27  C   UNL     1       2.230   3.519  18.724  0.00  0.00    +0.000 A 
ATOM     28  C   UNL     1       3.031   2.380  18.578  0.00  0.00    +0.000 A 
ATOM     29  C   UNL     1       4.269   2.450  17.902  0.00  0.00    +0.000 A 
ATOM     30  C   UNL     1       4.709   3.650  17.321  0.00  0.00    +0.000 A 
ATOM     31  C   UNL     1       3.895   4.758  17.464  0.00  0.00    +0.000 A 
ATOM     32  C   UNL     1       4.066   6.156  17.039  0.00  0.00    +0.000 C 
ATOM     33  O   UNL     1       4.949   6.628  16.360  0.00  0.00    +0.000 OA
BRANCH  27  34
ATOM     34  C   UNL     1       0.919   3.445  19.409  0.00  0.00    +0.000 C 
ATOM     35  N   UNL     1       0.689   4.310  20.446  0.00  0.00    +0.000 N 
ATOM     36  O   UNL     1       0.061   2.654  19.042  0.00  0.00    +0.000 OA
ATOM     37  H   UNL     1       1.355   5.021  20.736  0.00  0.00    +0.000 HD
ATOM     38  H   UNL     1      -0.232   4.343  20.858  0.00  0.00    +0.000 HD
ENDBRANCH  27  34
ENDBRANCH   4  23
TORSDOF 4
ENDMDL
MODEL 3
REMARK VINA RESULT:      -8.7      3.138      5.046
REMARK  Name = 
REMARK  5 active torsions:
REMARK  status: ('A' for Active; 'I' for Inactive)
REMARK    1  A    between atoms: C_1  and  O_2
REMARK    2  A    between atoms: O_2  and  C_3
REMARK    3  A    between atoms: C_12  and  C_14
REMARK    4  A    between atoms: C_17  and  C_18
REMARK    5  A    between atoms: C_22  and  C_23
REMARK                            x       y       z     vdW  Elec       q    Type
REMARK                         _______ _______ _______ _____ _____    ______ ____
ROOT
ATOM      1  C   UNL     1       0.462   9.841  19.762  0.00  0.00    +0.000 A 
ATOM      2  C   UNL     1       0.769  10.080  18.421  0.00  0.00    +0.000 A 
ATOM      3  C   UNL     1       1.655   9.241  17.737  0.00  0.00    +0.000 A 
ATOM      4  C   UNL     1       2.314   8.194  18.397  0.00  0.00    +0.000 A 
ATOM      5  C   UNL     1       2.061   7.989  19.757  0.00  0.00    +0.000 A 
ATOM      6  C   UNL     1       1.135   8.804  20.431  0.00  0.00    +0.000 A 
ENDROOT
BRANCH   1  16
ATOM      7  C   UNL     1      -0.855  17.766  17.909  0.00  0.00    +0.000 A 
ATOM      8  C   UNL     1      -1.586  18.626  18.681  0.00  0.00    +0.000 A 
ATOM      9  C   UNL     1      -1.918  18.139  19.916  0.00  0.00    +0.000 A 
ATOM     10  N   UNL     1      -1.569  16.912  20.353  0.00  0.00    +0.000 NA
ATOM     11  C   UNL     1      -0.850  16.136  19.527  0.00  0.00    +0.000 A 
ATOM     12  N   UNL     1      -0.503  14.870  19.917  0.00  0.00    +0.000 N 
ATOM     13  C   UNL     1      -0.917  14.312  21.205  0.00  0.00    +0.000 C 
ATOM     14  C   UNL     1      -1.529  12.905  21.011  0.00  0.00    +0.000 C 
ATOM     15  N   UNL     1      -0.686  12.047  20.155  0.00  0.00    +0.000 N 
ATOM     16  C   UNL     1      -0.444  10.731  20.546  0.00  0.00    +0.000 C 
ATOM     17  O   UNL     1      -0.945  10.249  21.562  0.00  0.00    +0.000 OA
ATOM     18  C   UNL     1      -0.383  12.664  18.855  0.00  0.00    +0.000 C 
ATOM     19  C   UNL     1       0.319  14.020  19.058  0.00  0.00    +0.000 C 
ATOM     20  N   UNL     1      -0.477  16.542  18.309  0.00  0.00    +0.000 NA
BRANCH   7  22
ATOM     21  C   UNL     1       0.870  18.485  16.505  0.00  0.00    +0.000 C 
ATOM     22  O   UNL     1      -0.520  18.196  16.639  0.00  0.00    +0.000 OA
ENDBRANCH   7  22
ENDBRANCH   1  16
BRANCH   4  23
ATOM     23  C   UNL     1       3.400   7.522  17.660  0.00  0.00    +0.000 C 
ATOM     24  C   UNL     1       3.477   6.190  17.770  0.00  0.00    +0.000 C 
ATOM     25  O   UNL     1       2.453   5.441  18.324  0.00  0.00    +0.000 OA
ATOM     26  C   UNL     1       2.973   4.210  18.607  0.00  0.00    +0.000 A 
ATOM     27  C   UNL     1       2.288   3.200  19.252  0.00  0.00    +0.000 A 
ATOM     28  C   UNL     1       3.004   2.037  19.559  0.00  0.00    +0.000 A 
ATOM     29  C   UNL     1       4.369   1.918  19.215  0.00  0.00    +0.000 A 
ATOM     30  C   UNL     1       5.031   2.941  18.519  0.00  0.00    +0.000 A 
ATOM     31  C   UNL     1       4.300   4.074  18.212  0.00  0.00    +0.000 A 
ATOM     32  C   UNL     1       4.682   5.333  17.553  0.00  0.00    +0.000 C 
ATOM     33  O   UNL     1       5.735   5.613  17.030  0.00  0.00    +0.000 OA
BRANCH  27  34
ATOM     34  C   UNL     1       0.851   3.320  19.588  0.00  0.00    +0.000 C 
ATOM     35  N   UNL     1       0.474   4.322  20.443  0.00  0.00    +0.000 N 
ATOM     36  O   UNL     1       0.025   2.563  19.096  0.00  0.00    +0.000 OA
ATOM     37  H   UNL     1       1.124   5.005  20.820  0.00  0.00    +0.000 HD
ATOM     38  H   UNL     1      -0.510   4.480  20.603  0.00  0.00    +0.000 HD
ENDBRANCH  27  34
ENDBRANCH   4  23
TORSDOF 4
ENDMDL
MODEL 4
REMARK VINA RESULT:      -8.6      2.876      4.103
REMARK  Name = 
REMARK  5 active torsions:
REMARK  status: ('A' for Active; 'I' for Inactive)
REMARK    1  A    between atoms: C_1  and  O_2
REMARK    2  A    between atoms: O_2  and  C_3
REMARK    3  A    between atoms: C_12  and  C_14
REMARK    4  A    between atoms: C_17  and  C_18
REMARK    5  A    between atoms: C_22  and  C_23
REMARK                            x       y       z     vdW  Elec       q    Type
REMARK                         _______ _______ _______ _____ _____    ______ ____
ROOT
ATOM      1  C   UNL     1       0.218   9.916  21.355  0.00  0.00    +0.000 A 
ATOM      2  C   UNL     1       0.266  10.502  20.089  0.00  0.00    +0.000 A 
ATOM      3  C   UNL     1       0.899   9.846  19.028  0.00  0.00    +0.000 A 
ATOM      4  C   UNL     1       1.566   8.628  19.227  0.00  0.00    +0.000 A 
ATOM      5  C   UNL     1       1.578   8.067  20.509  0.00  0.00    +0.000 A 
ATOM      6  C   UNL     1       0.901   8.706  21.562  0.00  0.00    +0.000 A 
ENDROOT
BRANCH   1  16
ATOM      7  C   UNL     1      -4.582  16.589  20.720  0.00  0.00    +0.000 A 
ATOM      8  C   UNL     1      -5.067  17.293  21.788  0.00  0.00    +0.000 A 
ATOM      9  C   UNL     1      -4.524  16.943  22.993  0.00  0.00    +0.000 A 
ATOM     10  N   UNL     1      -3.591  15.981  23.141  0.00  0.00    +0.000 NA
ATOM     11  C   UNL     1      -3.172  15.342  22.037  0.00  0.00    +0.000 A 
ATOM     12  N   UNL     1      -2.250  14.336  22.144  0.00  0.00    +0.000 N 
ATOM     13  C   UNL     1      -1.719  13.903  23.437  0.00  0.00    +0.000 C 
ATOM     14  C   UNL     1      -1.796  12.363  23.562  0.00  0.00    +0.000 C 
ATOM     15  N   UNL     1      -1.266  11.682  22.365  0.00  0.00    +0.000 N 
ATOM     16  C   UNL     1      -0.409  10.596  22.528  0.00  0.00    +0.000 C 
ATOM     17  O   UNL     1      -0.111  10.159  23.640  0.00  0.00    +0.000 OA
ATOM     18  C   UNL     1      -1.912  12.133  21.123  0.00  0.00    +0.000 C 
ATOM     19  C   UNL     1      -1.742  13.655  20.954  0.00  0.00    +0.000 C 
ATOM     20  N   UNL     1      -3.646  15.633  20.820  0.00  0.00    +0.000 NA
BRANCH   7  22
ATOM     21  C   UNL     1      -4.984  18.257  19.132  0.00  0.00    +0.000 C 
ATOM     22  O   UNL     1      -5.121  16.881  19.481  0.00  0.00    +0.000 OA
ENDBRANCH   7  22
ENDBRANCH   1  16
BRANCH   4  23
ATOM     23  C   UNL     1       2.401   8.137  18.115  0.00  0.00    +0.000 C 
ATOM     24  C   UNL     1       2.798   6.859  18.170  0.00  0.00    +0.000 C 
ATOM     25  O   UNL     1       2.253   5.962  19.072  0.00  0.00    +0.000 OA
ATOM     26  C   UNL     1       3.093   4.886  19.113  0.00  0.00    +0.000 A 
ATOM     27  C   UNL     1       2.944   3.808  19.964  0.00  0.00    +0.000 A 
ATOM     28  C   UNL     1       3.955   2.839  19.950  0.00  0.00    +0.000 A 
ATOM     29  C   UNL     1       5.072   2.974  19.097  0.00  0.00    +0.000 A 
ATOM     30  C   UNL     1       5.178   4.056  18.208  0.00  0.00    +0.000 A 
ATOM     31  C   UNL     1       4.161   4.992  18.228  0.00  0.00    +0.000 A 
ATOM     32  C   UNL     1       3.979   6.250  17.487  0.00  0.00    +0.000 C 
ATOM     33  O   UNL     1       4.662   6.699  16.596  0.00  0.00    +0.000 OA
BRANCH  27  34
ATOM     34  C   UNL     1       1.758   3.659  20.837  0.00  0.00    +0.000 C 
ATOM     35  N   UNL     1       0.521   3.782  20.263  0.00  0.00    +0.000 N 
ATOM     36  O   UNL     1       1.881   3.410  22.029  0.00  0.00    +0.000 OA
ATOM     37  H   UNL     1       0.381   3.927  19.268  0.00  0.00    +0.000 HD
ATOM     38  H   UNL     1      -0.297   3.586  20.822  0.00  0.00    +0.000 HD
ENDBRANCH  27  34
ENDBRANCH   4  23
TORSDOF 4
ENDMDL
MODEL 5
REMARK VINA RESULT:      -8.6      2.967      4.517
REMARK  Name = 
REMARK  5 active torsions:
REMARK  status: ('A' for Active; 'I' for Inactive)
REMARK    1  A    between atoms: C_1  and  O_2
REMARK    2  A    between atoms: O_2  and  C_3
REMARK    3  A    between atoms: C_12  and  C_14
REMARK    4  A    between atoms: C_17  and  C_18
REMARK    5  A    between atoms: C_22  and  C_23
REMARK                            x       y       z     vdW  Elec       q    Type
REMARK                         _______ _______ _______ _____ _____    ______ ____
ROOT
ATOM      1  C   UNL     1       0.372   9.555  20.630  0.00  0.00    +0.000 A 
ATOM      2  C   UNL     1       0.447   9.992  19.306  0.00  0.00    +0.000 A 
ATOM      3  C   UNL     1       1.235   9.306  18.376  0.00  0.00    +0.000 A 
ATOM      4  C   UNL     1       2.028   8.217  18.766  0.00  0.00    +0.000 A 
ATOM      5  C   UNL     1       2.010   7.814  20.105  0.00  0.00    +0.000 A 
ATOM      6  C   UNL     1       1.180   8.476  21.027  0.00  0.00    +0.000 A 
ENDROOT
BRANCH   1  16
ATOM      7  C   UNL     1      -1.869  17.461  19.962  0.00  0.00    +0.000 A 
ATOM      8  C   UNL     1      -2.492  18.170  20.952  0.00  0.00    +0.000 A 
ATOM      9  C   UNL     1      -2.534  17.539  22.164  0.00  0.00    +0.000 A 
ATOM     10  N   UNL     1      -2.015  16.315  22.387  0.00  0.00    +0.000 NA
ATOM     11  C   UNL     1      -1.420  15.691  21.357  0.00  0.00    +0.000 A 
ATOM     12  N   UNL     1      -0.910  14.433  21.529  0.00  0.00    +0.000 N 
ATOM     13  C   UNL     1      -1.016  13.718  22.802  0.00  0.00    +0.000 C 
ATOM     14  C   UNL     1      -1.548  12.285  22.571  0.00  0.00    +0.000 C 
ATOM     15  N   UNL     1      -0.833  11.595  21.480  0.00  0.00    +0.000 N 
ATOM     16  C   UNL     1      -0.422  10.277  21.668  0.00  0.00    +0.000 C 
ATOM     17  O   UNL     1      -0.672   9.655  22.700  0.00  0.00    +0.000 OA
ATOM     18  C   UNL     1      -0.843  12.359  20.224  0.00  0.00    +0.000 C 
ATOM     19  C   UNL     1      -0.216  13.749  20.439  0.00  0.00    +0.000 C 
ATOM     20  N   UNL     1      -1.330  16.246  20.143  0.00  0.00    +0.000 NA
BRANCH   7  22
ATOM     21  C   UNL     1      -0.791  17.502  17.888  0.00  0.00    +0.000 C 
ATOM     22  O   UNL     1      -1.827  18.039  18.708  0.00  0.00    +0.000 OA
ENDBRANCH   7  22
ENDBRANCH   1  16
BRANCH   4  23
ATOM     23  C   UNL     1       3.000   7.714  17.778  0.00  0.00    +0.000 C 
ATOM     24  C   UNL     1       3.117   6.385  17.661  0.00  0.00    +0.000 C 
ATOM     25  O   UNL     1       2.204   5.517  18.234  0.00  0.00    +0.000 OA
ATOM     26  C   UNL     1       2.784   4.280  18.235  0.00  0.00    +0.000 A 
ATOM     27  C   UNL     1       2.225   3.154  18.805  0.00  0.00    +0.000 A 
ATOM     28  C   UNL     1       3.001   1.989  18.811  0.00  0.00    +0.000 A 
ATOM     29  C   UNL     1       4.298   1.983  18.253  0.00  0.00    +0.000 A 
ATOM     30  C   UNL     1       4.827   3.129  17.639  0.00  0.00    +0.000 A 
ATOM     31  C   UNL     1       4.037   4.263  17.630  0.00  0.00    +0.000 A 
ATOM     32  C   UNL     1       4.289   5.625  17.132  0.00  0.00    +0.000 C 
ATOM     33  O   UNL     1       5.245   6.027  16.510  0.00  0.00    +0.000 OA
BRANCH  27  34
ATOM     34  C   UNL     1       0.854   3.159  19.365  0.00  0.00    +0.000 C 
ATOM     35  N   UNL     1       0.610   3.956  20.453  0.00  0.00    +0.000 N 
ATOM     36  O   UNL     1      -0.036   2.492  18.857  0.00  0.00    +0.000 OA
ATOM     37  H   UNL     1       1.309   4.569  20.862  0.00  0.00    +0.000 HD
ATOM     38  H   UNL     1      -0.338   4.048  20.786  0.00  0.00    +0.000 HD
ENDBRANCH  27  34
ENDBRANCH   4  23
TORSDOF 4
ENDMDL
MODEL 6
REMARK VINA RESULT:      -8.3      2.719      3.898
REMARK  Name = 
REMARK  5 active torsions:
REMARK  status: ('A' for Active; 'I' for Inactive)
REMARK    1  A    between atoms: C_1  and  O_2
REMARK    2  A    between atoms: O_2  and  C_3
REMARK    3  A    between atoms: C_12  and  C_14
REMARK    4  A    between atoms: C_17  and  C_18
REMARK    5  A    between atoms: C_22  and  C_23
REMARK                            x       y       z     vdW  Elec       q    Type
REMARK                         _______ _______ _______ _____ _____    ______ ____
ROOT
ATOM      1  C   UNL     1       0.866   9.527  20.527  0.00  0.00    +0.000 A 
ATOM      2  C   UNL     1       1.065  10.057  19.250  0.00  0.00    +0.000 A 
ATOM      3  C   UNL     1       1.746   9.319  18.276  0.00  0.00    +0.000 A 
ATOM      4  C   UNL     1       2.313   8.073  18.579  0.00  0.00    +0.000 A 
ATOM      5  C   UNL     1       2.174   7.565  19.875  0.00  0.00    +0.000 A 
ATOM      6  C   UNL     1       1.449   8.287  20.838  0.00  0.00    +0.000 A 
ENDROOT
BRANCH   1  16
ATOM      7  C   UNL     1      -6.120  13.759  19.409  0.00  0.00    +0.000 A 
ATOM      8  C   UNL     1      -6.696  14.559  20.357  0.00  0.00    +0.000 A 
ATOM      9  C   UNL     1      -5.916  14.789  21.457  0.00  0.00    +0.000 A 
ATOM     10  N   UNL     1      -4.680  14.274  21.616  0.00  0.00    +0.000 NA
ATOM     11  C   UNL     1      -4.194  13.500  20.633  0.00  0.00    +0.000 A 
ATOM     12  N   UNL     1      -2.957  12.929  20.767  0.00  0.00    +0.000 N 
ATOM     13  C   UNL     1      -2.145  13.108  21.972  0.00  0.00    +0.000 C 
ATOM     14  C   UNL     1      -1.624  11.742  22.477  0.00  0.00    +0.000 C 
ATOM     15  N   UNL     1      -1.032  10.937  21.391  0.00  0.00    +0.000 N 
ATOM     16  C   UNL     1       0.183  10.291  21.613  0.00  0.00    +0.000 C 
ATOM     17  O   UNL     1       0.758  10.336  22.700  0.00  0.00    +0.000 OA
ATOM     18  C   UNL     1      -1.949  10.753  20.257  0.00  0.00    +0.000 C 
ATOM     19  C   UNL     1      -2.383  12.120  19.694  0.00  0.00    +0.000 C 
ATOM     20  N   UNL     1      -4.890  13.236  19.522  0.00  0.00    +0.000 NA
BRANCH   7  22
ATOM     21  C   UNL     1      -6.157  12.719  17.315  0.00  0.00    +0.000 C 
ATOM     22  O   UNL     1      -6.879  13.468  18.291  0.00  0.00    +0.000 OA
ENDBRANCH   7  22
ENDBRANCH   1  16
BRANCH   4  23
ATOM     23  C   UNL     1       3.210   7.486  17.566  0.00  0.00    +0.000 C 
ATOM     24  C   UNL     1       3.233   6.151  17.473  0.00  0.00    +0.000 C 
ATOM     25  O   UNL     1       2.287   5.357  18.099  0.00  0.00    +0.000 OA
ATOM     26  C   UNL     1       2.782   4.084  18.106  0.00  0.00    +0.000 A 
ATOM     27  C   UNL     1       2.171   3.010  18.721  0.00  0.00    +0.000 A 
ATOM     28  C   UNL     1       2.867   1.795  18.723  0.00  0.00    +0.000 A 
ATOM     29  C   UNL     1       4.139   1.690  18.118  0.00  0.00    +0.000 A 
ATOM     30  C   UNL     1       4.719   2.786  17.459  0.00  0.00    +0.000 A 
ATOM     31  C   UNL     1       4.007   3.971  17.455  0.00  0.00    +0.000 A 
ATOM     32  C   UNL     1       4.330   5.302  16.918  0.00  0.00    +0.000 C 
ATOM     33  O   UNL     1       5.286   5.627  16.252  0.00  0.00    +0.000 OA
BRANCH  27  34
ATOM     34  C   UNL     1       0.827   3.119  19.332  0.00  0.00    +0.000 C 
ATOM     35  N   UNL     1       0.662   4.009  20.360  0.00  0.00    +0.000 N 
ATOM     36  O   UNL     1      -0.110   2.452  18.914  0.00  0.00    +0.000 OA
ATOM     37  H   UNL     1       1.401   4.622  20.690  0.00  0.00    +0.000 HD
ATOM     38  H   UNL     1      -0.268   4.168  20.721  0.00  0.00    +0.000 HD
ENDBRANCH  27  34
ENDBRANCH   4  23
TORSDOF 4
ENDMDL
MODEL 7
REMARK VINA RESULT:      -8.3      2.808      3.994
REMARK  Name = 
REMARK  5 active torsions:
REMARK  status: ('A' for Active; 'I' for Inactive)
REMARK    1  A    between atoms: C_1  and  O_2
REMARK    2  A    between atoms: O_2  and  C_3
REMARK    3  A    between atoms: C_12  and  C_14
REMARK    4  A    between atoms: C_17  and  C_18
REMARK    5  A    between atoms: C_22  and  C_23
REMARK                            x       y       z     vdW  Elec       q    Type
REMARK                         _______ _______ _______ _____ _____    ______ ____
ROOT
ATOM      1  C   UNL     1       0.023  10.106  21.184  0.00  0.00    +0.000 A 
ATOM      2  C   UNL     1       0.005  10.571  19.867  0.00  0.00    +0.000 A 
ATOM      3  C   UNL     1       0.693   9.882  18.863  0.00  0.00    +0.000 A 
ATOM      4  C   UNL     1       1.480   8.760  19.166  0.00  0.00    +0.000 A 
ATOM      5  C   UNL     1       1.555   8.328  20.493  0.00  0.00    +0.000 A 
ATOM      6  C   UNL     1       0.825   8.994  21.493  0.00  0.00    +0.000 A 
ENDROOT
BRANCH   1  16
ATOM      7  C   UNL     1      -6.344  15.221  20.055  0.00  0.00    +0.000 A 
ATOM      8  C   UNL     1      -6.905  15.981  21.044  0.00  0.00    +0.000 A 
ATOM      9  C   UNL     1      -6.199  16.003  22.215  0.00  0.00    +0.000 A 
ATOM     10  N   UNL     1      -5.044  15.333  22.402  0.00  0.00    +0.000 NA
ATOM     11  C   UNL     1      -4.565  14.613  21.376  0.00  0.00    +0.000 A 
ATOM     12  N   UNL     1      -3.413  13.890  21.532  0.00  0.00    +0.000 N 
ATOM     13  C   UNL     1      -2.690  13.847  22.804  0.00  0.00    +0.000 C 
ATOM     14  C   UNL     1      -2.364  12.385  23.189  0.00  0.00    +0.000 C 
ATOM     15  N   UNL     1      -1.776  11.633  22.064  0.00  0.00    +0.000 N 
ATOM     16  C   UNL     1      -0.661  10.829  22.297  0.00  0.00    +0.000 C 
ATOM     17  O   UNL     1      -0.176  10.693  23.420  0.00  0.00    +0.000 OA
ATOM     18  C   UNL     1      -2.610  11.676  20.854  0.00  0.00    +0.000 C 
ATOM     19  C   UNL     1      -2.844  13.134  20.418  0.00  0.00    +0.000 C 
ATOM     20  N   UNL     1      -5.191  14.549  20.195  0.00  0.00    +0.000 NA
BRANCH   7  22
ATOM     21  C   UNL     1      -6.541  14.105  18.010  0.00  0.00    +0.000 C 
ATOM     22  O   UNL     1      -7.034  15.139  18.860  0.00  0.00    +0.000 OA
ENDBRANCH   7  22
ENDBRANCH   1  16
BRANCH   4  23
ATOM     23  C   UNL     1       2.352   8.250  18.092  0.00  0.00    +0.000 C 
ATOM     24  C   UNL     1       2.762   6.980  18.193  0.00  0.00    +0.000 C 
ATOM     25  O   UNL     1       2.203   6.100  19.104  0.00  0.00    +0.000 OA
ATOM     26  C   UNL     1       3.055   5.036  19.198  0.00  0.00    +0.000 A 
ATOM     27  C   UNL     1       2.894   3.981  20.073  0.00  0.00    +0.000 A 
ATOM     28  C   UNL     1       3.917   3.025  20.115  0.00  0.00    +0.000 A 
ATOM     29  C   UNL     1       5.056   3.151  19.291  0.00  0.00    +0.000 A 
ATOM     30  C   UNL     1       5.175   4.210  18.377  0.00  0.00    +0.000 A 
ATOM     31  C   UNL     1       4.147   5.132  18.341  0.00  0.00    +0.000 A 
ATOM     32  C   UNL     1       3.970   6.368  17.561  0.00  0.00    +0.000 C 
ATOM     33  O   UNL     1       4.674   6.801  16.678  0.00  0.00    +0.000 OA
BRANCH  27  34
ATOM     34  C   UNL     1       1.685   3.840  20.916  0.00  0.00    +0.000 C 
ATOM     35  N   UNL     1       0.498   4.303  20.414  0.00  0.00    +0.000 N 
ATOM     36  O   UNL     1       1.743   3.305  22.015  0.00  0.00    +0.000 OA
ATOM     37  H   UNL     1       0.403   4.695  19.483  0.00  0.00    +0.000 HD
ATOM     38  H   UNL     1      -0.351   4.126  20.931  0.00  0.00    +0.000 HD
ENDBRANCH  27  34
ENDBRANCH   4  23
TORSDOF 4
ENDMDL
MODEL 8
REMARK VINA RESULT:      -8.3      2.684     11.609
REMARK  Name = 
REMARK  5 active torsions:
REMARK  status: ('A' for Active; 'I' for Inactive)
REMARK    1  A    between atoms: C_1  and  O_2
REMARK    2  A    between atoms: O_2  and  C_3
REMARK    3  A    between atoms: C_12  and  C_14
REMARK    4  A    between atoms: C_17  and  C_18
REMARK    5  A    between atoms: C_22  and  C_23
REMARK                            x       y       z     vdW  Elec       q    Type
REMARK                         _______ _______ _______ _____ _____    ______ ____
ROOT
ATOM      1  C   UNL     1       0.275  10.907  20.066  0.00  0.00    +0.000 A 
ATOM      2  C   UNL     1       0.346  10.329  21.335  0.00  0.00    +0.000 A 
ATOM      3  C   UNL     1      -0.406  10.848  22.393  0.00  0.00    +0.000 A 
ATOM      4  C   UNL     1      -1.183  12.004  22.228  0.00  0.00    +0.000 A 
ATOM      5  C   UNL     1      -1.208  12.627  20.976  0.00  0.00    +0.000 A 
ATOM      6  C   UNL     1      -0.488  12.075  19.902  0.00  0.00    +0.000 A 
ENDROOT
BRANCH   1  16
ATOM      7  C   UNL     1       2.805   3.099  19.289  0.00  0.00    +0.000 A 
ATOM      8  C   UNL     1       3.649   2.657  18.307  0.00  0.00    +0.000 A 
ATOM      9  C   UNL     1       4.230   3.650  17.568  0.00  0.00    +0.000 A 
ATOM     10  N   UNL     1       4.001   4.963  17.770  0.00  0.00    +0.000 NA
ATOM     11  C   UNL     1       3.158   5.306  18.757  0.00  0.00    +0.000 A 
ATOM     12  N   UNL     1       2.870   6.626  18.976  0.00  0.00    +0.000 N 
ATOM     13  C   UNL     1       3.428   7.691  18.142  0.00  0.00    +0.000 C 
ATOM     14  C   UNL     1       2.309   8.654  17.679  0.00  0.00    +0.000 C 
ATOM     15  N   UNL     1       1.438   9.071  18.794  0.00  0.00    +0.000 N 
ATOM     16  C   UNL     1       1.090  10.415  18.915  0.00  0.00    +0.000 C 
ATOM     17  O   UNL     1       1.452  11.260  18.096  0.00  0.00    +0.000 OA
ATOM     18  C   UNL     1       0.868   7.930  19.526  0.00  0.00    +0.000 C 
ATOM     19  C   UNL     1       1.993   7.031  20.073  0.00  0.00    +0.000 C 
ATOM     20  N   UNL     1       2.557   4.395  19.531  0.00  0.00    +0.000 NA
BRANCH   7  22
ATOM     21  C   UNL     1       1.458   2.686  21.155  0.00  0.00    +0.000 C 
ATOM     22  O   UNL     1       2.166   2.135  20.046  0.00  0.00    +0.000 OA
ENDBRANCH   7  22
ENDBRANCH   1  16
BRANCH   4  23
ATOM     23  C   UNL     1      -1.745  12.609  23.450  0.00  0.00    +0.000 C 
ATOM     24  C   UNL     1      -3.061  12.850  23.460  0.00  0.00    +0.000 C 
ATOM     25  O   UNL     1      -3.908  12.331  22.497  0.00  0.00    +0.000 OA
ATOM     26  C   UNL     1      -5.078  13.031  22.582  0.00  0.00    +0.000 A 
ATOM     27  C   UNL     1      -6.150  12.871  21.727  0.00  0.00    +0.000 A 
ATOM     28  C   UNL     1      -7.233  13.744  21.890  0.00  0.00    +0.000 A 
ATOM     29  C   UNL     1      -7.213  14.739  22.891  0.00  0.00    +0.000 A 
ATOM     30  C   UNL     1      -6.131  14.852  23.778  0.00  0.00    +0.000 A 
ATOM     31  C   UNL     1      -5.080  13.970  23.609  0.00  0.00    +0.000 A 
ATOM     32  C   UNL     1      -3.792  13.841  24.308  0.00  0.00    +0.000 C 
ATOM     33  O   UNL     1      -3.407  14.444  25.283  0.00  0.00    +0.000 OA
BRANCH  27  34
ATOM     34  C   UNL     1      -6.177  11.809  20.695  0.00  0.00    +0.000 C 
ATOM     35  N   UNL     1      -5.370  11.962  19.599  0.00  0.00    +0.000 N 
ATOM     36  O   UNL     1      -6.878  10.816  20.832  0.00  0.00    +0.000 OA
ATOM     37  H   UNL     1      -4.730  12.742  19.483  0.00  0.00    +0.000 HD
ATOM     38  H   UNL     1      -5.300  11.203  18.937  0.00  0.00    +0.000 HD
ENDBRANCH  27  34
ENDBRANCH   4  23
TORSDOF 4
ENDMDL
MODEL 9
REMARK VINA RESULT:      -8.3      2.997     11.617
REMARK  Name = 
REMARK  5 active torsions:
REMARK  status: ('A' for Active; 'I' for Inactive)
REMARK    1  A    between atoms: C_1  and  O_2
REMARK    2  A    between atoms: O_2  and  C_3
REMARK    3  A    between atoms: C_12  and  C_14
REMARK    4  A    between atoms: C_17  and  C_18
REMARK    5  A    between atoms: C_22  and  C_23
REMARK                            x       y       z     vdW  Elec       q    Type
REMARK                         _______ _______ _______ _____ _____    ______ ____
ROOT
ATOM      1  C   UNL     1      -0.002  12.420  20.532  0.00  0.00    +0.000 A 
ATOM      2  C   UNL     1      -0.220  13.799  20.569  0.00  0.00    +0.000 A 
ATOM      3  C   UNL     1      -0.698  14.410  21.732  0.00  0.00    +0.000 A 
ATOM      4  C   UNL     1      -1.044  13.648  22.858  0.00  0.00    +0.000 A 
ATOM      5  C   UNL     1      -0.890  12.259  22.806  0.00  0.00    +0.000 A 
ATOM      6  C   UNL     1      -0.366  11.652  21.652  0.00  0.00    +0.000 A 
ENDROOT
BRANCH   1  16
ATOM      7  C   UNL     1       1.908   4.402  20.322  0.00  0.00    +0.000 A 
ATOM      8  C   UNL     1       2.451   3.768  19.238  0.00  0.00    +0.000 A 
ATOM      9  C   UNL     1       2.864   4.605  18.238  0.00  0.00    +0.000 A 
ATOM     10  N   UNL     1       2.750   5.947  18.293  0.00  0.00    +0.000 NA
ATOM     11  C   UNL     1       2.205   6.484  19.397  0.00  0.00    +0.000 A 
ATOM     12  N   UNL     1       2.039   7.840  19.481  0.00  0.00    +0.000 N 
ATOM     13  C   UNL     1       2.408   8.738  18.385  0.00  0.00    +0.000 C 
ATOM     14  C   UNL     1       1.250   9.715  18.077  0.00  0.00    +0.000 C 
ATOM     15  N   UNL     1       0.715  10.345  19.299  0.00  0.00    +0.000 N 
ATOM     16  C   UNL     1       0.467  11.716  19.302  0.00  0.00    +0.000 C 
ATOM     17  O   UNL     1       0.641  12.413  18.302  0.00  0.00    +0.000 OA
ATOM     18  C   UNL     1       0.305   9.360  20.312  0.00  0.00    +0.000 C 
ATOM     19  C   UNL     1       1.493   8.455  20.689  0.00  0.00    +0.000 C 
ATOM     20  N   UNL     1       1.786   5.735  20.423  0.00  0.00    +0.000 NA
BRANCH   7  22
ATOM     21  C   UNL     1       2.374   2.582  21.714  0.00  0.00    +0.000 C 
ATOM     22  O   UNL     1       1.445   3.601  21.349  0.00  0.00    +0.000 OA
ENDBRANCH   7  22
ENDBRANCH   1  16
BRANCH   4  23
ATOM     23  C   UNL     1      -1.759  14.349  23.941  0.00  0.00    +0.000 C 
ATOM     24  C   UNL     1      -3.094  14.394  23.860  0.00  0.00    +0.000 C 
ATOM     25  O   UNL     1      -3.799  13.613  22.961  0.00  0.00    +0.000 OA
ATOM     26  C   UNL     1      -5.058  14.139  22.885  0.00  0.00    +0.000 A 
ATOM     27  C   UNL     1      -6.042  13.693  22.025  0.00  0.00    +0.000 A 
ATOM     28  C   UNL     1      -7.242  14.413  22.000  0.00  0.00    +0.000 A 
ATOM     29  C   UNL     1      -7.422  15.545  22.825  0.00  0.00    +0.000 A 
ATOM     30  C   UNL     1      -6.423  15.952  23.724  0.00  0.00    +0.000 A 
ATOM     31  C   UNL     1      -5.253  15.217  23.743  0.00  0.00    +0.000 A 
ATOM     32  C   UNL     1      -4.005  15.388  24.504  0.00  0.00    +0.000 C 
ATOM     33  O   UNL     1      -3.769  16.185  25.382  0.00  0.00    +0.000 OA
BRANCH  27  34
ATOM     34  C   UNL     1      -5.857  12.491  21.181  0.00  0.00    +0.000 C 
ATOM     35  N   UNL     1      -4.848  12.508  20.255  0.00  0.00    +0.000 N 
ATOM     36  O   UNL     1      -6.567  11.505  21.326  0.00  0.00    +0.000 OA
ATOM     37  H   UNL     1      -4.202  13.284  20.151  0.00  0.00    +0.000 HD
ATOM     38  H   UNL     1      -4.645  11.663  19.741  0.00  0.00    +0.000 HD
ENDBRANCH  27  34
ENDBRANCH   4  23
TORSDOF 4
ENDMDL
