MODEL 1
REMARK VINA RESULT:      -7.8      0.000      0.000
REMARK  Name = 
REMARK  4 active torsions:
REMARK  status: ('A' for Active; 'I' for Inactive)
REMARK    1  A    between atoms: C_1  and  C_2
REMARK    2  A    between atoms: N_9  and  C_10
REMARK    3  A    between atoms: C_10  and  C_11
REMARK    4  A    between atoms: C_11  and  C_12
REMARK                            x       y       z     vdW  Elec       q    Type
REMARK                         _______ _______ _______ _____ _____    ______ ____
ROOT
ATOM      1  C   UNL     1       2.657   7.430  17.875  0.00  0.00    +0.000 C 
ATOM      2  C   UNL     1       3.188   6.159  18.478  0.00  0.00    +0.000 A 
ATOM      3  C   UNL     1       2.315   5.320  19.192  0.00  0.00    +0.000 A 
ATOM      4  C   UNL     1       2.756   4.103  19.710  0.00  0.00    +0.000 A 
ATOM      5  C   UNL     1       4.064   3.686  19.481  0.00  0.00    +0.000 A 
ATOM      6  C   UNL     1       4.928   4.511  18.765  0.00  0.00    +0.000 A 
ATOM      7  C   UNL     1       4.530   5.771  18.314  0.00  0.00    +0.000 A 
ATOM      8  C   UNL     1       5.549   6.601  17.583  0.00  0.00    +0.000 C 
ATOM      9  N   UNL     1       6.929   6.178  17.809  0.00  0.00    +0.000 N 
ATOM     10  C   UNL     1       7.213   4.837  17.992  0.00  0.00    +0.000 C 
ATOM     11  O   UNL     1       8.319   4.325  17.847  0.00  0.00    +0.000 OA
ATOM     12  N   UNL     1       6.199   4.060  18.458  0.00  0.00    +0.000 N 
ATOM     13  H   UNL     1       6.484   3.120  18.706  0.00  0.00    +0.000 HD
ENDROOT
BRANCH   9  14
ATOM     14  C   UNL     1       7.926   7.196  18.163  0.00  0.00    +0.000 C 
BRANCH  14  15
ATOM     15  C   UNL     1       7.799   8.554  17.460  0.00  0.00    +0.000 C 
BRANCH  15  16
ATOM     16  C   UNL     1       8.496   9.680  18.185  0.00  0.00    +0.000 A 
ATOM     17  C   UNL     1       8.523  10.964  17.616  0.00  0.00    +0.000 A 
ATOM     18  C   UNL     1       9.090  12.035  18.306  0.00  0.00    +0.000 A 
ATOM     19  C   UNL     1       9.647  11.831  19.565  0.00  0.00    +0.000 A 
ATOM     20  C   UNL     1       9.645  10.556  20.131  0.00  0.00    +0.000 A 
ATOM     21  C   UNL     1       9.074   9.482  19.443  0.00  0.00    +0.000 A 
ENDBRANCH  15  16
ENDBRANCH  14  15
ENDBRANCH   9  14
TORSDOF 3
ENDMDL
MODEL 2
REMARK VINA RESULT:      -7.7      3.830      5.878
REMARK  Name = 
REMARK  4 active torsions:
REMARK  status: ('A' for Active; 'I' for Inactive)
REMARK    1  A    between atoms: C_1  and  C_2
REMARK    2  A    between atoms: N_9  and  C_10
REMARK    3  A    between atoms: C_10  and  C_11
REMARK    4  A    between atoms: C_11  and  C_12
REMARK                            x       y       z     vdW  Elec       q    Type
REMARK                         _______ _______ _______ _____ _____    ______ ____
ROOT
ATOM      1  C   UNL     1       7.259   5.609  19.198  0.00  0.00    +0.000 C 
ATOM      2  C   UNL     1       6.532   5.243  17.933  0.00  0.00    +0.000 A 
ATOM      3  C   UNL     1       7.152   5.472  16.693  0.00  0.00    +0.000 A 
ATOM      4  C   UNL     1       6.536   5.088  15.503  0.00  0.00    +0.000 A 
ATOM      5  C   UNL     1       5.314   4.424  15.539  0.00  0.00    +0.000 A 
ATOM      6  C   UNL     1       4.702   4.186  16.767  0.00  0.00    +0.000 A 
ATOM      7  C   UNL     1       5.261   4.641  17.963  0.00  0.00    +0.000 A 
ATOM      8  C   UNL     1       4.504   4.366  19.232  0.00  0.00    +0.000 C 
ATOM      9  N   UNL     1       3.094   4.046  19.023  0.00  0.00    +0.000 N 
ATOM     10  C   UNL     1       2.710   3.352  17.891  0.00  0.00    +0.000 C 
ATOM     11  O   UNL     1       1.655   2.736  17.765  0.00  0.00    +0.000 OA
ATOM     12  N   UNL     1       3.532   3.448  16.812  0.00  0.00    +0.000 N 
ATOM     13  H   UNL     1       3.150   3.041  15.968  0.00  0.00    +0.000 HD
ENDROOT
BRANCH   9  14
ATOM     14  C   UNL     1       2.088   4.741  19.837  0.00  0.00    +0.000 C 
BRANCH  14  15
ATOM     15  C   UNL     1       2.527   6.056  20.495  0.00  0.00    +0.000 C 
BRANCH  15  16
ATOM     16  C   UNL     1       2.137   7.286  19.711  0.00  0.00    +0.000 A 
ATOM     17  C   UNL     1       1.372   8.290  20.326  0.00  0.00    +0.000 A 
ATOM     18  C   UNL     1       1.069   9.469  19.647  0.00  0.00    +0.000 A 
ATOM     19  C   UNL     1       1.517   9.651  18.341  0.00  0.00    +0.000 A 
ATOM     20  C   UNL     1       2.258   8.651  17.712  0.00  0.00    +0.000 A 
ATOM     21  C   UNL     1       2.566   7.470  18.393  0.00  0.00    +0.000 A 
ENDBRANCH  15  16
ENDBRANCH  14  15
ENDBRANCH   9  14
TORSDOF 3
ENDMDL
MODEL 3
REMARK VINA RESULT:      -7.7      3.882      5.900
REMARK  Name = 
REMARK  4 active torsions:
REMARK  status: ('A' for Active; 'I' for Inactive)
REMARK    1  A    between atoms: C_1  and  C_2
REMARK    2  A    between atoms: N_9  and  C_10
REMARK    3  A    between atoms: C_10  and  C_11
REMARK    4  A    between atoms: C_11  and  C_12
REMARK                            x       y       z     vdW  Elec       q    Type
REMARK                         _______ _______ _______ _____ _____    ______ ____
ROOT
ATOM      1  C   UNL     1       7.277   5.538  19.353  0.00  0.00    +0.000 C 
ATOM      2  C   UNL     1       6.669   5.053  18.066  0.00  0.00    +0.000 A 
ATOM      3  C   UNL     1       7.424   5.116  16.883  0.00  0.00    +0.000 A 
ATOM      4  C   UNL     1       6.918   4.617  15.683  0.00  0.00    +0.000 A 
ATOM      5  C   UNL     1       5.669   4.005  15.660  0.00  0.00    +0.000 A 
ATOM      6  C   UNL     1       4.922   3.933  16.832  0.00  0.00    +0.000 A 
ATOM      7  C   UNL     1       5.374   4.503  18.024  0.00  0.00    +0.000 A 
ATOM      8  C   UNL     1       4.477   4.404  19.226  0.00  0.00    +0.000 C 
ATOM      9  N   UNL     1       3.083   4.111  18.902  0.00  0.00    +0.000 N 
ATOM     10  C   UNL     1       2.787   3.304  17.820  0.00  0.00    +0.000 C 
ATOM     11  O   UNL     1       1.723   2.715  17.650  0.00  0.00    +0.000 OA
ATOM     12  N   UNL     1       3.721   3.246  16.833  0.00  0.00    +0.000 N 
ATOM     13  H   UNL     1       3.409   2.757  16.002  0.00  0.00    +0.000 HD
ENDROOT
BRANCH   9  14
ATOM     14  C   UNL     1       2.032   4.931  19.519  0.00  0.00    +0.000 C 
BRANCH  14  15
ATOM     15  C   UNL     1       2.496   6.165  20.304  0.00  0.00    +0.000 C 
BRANCH  15  16
ATOM     16  C   UNL     1       2.066   7.474  19.686  0.00  0.00    +0.000 A 
ATOM     17  C   UNL     1       2.381   7.747  18.345  0.00  0.00    +0.000 A 
ATOM     18  C   UNL     1       1.926   8.912  17.732  0.00  0.00    +0.000 A 
ATOM     19  C   UNL     1       1.160   9.823  18.456  0.00  0.00    +0.000 A 
ATOM     20  C   UNL     1       0.860   9.572  19.794  0.00  0.00    +0.000 A 
ATOM     21  C   UNL     1       1.312   8.403  20.410  0.00  0.00    +0.000 A 
ENDBRANCH  15  16
ENDBRANCH  14  15
ENDBRANCH   9  14
TORSDOF 3
ENDMDL
MODEL 4
REMARK VINA RESULT:      -7.7      4.463      5.969
REMARK  Name = 
REMARK  4 active torsions:
REMARK  status: ('A' for Active; 'I' for Inactive)
REMARK    1  A    between atoms: C_1  and  C_2
REMARK    2  A    between atoms: N_9  and  C_10
REMARK    3  A    between atoms: C_10  and  C_11
REMARK    4  A    between atoms: C_11  and  C_12
REMARK                            x       y       z     vdW  Elec       q    Type
REMARK                         _______ _______ _______ _____ _____    ______ ____
ROOT
ATOM      1  C   UNL     1       4.635   2.016  20.271  0.00  0.00    +0.000 C 
ATOM      2  C   UNL     1       3.463   2.955  20.197  0.00  0.00    +0.000 A 
ATOM      3  C   UNL     1       2.292   2.651  20.913  0.00  0.00    +0.000 A 
ATOM      4  C   UNL     1       1.209   3.528  20.921  0.00  0.00    +0.000 A 
ATOM      5  C   UNL     1       1.299   4.745  20.251  0.00  0.00    +0.000 A 
ATOM      6  C   UNL     1       2.461   5.053  19.549  0.00  0.00    +0.000 A 
ATOM      7  C   UNL     1       3.522   4.150  19.458  0.00  0.00    +0.000 A 
ATOM      8  C   UNL     1       4.718   4.563  18.645  0.00  0.00    +0.000 C 
ATOM      9  N   UNL     1       4.451   5.654  17.712  0.00  0.00    +0.000 N 
ATOM     10  C   UNL     1       3.543   6.639  18.051  0.00  0.00    +0.000 C 
ATOM     11  O   UNL     1       3.485   7.753  17.538  0.00  0.00    +0.000 OA
ATOM     12  N   UNL     1       2.589   6.298  18.959  0.00  0.00    +0.000 N 
ATOM     13  H   UNL     1       1.867   6.998  19.077  0.00  0.00    +0.000 HD
ENDROOT
BRANCH   9  14
ATOM     14  C   UNL     1       4.895   5.511  16.319  0.00  0.00    +0.000 C 
BRANCH  14  15
ATOM     15  C   UNL     1       5.746   4.276  15.993  0.00  0.00    +0.000 C 
BRANCH  15  16
ATOM     16  C   UNL     1       6.284   4.265  14.582  0.00  0.00    +0.000 A 
ATOM     17  C   UNL     1       5.662   3.470  13.606  0.00  0.00    +0.000 A 
ATOM     18  C   UNL     1       6.092   3.506  12.281  0.00  0.00    +0.000 A 
ATOM     19  C   UNL     1       7.156   4.329  11.920  0.00  0.00    +0.000 A 
ATOM     20  C   UNL     1       7.794   5.107  12.885  0.00  0.00    +0.000 A 
ATOM     21  C   UNL     1       7.362   5.075  14.213  0.00  0.00    +0.000 A 
ENDBRANCH  15  16
ENDBRANCH  14  15
ENDBRANCH   9  14
TORSDOF 3
ENDMDL
MODEL 5
REMARK VINA RESULT:      -7.7      4.434      5.958
REMARK  Name = 
REMARK  4 active torsions:
REMARK  status: ('A' for Active; 'I' for Inactive)
REMARK    1  A    between atoms: C_1  and  C_2
REMARK    2  A    between atoms: N_9  and  C_10
REMARK    3  A    between atoms: C_10  and  C_11
REMARK    4  A    between atoms: C_11  and  C_12
REMARK                            x       y       z     vdW  Elec       q    Type
REMARK                         _______ _______ _______ _____ _____    ______ ____
ROOT
ATOM      1  C   UNL     1       4.544   1.917  20.234  0.00  0.00    +0.000 C 
ATOM      2  C   UNL     1       3.396   2.887  20.210  0.00  0.00    +0.000 A 
ATOM      3  C   UNL     1       2.224   2.583  20.923  0.00  0.00    +0.000 A 
ATOM      4  C   UNL     1       1.163   3.487  20.977  0.00  0.00    +0.000 A 
ATOM      5  C   UNL     1       1.279   4.727  20.359  0.00  0.00    +0.000 A 
ATOM      6  C   UNL     1       2.443   5.036  19.660  0.00  0.00    +0.000 A 
ATOM      7  C   UNL     1       3.480   4.111  19.521  0.00  0.00    +0.000 A 
ATOM      8  C   UNL     1       4.679   4.527  18.716  0.00  0.00    +0.000 C 
ATOM      9  N   UNL     1       4.433   5.663  17.831  0.00  0.00    +0.000 N 
ATOM     10  C   UNL     1       3.553   6.655  18.220  0.00  0.00    +0.000 C 
ATOM     11  O   UNL     1       3.520   7.791  17.754  0.00  0.00    +0.000 OA
ATOM     12  N   UNL     1       2.599   6.301  19.121  0.00  0.00    +0.000 N 
ATOM     13  H   UNL     1       1.895   7.013  19.275  0.00  0.00    +0.000 HD
ENDROOT
BRANCH   9  14
ATOM     14  C   UNL     1       4.862   5.567  16.429  0.00  0.00    +0.000 C 
BRANCH  14  15
ATOM     15  C   UNL     1       5.804   4.408  16.078  0.00  0.00    +0.000 C 
BRANCH  15  16
ATOM     16  C   UNL     1       6.213   4.379  14.624  0.00  0.00    +0.000 A 
ATOM     17  C   UNL     1       7.306   5.149  14.194  0.00  0.00    +0.000 A 
ATOM     18  C   UNL     1       7.751   5.076  12.875  0.00  0.00    +0.000 A 
ATOM     19  C   UNL     1       7.100   4.242  11.969  0.00  0.00    +0.000 A 
ATOM     20  C   UNL     1       6.000   3.489  12.381  0.00  0.00    +0.000 A 
ATOM     21  C   UNL     1       5.555   3.558  13.704  0.00  0.00    +0.000 A 
ENDBRANCH  15  16
ENDBRANCH  14  15
ENDBRANCH   9  14
TORSDOF 3
ENDMDL
MODEL 6
REMARK VINA RESULT:      -7.7      3.547      5.999
REMARK  Name = 
REMARK  4 active torsions:
REMARK  status: ('A' for Active; 'I' for Inactive)
REMARK    1  A    between atoms: C_1  and  C_2
REMARK    2  A    between atoms: N_9  and  C_10
REMARK    3  A    between atoms: C_10  and  C_11
REMARK    4  A    between atoms: C_11  and  C_12
REMARK                            x       y       z     vdW  Elec       q    Type
REMARK                         _______ _______ _______ _____ _____    ______ ____
ROOT
ATOM      1  C   UNL     1       7.457   5.952  19.141  0.00  0.00    +0.000 C 
ATOM      2  C   UNL     1       6.673   5.445  17.963  0.00  0.00    +0.000 A 
ATOM      3  C   UNL     1       6.956   5.947  16.681  0.00  0.00    +0.000 A 
ATOM      4  C   UNL     1       6.294   5.455  15.557  0.00  0.00    +0.000 A 
ATOM      5  C   UNL     1       5.374   4.420  15.693  0.00  0.00    +0.000 A 
ATOM      6  C   UNL     1       5.099   3.914  16.961  0.00  0.00    +0.000 A 
ATOM      7  C   UNL     1       5.686   4.453  18.107  0.00  0.00    +0.000 A 
ATOM      8  C   UNL     1       5.295   3.861  19.432  0.00  0.00    +0.000 C 
ATOM      9  N   UNL     1       4.047   3.101  19.396  0.00  0.00    +0.000 N 
ATOM     10  C   UNL     1       3.710   2.392  18.258  0.00  0.00    +0.000 C 
ATOM     11  O   UNL     1       2.902   1.469  18.217  0.00  0.00    +0.000 OA
ATOM     12  N   UNL     1       4.253   2.826  17.090  0.00  0.00    +0.000 N 
ATOM     13  H   UNL     1       3.877   2.369  16.268  0.00  0.00    +0.000 HD
ENDROOT
BRANCH   9  14
ATOM     14  C   UNL     1       3.033   3.367  20.425  0.00  0.00    +0.000 C 
BRANCH  14  15
ATOM     15  C   UNL     1       1.751   4.071  19.960  0.00  0.00    +0.000 C 
BRANCH  15  16
ATOM     16  C   UNL     1       1.949   5.529  19.621  0.00  0.00    +0.000 A 
ATOM     17  C   UNL     1       2.330   5.896  18.320  0.00  0.00    +0.000 A 
ATOM     18  C   UNL     1       2.440   7.239  17.964  0.00  0.00    +0.000 A 
ATOM     19  C   UNL     1       2.181   8.229  18.908  0.00  0.00    +0.000 A 
ATOM     20  C   UNL     1       1.823   7.876  20.209  0.00  0.00    +0.000 A 
ATOM     21  C   UNL     1       1.709   6.530  20.567  0.00  0.00    +0.000 A 
ENDBRANCH  15  16
ENDBRANCH  14  15
ENDBRANCH   9  14
TORSDOF 3
ENDMDL
MODEL 7
REMARK VINA RESULT:      -7.6      3.553      6.058
REMARK  Name = 
REMARK  4 active torsions:
REMARK  status: ('A' for Active; 'I' for Inactive)
REMARK    1  A    between atoms: C_1  and  C_2
REMARK    2  A    between atoms: N_9  and  C_10
REMARK    3  A    between atoms: C_10  and  C_11
REMARK    4  A    between atoms: C_11  and  C_12
REMARK                            x       y       z     vdW  Elec       q    Type
REMARK                         _______ _______ _______ _____ _____    ______ ____
ROOT
ATOM      1  C   UNL     1       7.482   5.953  18.939  0.00  0.00    +0.000 C 
ATOM      2  C   UNL     1       6.651   5.398  17.815  0.00  0.00    +0.000 A 
ATOM      3  C   UNL     1       6.870   5.858  16.506  0.00  0.00    +0.000 A 
ATOM      4  C   UNL     1       6.164   5.321  15.430  0.00  0.00    +0.000 A 
ATOM      5  C   UNL     1       5.263   4.283  15.643  0.00  0.00    +0.000 A 
ATOM      6  C   UNL     1       5.050   3.818  16.938  0.00  0.00    +0.000 A 
ATOM      7  C   UNL     1       5.683   4.402  18.037  0.00  0.00    +0.000 A 
ATOM      8  C   UNL     1       5.358   3.852  19.399  0.00  0.00    +0.000 C 
ATOM      9  N   UNL     1       4.119   3.080  19.445  0.00  0.00    +0.000 N 
ATOM     10  C   UNL     1       3.739   2.329  18.349  0.00  0.00    +0.000 C 
ATOM     11  O   UNL     1       2.941   1.396  18.375  0.00  0.00    +0.000 OA
ATOM     12  N   UNL     1       4.225   2.727  17.143  0.00  0.00    +0.000 N 
ATOM     13  H   UNL     1       3.817   2.238  16.355  0.00  0.00    +0.000 HD
ENDROOT
BRANCH   9  14
ATOM     14  C   UNL     1       3.150   3.371  20.510  0.00  0.00    +0.000 C 
BRANCH  14  15
ATOM     15  C   UNL     1       1.815   3.988  20.072  0.00  0.00    +0.000 C 
BRANCH  15  16
ATOM     16  C   UNL     1       1.929   5.426  19.627  0.00  0.00    +0.000 A 
ATOM     17  C   UNL     1       1.684   6.460  20.544  0.00  0.00    +0.000 A 
ATOM     18  C   UNL     1       1.861   7.793  20.177  0.00  0.00    +0.000 A 
ATOM     19  C   UNL     1       2.273   8.106  18.884  0.00  0.00    +0.000 A 
ATOM     20  C   UNL     1       2.498   7.088  17.958  0.00  0.00    +0.000 A 
ATOM     21  C   UNL     1       2.325   5.752  18.326  0.00  0.00    +0.000 A 
ENDBRANCH  15  16
ENDBRANCH  14  15
ENDBRANCH   9  14
TORSDOF 3
ENDMDL
MODEL 8
REMARK VINA RESULT:      -7.6      2.814      3.908
REMARK  Name = 
REMARK  4 active torsions:
REMARK  status: ('A' for Active; 'I' for Inactive)
REMARK    1  A    between atoms: C_1  and  C_2
REMARK    2  A    between atoms: N_9  and  C_10
REMARK    3  A    between atoms: C_10  and  C_11
REMARK    4  A    between atoms: C_11  and  C_12
REMARK                            x       y       z     vdW  Elec       q    Type
REMARK                         _______ _______ _______ _____ _____    ______ ____
ROOT
ATOM      1  C   UNL     1       2.828   8.027  17.669  0.00  0.00    +0.000 C 
ATOM      2  C   UNL     1       2.567   6.968  18.703  0.00  0.00    +0.000 A 
ATOM      3  C   UNL     1       2.013   7.337  19.941  0.00  0.00    +0.000 A 
ATOM      4  C   UNL     1       1.698   6.376  20.900  0.00  0.00    +0.000 A 
ATOM      5  C   UNL     1       1.888   5.027  20.616  0.00  0.00    +0.000 A 
ATOM      6  C   UNL     1       2.428   4.657  19.387  0.00  0.00    +0.000 A 
ATOM      7  C   UNL     1       2.830   5.609  18.449  0.00  0.00    +0.000 A 
ATOM      8  C   UNL     1       3.436   5.109  17.167  0.00  0.00    +0.000 C 
ATOM      9  N   UNL     1       3.920   3.732  17.239  0.00  0.00    +0.000 N 
ATOM     10  C   UNL     1       3.255   2.814  18.029  0.00  0.00    +0.000 C 
ATOM     11  O   UNL     1       3.337   1.594  17.913  0.00  0.00    +0.000 OA
ATOM     12  N   UNL     1       2.534   3.315  19.067  0.00  0.00    +0.000 N 
ATOM     13  H   UNL     1       2.177   2.608  19.697  0.00  0.00    +0.000 HD
ENDROOT
BRANCH   9  14
ATOM     14  C   UNL     1       5.270   3.436  16.742  0.00  0.00    +0.000 C 
BRANCH  14  15
ATOM     15  C   UNL     1       6.010   4.582  16.040  0.00  0.00    +0.000 C 
BRANCH  15  16
ATOM     16  C   UNL     1       6.811   5.451  16.979  0.00  0.00    +0.000 A 
ATOM     17  C   UNL     1       6.996   6.811  16.681  0.00  0.00    +0.000 A 
ATOM     18  C   UNL     1       7.663   7.649  17.573  0.00  0.00    +0.000 A 
ATOM     19  C   UNL     1       8.163   7.134  18.766  0.00  0.00    +0.000 A 
ATOM     20  C   UNL     1       8.004   5.780  19.062  0.00  0.00    +0.000 A 
ATOM     21  C   UNL     1       7.333   4.940  18.171  0.00  0.00    +0.000 A 
ENDBRANCH  15  16
ENDBRANCH  14  15
ENDBRANCH   9  14
TORSDOF 3
ENDMDL
MODEL 9
REMARK VINA RESULT:      -7.5      2.804      4.050
REMARK  Name = 
REMARK  4 active torsions:
REMARK  status: ('A' for Active; 'I' for Inactive)
REMARK    1  A    between atoms: C_1  and  C_2
REMARK    2  A    between atoms: N_9  and  C_10
REMARK    3  A    between atoms: C_10  and  C_11
REMARK    4  A    between atoms: C_11  and  C_12
REMARK                            x       y       z     vdW  Elec       q    Type
REMARK                         _______ _______ _______ _____ _____    ______ ____
ROOT
ATOM      1  C   UNL     1       2.756   8.162  17.678  0.00  0.00    +0.000 C 
ATOM      2  C   UNL     1       2.498   7.094  18.704  0.00  0.00    +0.000 A 
ATOM      3  C   UNL     1       1.957   7.454  19.951  0.00  0.00    +0.000 A 
ATOM      4  C   UNL     1       1.645   6.485  20.903  0.00  0.00    +0.000 A 
ATOM      5  C   UNL     1       1.824   5.138  20.603  0.00  0.00    +0.000 A 
ATOM      6  C   UNL     1       2.351   4.777  19.366  0.00  0.00    +0.000 A 
ATOM      7  C   UNL     1       2.750   5.737  18.434  0.00  0.00    +0.000 A 
ATOM      8  C   UNL     1       3.342   5.246  17.142  0.00  0.00    +0.000 C 
ATOM      9  N   UNL     1       3.817   3.866  17.195  0.00  0.00    +0.000 N 
ATOM     10  C   UNL     1       3.154   2.943  17.981  0.00  0.00    +0.000 C 
ATOM     11  O   UNL     1       3.228   1.724  17.853  0.00  0.00    +0.000 OA
ATOM     12  N   UNL     1       2.445   3.438  19.031  0.00  0.00    +0.000 N 
ATOM     13  H   UNL     1       2.090   2.726  19.658  0.00  0.00    +0.000 HD
ENDROOT
BRANCH   9  14
ATOM     14  C   UNL     1       5.161   3.566  16.683  0.00  0.00    +0.000 C 
BRANCH  14  15
ATOM     15  C   UNL     1       5.917   4.725  16.020  0.00  0.00    +0.000 C 
BRANCH  15  16
ATOM     16  C   UNL     1       6.667   5.598  16.997  0.00  0.00    +0.000 A 
ATOM     17  C   UNL     1       7.230   5.027  18.150  0.00  0.00    +0.000 A 
ATOM     18  C   UNL     1       7.994   5.799  19.024  0.00  0.00    +0.000 A 
ATOM     19  C   UNL     1       8.192   7.152  18.761  0.00  0.00    +0.000 A 
ATOM     20  C   UNL     1       7.619   7.734  17.630  0.00  0.00    +0.000 A 
ATOM     21  C   UNL     1       6.856   6.961  16.751  0.00  0.00    +0.000 A 
ENDBRANCH  15  16
ENDBRANCH  14  15
ENDBRANCH   9  14
TORSDOF 3
ENDMDL
