MODEL 1
REMARK VINA RESULT:      -7.6      0.000      0.000
REMARK  Name = 
REMARK  5 active torsions:
REMARK  status: ('A' for Active; 'I' for Inactive)
REMARK    1  A    between atoms: C_1  and  C_2
REMARK    2  A    between atoms: C_8  and  C_10
REMARK    3  A    between atoms: C_10  and  C_11
REMARK    4  A    between atoms: C_11  and  S_12
REMARK    5  A    between atoms: S_12  and  C_15
REMARK                            x       y       z     vdW  Elec       q    Type
REMARK                         _______ _______ _______ _____ _____    ______ ____
ROOT
ATOM      1  S   UNL     1       5.620   6.329  16.777  0.00  0.00    +0.000 S 
ATOM      2  O   UNL     1       6.611   7.181  17.408  0.00  0.00    +0.000 OA
ATOM      3  O   UNL     1       4.812   6.854  15.690  0.00  0.00    +0.000 OA
ENDROOT
BRANCH   1   4
ATOM      4  C   UNL     1       4.499   5.811  18.052  0.00  0.00    +0.000 A 
ATOM      5  C   UNL     1       4.685   4.534  18.609  0.00  0.00    +0.000 A 
ATOM      6  C   UNL     1       3.815   4.071  19.594  0.00  0.00    +0.000 A 
ATOM      7  C   UNL     1       2.743   4.858  20.005  0.00  0.00    +0.000 A 
ATOM      8  C   UNL     1       2.556   6.127  19.462  0.00  0.00    +0.000 A 
ATOM      9  C   UNL     1       3.427   6.604  18.472  0.00  0.00    +0.000 A 
ATOM     10 CL   UNL     1       3.046   8.155  17.820  0.00  0.00    +0.000 Cl
ATOM     11  N   UNL     1       1.793   4.341  20.889  0.00  0.00    +0.000 N 
ATOM     12  C   UNL     1       1.932   3.082  21.413  0.00  0.00    +0.000 C 
ATOM     13  O   UNL     1       1.023   2.532  22.028  0.00  0.00    +0.000 OA
ATOM     14  C   UNL     1       3.333   2.497  21.257  0.00  0.00    +0.000 C 
ATOM     15  O   UNL     1       4.039   2.800  20.060  0.00  0.00    +0.000 OA
ATOM     16  H   UNL     1       0.916   4.815  21.059  0.00  0.00    +0.000 HD
ENDBRANCH   1   4
BRANCH   1  17
ATOM     17  C   UNL     1       6.416   4.868  16.157  0.00  0.00    +0.000 C 
BRANCH  17  18
ATOM     18  C   UNL     1       5.780   4.352  14.871  0.00  0.00    +0.000 C 
BRANCH  18  26
ATOM     19  C   UNL     1       4.296   3.493  11.327  0.00  0.00    +0.000 C 
ATOM     20  C   UNL     1       5.284   2.902  12.340  0.00  0.00    +0.000 C 
ATOM     21  C   UNL     1       5.766   1.504  11.922  0.00  0.00    +0.000 C 
ATOM     22  C   UNL     1       6.691   1.551  10.708  0.00  0.00    +0.000 C 
ATOM     23  C   UNL     1       7.852   2.517  10.946  0.00  0.00    +0.000 C 
ATOM     24  C   UNL     1       7.372   3.891  11.408  0.00  0.00    +0.000 C 
ATOM     25  N   UNL     1       6.450   3.782  12.544  0.00  0.00    +0.000 N 
ATOM     26  C   UNL     1       6.730   4.505  13.698  0.00  0.00    +0.000 C 
ATOM     27  O   UNL     1       7.721   5.231  13.796  0.00  0.00    +0.000 OA
ENDBRANCH  18  26
ENDBRANCH  17  18
ENDBRANCH   1  17
TORSDOF 4
ENDMDL
MODEL 2
REMARK VINA RESULT:      -7.6      3.720      8.464
REMARK  Name = 
REMARK  5 active torsions:
REMARK  status: ('A' for Active; 'I' for Inactive)
REMARK    1  A    between atoms: C_1  and  C_2
REMARK    2  A    between atoms: C_8  and  C_10
REMARK    3  A    between atoms: C_10  and  C_11
REMARK    4  A    between atoms: C_11  and  S_12
REMARK    5  A    between atoms: S_12  and  C_15
REMARK                            x       y       z     vdW  Elec       q    Type
REMARK                         _______ _______ _______ _____ _____    ______ ____
ROOT
ATOM      1  S   UNL     1       1.916   4.613  20.711  0.00  0.00    +0.000 S 
ATOM      2  O   UNL     1       2.233   3.732  21.820  0.00  0.00    +0.000 OA
ATOM      3  O   UNL     1       0.610   4.532  20.082  0.00  0.00    +0.000 OA
ENDROOT
BRANCH   1   4
ATOM      4  C   UNL     1       3.122   4.299  19.445  0.00  0.00    +0.000 A 
ATOM      5  C   UNL     1       4.232   5.158  19.371  0.00  0.00    +0.000 A 
ATOM      6  C   UNL     1       5.191   4.971  18.378  0.00  0.00    +0.000 A 
ATOM      7  C   UNL     1       5.036   3.953  17.440  0.00  0.00    +0.000 A 
ATOM      8  C   UNL     1       3.942   3.094  17.513  0.00  0.00    +0.000 A 
ATOM      9  C   UNL     1       2.971   3.272  18.509  0.00  0.00    +0.000 A 
ATOM     10 CL   UNL     1       1.624   2.198  18.446  0.00  0.00    +0.000 Cl
ATOM     11  N   UNL     1       5.923   3.851  16.366  0.00  0.00    +0.000 N 
ATOM     12  C   UNL     1       6.989   4.704  16.250  0.00  0.00    +0.000 C 
ATOM     13  O   UNL     1       7.661   4.765  15.224  0.00  0.00    +0.000 OA
ATOM     14  C   UNL     1       7.316   5.465  17.531  0.00  0.00    +0.000 C 
ATOM     15  O   UNL     1       6.224   5.873  18.347  0.00  0.00    +0.000 OA
ATOM     16  H   UNL     1       5.730   3.246  15.578  0.00  0.00    +0.000 HD
ENDBRANCH   1   4
BRANCH   1  17
ATOM     17  C   UNL     1       2.128   6.299  21.226  0.00  0.00    +0.000 C 
BRANCH  17  18
ATOM     18  C   UNL     1       1.590   7.297  20.207  0.00  0.00    +0.000 C 
BRANCH  18  26
ATOM     19  C   UNL     1      -0.407   9.843  17.964  0.00  0.00    +0.000 C 
ATOM     20  C   UNL     1       0.980   9.706  18.600  0.00  0.00    +0.000 C 
ATOM     21  C   UNL     1       1.930  10.828  18.151  0.00  0.00    +0.000 C 
ATOM     22  C   UNL     1       1.545  12.182  18.743  0.00  0.00    +0.000 C 
ATOM     23  C   UNL     1       1.428  12.097  20.265  0.00  0.00    +0.000 C 
ATOM     24  C   UNL     1       0.522  10.951  20.709  0.00  0.00    +0.000 C 
ATOM     25  N   UNL     1       0.908   9.686  20.074  0.00  0.00    +0.000 N 
ATOM     26  C   UNL     1       1.161   8.585  20.884  0.00  0.00    +0.000 C 
ATOM     27  O   UNL     1       1.072   8.638  22.112  0.00  0.00    +0.000 OA
ENDBRANCH  18  26
ENDBRANCH  17  18
ENDBRANCH   1  17
TORSDOF 4
ENDMDL
MODEL 3
REMARK VINA RESULT:      -7.5      6.217      8.122
REMARK  Name = 
REMARK  5 active torsions:
REMARK  status: ('A' for Active; 'I' for Inactive)
REMARK    1  A    between atoms: C_1  and  C_2
REMARK    2  A    between atoms: C_8  and  C_10
REMARK    3  A    between atoms: C_10  and  C_11
REMARK    4  A    between atoms: C_11  and  S_12
REMARK    5  A    between atoms: S_12  and  C_15
REMARK                            x       y       z     vdW  Elec       q    Type
REMARK                         _______ _______ _______ _____ _____    ______ ____
ROOT
ATOM      1  S   UNL     1       1.169   9.944  19.154  0.00  0.00    +0.000 S 
ATOM      2  O   UNL     1       1.214   9.233  20.418  0.00  0.00    +0.000 OA
ATOM      3  O   UNL     1       2.092  11.041  18.916  0.00  0.00    +0.000 OA
ENDROOT
BRANCH   1   4
ATOM      4  C   UNL     1      -0.472  10.603  18.992  0.00  0.00    +0.000 A 
ATOM      5  C   UNL     1      -1.202  10.266  17.839  0.00  0.00    +0.000 A 
ATOM      6  C   UNL     1      -2.484  10.780  17.651  0.00  0.00    +0.000 A 
ATOM      7  C   UNL     1      -3.030  11.652  18.589  0.00  0.00    +0.000 A 
ATOM      8  C   UNL     1      -2.315  11.984  19.737  0.00  0.00    +0.000 A 
ATOM      9  C   UNL     1      -1.025  11.472  19.937  0.00  0.00    +0.000 A 
ATOM     10 CL   UNL     1      -0.209  12.020  21.354  0.00  0.00    +0.000 Cl
ATOM     11  N   UNL     1      -4.255  12.273  18.336  0.00  0.00    +0.000 N 
ATOM     12  C   UNL     1      -4.965  11.991  17.198  0.00  0.00    +0.000 C 
ATOM     13  O   UNL     1      -5.935  12.662  16.857  0.00  0.00    +0.000 OA
ATOM     14  C   UNL     1      -4.509  10.724  16.482  0.00  0.00    +0.000 C 
ATOM     15  O   UNL     1      -3.116  10.435  16.484  0.00  0.00    +0.000 OA
ATOM     16  H   UNL     1      -4.584  13.042  18.904  0.00  0.00    +0.000 HD
ENDBRANCH   1   4
BRANCH   1  17
ATOM     17  C   UNL     1       1.401   8.789  17.825  0.00  0.00    +0.000 C 
BRANCH  17  18
ATOM     18  C   UNL     1       2.853   8.352  17.672  0.00  0.00    +0.000 C 
BRANCH  18  26
ATOM     19  C   UNL     1       6.510   6.918  17.411  0.00  0.00    +0.000 C 
ATOM     20  C   UNL     1       5.153   6.753  16.718  0.00  0.00    +0.000 C 
ATOM     21  C   UNL     1       5.248   5.851  15.477  0.00  0.00    +0.000 C 
ATOM     22  C   UNL     1       5.490   4.388  15.845  0.00  0.00    +0.000 C 
ATOM     23  C   UNL     1       4.439   3.896  16.840  0.00  0.00    +0.000 C 
ATOM     24  C   UNL     1       4.314   4.821  18.048  0.00  0.00    +0.000 C 
ATOM     25  N   UNL     1       4.130   6.218  17.636  0.00  0.00    +0.000 N 
ATOM     26  C   UNL     1       3.040   6.920  18.136  0.00  0.00    +0.000 C 
ATOM     27  O   UNL     1       2.227   6.411  18.910  0.00  0.00    +0.000 OA
ENDBRANCH  18  26
ENDBRANCH  17  18
ENDBRANCH   1  17
TORSDOF 4
ENDMDL
MODEL 4
REMARK VINA RESULT:      -7.4      2.523      3.761
REMARK  Name = 
REMARK  5 active torsions:
REMARK  status: ('A' for Active; 'I' for Inactive)
REMARK    1  A    between atoms: C_1  and  C_2
REMARK    2  A    between atoms: C_8  and  C_10
REMARK    3  A    between atoms: C_10  and  C_11
REMARK    4  A    between atoms: C_11  and  S_12
REMARK    5  A    between atoms: S_12  and  C_15
REMARK                            x       y       z     vdW  Elec       q    Type
REMARK                         _______ _______ _______ _____ _____    ______ ____
ROOT
ATOM      1  S   UNL     1       4.629   4.203  17.710  0.00  0.00    +0.000 S 
ATOM      2  O   UNL     1       3.770   3.104  17.310  0.00  0.00    +0.000 OA
ATOM      3  O   UNL     1       5.695   3.968  18.668  0.00  0.00    +0.000 OA
ENDROOT
BRANCH   1   4
ATOM      4  C   UNL     1       3.575   5.453  18.403  0.00  0.00    +0.000 A 
ATOM      5  C   UNL     1       3.454   6.668  17.706  0.00  0.00    +0.000 A 
ATOM      6  C   UNL     1       2.661   7.691  18.223  0.00  0.00    +0.000 A 
ATOM      7  C   UNL     1       2.014   7.522  19.444  0.00  0.00    +0.000 A 
ATOM      8  C   UNL     1       2.124   6.319  20.137  0.00  0.00    +0.000 A 
ATOM      9  C   UNL     1       2.918   5.283  19.625  0.00  0.00    +0.000 A 
ATOM     10 CL   UNL     1       3.043   3.874  20.612  0.00  0.00    +0.000 Cl
ATOM     11  N   UNL     1       1.332   8.593  20.028  0.00  0.00    +0.000 N 
ATOM     12  C   UNL     1       1.236   9.800  19.385  0.00  0.00    +0.000 C 
ATOM     13  O   UNL     1       0.820  10.805  19.954  0.00  0.00    +0.000 OA
ATOM     14  C   UNL     1       1.579   9.740  17.900  0.00  0.00    +0.000 C 
ATOM     15  O   UNL     1       2.623   8.858  17.504  0.00  0.00    +0.000 OA
ATOM     16  H   UNL     1       1.015   8.557  20.987  0.00  0.00    +0.000 HD
ENDBRANCH   1   4
BRANCH   1  17
ATOM     17  C   UNL     1       5.390   4.905  16.267  0.00  0.00    +0.000 C 
BRANCH  17  18
ATOM     18  C   UNL     1       5.273   4.004  15.043  0.00  0.00    +0.000 C 
BRANCH  18  26
ATOM     19  C   UNL     1       4.260   3.510  11.270  0.00  0.00    +0.000 C 
ATOM     20  C   UNL     1       5.158   2.848  12.321  0.00  0.00    +0.000 C 
ATOM     21  C   UNL     1       5.767   1.533  11.809  0.00  0.00    +0.000 C 
ATOM     22  C   UNL     1       6.822   1.768  10.729  0.00  0.00    +0.000 C 
ATOM     23  C   UNL     1       7.888   2.750  11.215  0.00  0.00    +0.000 C 
ATOM     24  C   UNL     1       7.277   4.036  11.768  0.00  0.00    +0.000 C 
ATOM     25  N   UNL     1       6.239   3.749  12.764  0.00  0.00    +0.000 N 
ATOM     26  C   UNL     1       6.340   4.340  14.018  0.00  0.00    +0.000 C 
ATOM     27  O   UNL     1       7.269   5.093  14.318  0.00  0.00    +0.000 OA
ENDBRANCH  18  26
ENDBRANCH  17  18
ENDBRANCH   1  17
TORSDOF 4
ENDMDL
MODEL 5
REMARK VINA RESULT:      -7.3      3.643      8.180
REMARK  Name = 
REMARK  5 active torsions:
REMARK  status: ('A' for Active; 'I' for Inactive)
REMARK    1  A    between atoms: C_1  and  C_2
REMARK    2  A    between atoms: C_8  and  C_10
REMARK    3  A    between atoms: C_10  and  C_11
REMARK    4  A    between atoms: C_11  and  S_12
REMARK    5  A    between atoms: S_12  and  C_15
REMARK                            x       y       z     vdW  Elec       q    Type
REMARK                         _______ _______ _______ _____ _____    ______ ____
ROOT
ATOM      1  S   UNL     1       1.943   4.440  20.681  0.00  0.00    +0.000 S 
ATOM      2  O   UNL     1       2.779   4.382  21.866  0.00  0.00    +0.000 OA
ATOM      3  O   UNL     1       0.912   3.437  20.482  0.00  0.00    +0.000 OA
ENDROOT
BRANCH   1   4
ATOM      4  C   UNL     1       3.031   4.350  19.280  0.00  0.00    +0.000 A 
ATOM      5  C   UNL     1       4.401   4.575  19.498  0.00  0.00    +0.000 A 
ATOM      6  C   UNL     1       5.291   4.543  18.427  0.00  0.00    +0.000 A 
ATOM      7  C   UNL     1       4.821   4.319  17.135  0.00  0.00    +0.000 A 
ATOM      8  C   UNL     1       3.466   4.088  16.913  0.00  0.00    +0.000 A 
ATOM      9  C   UNL     1       2.561   4.117  17.984  0.00  0.00    +0.000 A 
ATOM     10 CL   UNL     1       0.901   3.898  17.572  0.00  0.00    +0.000 Cl
ATOM     11  N   UNL     1       5.690   4.422  16.047  0.00  0.00    +0.000 N 
ATOM     12  C   UNL     1       7.023   4.682  16.233  0.00  0.00    +0.000 C 
ATOM     13  O   UNL     1       7.763   4.973  15.298  0.00  0.00    +0.000 OA
ATOM     14  C   UNL     1       7.502   4.466  17.665  0.00  0.00    +0.000 C 
ATOM     15  O   UNL     1       6.605   4.810  18.715  0.00  0.00    +0.000 OA
ATOM     16  H   UNL     1       5.345   4.448  15.097  0.00  0.00    +0.000 HD
ENDBRANCH   1   4
BRANCH   1  17
ATOM     17  C   UNL     1       1.135   6.020  20.613  0.00  0.00    +0.000 C 
BRANCH  17  18
ATOM     18  C   UNL     1       2.119   7.183  20.569  0.00  0.00    +0.000 C 
BRANCH  18  26
ATOM     19  C   UNL     1       1.169  10.980  20.992  0.00  0.00    +0.000 C 
ATOM     20  C   UNL     1       0.519   9.672  20.526  0.00  0.00    +0.000 C 
ATOM     21  C   UNL     1      -0.981   9.846  20.244  0.00  0.00    +0.000 C 
ATOM     22  C   UNL     1      -1.239  10.682  18.991  0.00  0.00    +0.000 C 
ATOM     23  C   UNL     1      -0.485  10.109  17.790  0.00  0.00    +0.000 C 
ATOM     24  C   UNL     1       0.996   9.893  18.091  0.00  0.00    +0.000 C 
ATOM     25  N   UNL     1       1.185   9.126  19.328  0.00  0.00    +0.000 N 
ATOM     26  C   UNL     1       1.964   7.976  19.286  0.00  0.00    +0.000 C 
ATOM     27  O   UNL     1       2.499   7.582  18.247  0.00  0.00    +0.000 OA
ENDBRANCH  18  26
ENDBRANCH  17  18
ENDBRANCH   1  17
TORSDOF 4
ENDMDL
MODEL 6
REMARK VINA RESULT:      -7.3      5.242      7.206
REMARK  Name = 
REMARK  5 active torsions:
REMARK  status: ('A' for Active; 'I' for Inactive)
REMARK    1  A    between atoms: C_1  and  C_2
REMARK    2  A    between atoms: C_8  and  C_10
REMARK    3  A    between atoms: C_10  and  C_11
REMARK    4  A    between atoms: C_11  and  S_12
REMARK    5  A    between atoms: S_12  and  C_15
REMARK                            x       y       z     vdW  Elec       q    Type
REMARK                         _______ _______ _______ _____ _____    ______ ____
ROOT
ATOM      1  S   UNL     1       7.444   6.708  17.609  0.00  0.00    +0.000 S 
ATOM      2  O   UNL     1       7.856   6.465  16.238  0.00  0.00    +0.000 OA
ATOM      3  O   UNL     1       8.328   6.333  18.699  0.00  0.00    +0.000 OA
ENDROOT
BRANCH   1   4
ATOM      4  C   UNL     1       5.920   5.829  17.851  0.00  0.00    +0.000 A 
ATOM      5  C   UNL     1       5.893   4.825  18.835  0.00  0.00    +0.000 A 
ATOM      6  C   UNL     1       4.729   4.088  19.045  0.00  0.00    +0.000 A 
ATOM      7  C   UNL     1       3.603   4.323  18.261  0.00  0.00    +0.000 A 
ATOM      8  C   UNL     1       3.621   5.321  17.290  0.00  0.00    +0.000 A 
ATOM      9  C   UNL     1       4.786   6.070  17.071  0.00  0.00    +0.000 A 
ATOM     10 CL   UNL     1       4.711   7.219  15.787  0.00  0.00    +0.000 Cl
ATOM     11  N   UNL     1       2.484   3.495  18.377  0.00  0.00    +0.000 N 
ATOM     12  C   UNL     1       2.451   2.483  19.301  0.00  0.00    +0.000 C 
ATOM     13  O   UNL     1       1.573   1.625  19.291  0.00  0.00    +0.000 OA
ATOM     14  C   UNL     1       3.520   2.597  20.383  0.00  0.00    +0.000 C 
ATOM     15  O   UNL     1       4.793   3.101  19.995  0.00  0.00    +0.000 OA
ATOM     16  H   UNL     1       1.733   3.525  17.701  0.00  0.00    +0.000 HD
ENDBRANCH   1   4
BRANCH   1  17
ATOM     17  C   UNL     1       7.088   8.435  17.815  0.00  0.00    +0.000 C 
BRANCH  17  18
ATOM     18  C   UNL     1       8.290   9.323  17.519  0.00  0.00    +0.000 C 
BRANCH  18  26
ATOM     19  C   UNL     1       8.529  13.231  17.938  0.00  0.00    +0.000 C 
ATOM     20  C   UNL     1       9.455  12.039  17.670  0.00  0.00    +0.000 C 
ATOM     21  C   UNL     1      10.891  12.489  17.354  0.00  0.00    +0.000 C 
ATOM     22  C   UNL     1      11.602  13.053  18.582  0.00  0.00    +0.000 C 
ATOM     23  C   UNL     1      11.548  12.062  19.745  0.00  0.00    +0.000 C 
ATOM     24  C   UNL     1      10.126  11.581  20.025  0.00  0.00    +0.000 C 
ATOM     25  N   UNL     1       9.475  11.095  18.803  0.00  0.00    +0.000 N 
ATOM     26  C   UNL     1       8.930   9.817  18.803  0.00  0.00    +0.000 C 
ATOM     27  O   UNL     1       8.975   9.082  19.793  0.00  0.00    +0.000 OA
ENDBRANCH  18  26
ENDBRANCH  17  18
ENDBRANCH   1  17
TORSDOF 4
ENDMDL
MODEL 7
REMARK VINA RESULT:      -7.2      6.340      9.341
REMARK  Name = 
REMARK  5 active torsions:
REMARK  status: ('A' for Active; 'I' for Inactive)
REMARK    1  A    between atoms: C_1  and  C_2
REMARK    2  A    between atoms: C_8  and  C_10
REMARK    3  A    between atoms: C_10  and  C_11
REMARK    4  A    between atoms: C_11  and  S_12
REMARK    5  A    between atoms: S_12  and  C_15
REMARK                            x       y       z     vdW  Elec       q    Type
REMARK                         _______ _______ _______ _____ _____    ______ ____
ROOT
ATOM      1  S   UNL     1       0.550  10.075  18.717  0.00  0.00    +0.000 S 
ATOM      2  O   UNL     1      -0.312   9.737  17.600  0.00  0.00    +0.000 OA
ATOM      3  O   UNL     1       0.140   9.732  20.068  0.00  0.00    +0.000 OA
ENDROOT
BRANCH   1   4
ATOM      4  C   UNL     1       0.777  11.836  18.676  0.00  0.00    +0.000 A 
ATOM      5  C   UNL     1       2.076  12.324  18.452  0.00  0.00    +0.000 A 
ATOM      6  C   UNL     1       2.311  13.698  18.439  0.00  0.00    +0.000 A 
ATOM      7  C   UNL     1       1.266  14.587  18.678  0.00  0.00    +0.000 A 
ATOM      8  C   UNL     1      -0.025  14.111  18.893  0.00  0.00    +0.000 A 
ATOM      9  C   UNL     1      -0.273  12.730  18.907  0.00  0.00    +0.000 A 
ATOM     10 CL   UNL     1      -1.893  12.262  19.265  0.00  0.00    +0.000 Cl
ATOM     11  N   UNL     1       1.526  15.954  18.800  0.00  0.00    +0.000 N 
ATOM     12  C   UNL     1       2.793  16.448  18.627  0.00  0.00    +0.000 C 
ATOM     13  O   UNL     1       3.083  17.604  18.921  0.00  0.00    +0.000 OA
ATOM     14  C   UNL     1       3.748  15.476  17.942  0.00  0.00    +0.000 C 
ATOM     15  O   UNL     1       3.611  14.094  18.252  0.00  0.00    +0.000 OA
ATOM     16  H   UNL     1       0.827  16.594  19.153  0.00  0.00    +0.000 HD
ENDBRANCH   1   4
BRANCH   1  17
ATOM     17  C   UNL     1       2.146   9.339  18.468  0.00  0.00    +0.000 C 
BRANCH  17  18
ATOM     18  C   UNL     1       2.063   7.856  18.124  0.00  0.00    +0.000 C 
BRANCH  18  26
ATOM     19  C   UNL     1       3.754   4.343  17.578  0.00  0.00    +0.000 C 
ATOM     20  C   UNL     1       2.370   4.922  17.895  0.00  0.00    +0.000 C 
ATOM     21  C   UNL     1       1.280   3.839  17.890  0.00  0.00    +0.000 C 
ATOM     22  C   UNL     1       1.404   2.891  19.082  0.00  0.00    +0.000 C 
ATOM     23  C   UNL     1       1.440   3.671  20.396  0.00  0.00    +0.000 C 
ATOM     24  C   UNL     1       2.491   4.778  20.379  0.00  0.00    +0.000 C 
ATOM     25  N   UNL     1       2.355   5.627  19.190  0.00  0.00    +0.000 N 
ATOM     26  C   UNL     1       2.235   7.001  19.365  0.00  0.00    +0.000 C 
ATOM     27  O   UNL     1       2.239   7.526  20.481  0.00  0.00    +0.000 OA
ENDBRANCH  18  26
ENDBRANCH  17  18
ENDBRANCH   1  17
TORSDOF 4
ENDMDL
MODEL 8
REMARK VINA RESULT:      -7.1      6.283      8.875
REMARK  Name = 
REMARK  5 active torsions:
REMARK  status: ('A' for Active; 'I' for Inactive)
REMARK    1  A    between atoms: C_1  and  C_2
REMARK    2  A    between atoms: C_8  and  C_10
REMARK    3  A    between atoms: C_10  and  C_11
REMARK    4  A    between atoms: C_11  and  S_12
REMARK    5  A    between atoms: S_12  and  C_15
REMARK                            x       y       z     vdW  Elec       q    Type
REMARK                         _______ _______ _______ _____ _____    ______ ____
ROOT
ATOM      1  S   UNL     1       0.712  10.055  18.720  0.00  0.00    +0.000 S 
ATOM      2  O   UNL     1      -0.332   9.755  17.757  0.00  0.00    +0.000 OA
ATOM      3  O   UNL     1       0.546   9.652  20.106  0.00  0.00    +0.000 OA
ENDROOT
BRANCH   1   4
ATOM      4  C   UNL     1       0.926  11.818  18.715  0.00  0.00    +0.000 A 
ATOM      5  C   UNL     1       2.196  12.322  18.385  0.00  0.00    +0.000 A 
ATOM      6  C   UNL     1       2.422  13.697  18.393  0.00  0.00    +0.000 A 
ATOM      7  C   UNL     1       1.401  14.570  18.759  0.00  0.00    +0.000 A 
ATOM      8  C   UNL     1       0.139  14.078  19.080  0.00  0.00    +0.000 A 
ATOM      9  C   UNL     1      -0.101  12.696  19.074  0.00  0.00    +0.000 A 
ATOM     10 CL   UNL     1      -1.678  12.204  19.569  0.00  0.00    +0.000 Cl
ATOM     11  N   UNL     1       1.665  15.935  18.900  0.00  0.00    +0.000 N 
ATOM     12  C   UNL     1       2.908  16.443  18.624  0.00  0.00    +0.000 C 
ATOM     13  O   UNL     1       3.219  17.591  18.927  0.00  0.00    +0.000 OA
ATOM     14  C   UNL     1       3.798  15.501  17.820  0.00  0.00    +0.000 C 
ATOM     15  O   UNL     1       3.697  14.109  18.097  0.00  0.00    +0.000 OA
ATOM     16  H   UNL     1       1.000  16.558  19.339  0.00  0.00    +0.000 HD
ENDBRANCH   1   4
BRANCH   1  17
ATOM     17  C   UNL     1       2.241   9.343  18.165  0.00  0.00    +0.000 C 
BRANCH  17  18
ATOM     18  C   UNL     1       2.092   7.887  17.739  0.00  0.00    +0.000 C 
BRANCH  18  26
ATOM     19  C   UNL     1       5.896   7.051  17.163  0.00  0.00    +0.000 C 
ATOM     20  C   UNL     1       4.532   6.360  17.052  0.00  0.00    +0.000 C 
ATOM     21  C   UNL     1       4.646   4.963  16.422  0.00  0.00    +0.000 C 
ATOM     22  C   UNL     1       5.328   3.964  17.356  0.00  0.00    +0.000 C 
ATOM     23  C   UNL     1       4.634   3.931  18.717  0.00  0.00    +0.000 C 
ATOM     24  C   UNL     1       4.479   5.326  19.318  0.00  0.00    +0.000 C 
ATOM     25  N   UNL     1       3.863   6.255  18.362  0.00  0.00    +0.000 N 
ATOM     26  C   UNL     1       2.730   6.957  18.754  0.00  0.00    +0.000 C 
ATOM     27  O   UNL     1       2.228   6.826  19.873  0.00  0.00    +0.000 OA
ENDBRANCH  18  26
ENDBRANCH  17  18
ENDBRANCH   1  17
TORSDOF 4
ENDMDL
MODEL 9
REMARK VINA RESULT:      -7.0      6.176      8.886
REMARK  Name = 
REMARK  5 active torsions:
REMARK  status: ('A' for Active; 'I' for Inactive)
REMARK    1  A    between atoms: C_1  and  C_2
REMARK    2  A    between atoms: C_8  and  C_10
REMARK    3  A    between atoms: C_10  and  C_11
REMARK    4  A    between atoms: C_11  and  S_12
REMARK    5  A    between atoms: S_12  and  C_15
REMARK                            x       y       z     vdW  Elec       q    Type
REMARK                         _______ _______ _______ _____ _____    ______ ____
ROOT
ATOM      1  S   UNL     1       0.497  10.086  18.647  0.00  0.00    +0.000 S 
ATOM      2  O   UNL     1      -0.612   9.900  17.730  0.00  0.00    +0.000 OA
ATOM      3  O   UNL     1       0.362   9.664  20.031  0.00  0.00    +0.000 OA
ENDROOT
BRANCH   1   4
ATOM      4  C   UNL     1       0.861  11.824  18.669  0.00  0.00    +0.000 A 
ATOM      5  C   UNL     1       2.173  12.222  18.359  0.00  0.00    +0.000 A 
ATOM      6  C   UNL     1       2.516  13.573  18.389  0.00  0.00    +0.000 A 
ATOM      7  C   UNL     1       1.569  14.525  18.757  0.00  0.00    +0.000 A 
ATOM      8  C   UNL     1       0.266  14.138  19.058  0.00  0.00    +0.000 A 
ATOM      9  C   UNL     1      -0.091  12.782  19.030  0.00  0.00    +0.000 A 
ATOM     10 CL   UNL     1      -1.710  12.420  19.501  0.00  0.00    +0.000 Cl
ATOM     11  N   UNL     1       1.946  15.860  18.920  0.00  0.00    +0.000 N 
ATOM     12  C   UNL     1       3.231  16.264  18.663  0.00  0.00    +0.000 C 
ATOM     13  O   UNL     1       3.636  17.377  18.985  0.00  0.00    +0.000 OA
ATOM     14  C   UNL     1       4.047  15.260  17.856  0.00  0.00    +0.000 C 
ATOM     15  O   UNL     1       3.824  13.878  18.112  0.00  0.00    +0.000 OA
ATOM     16  H   UNL     1       1.332  16.532  19.360  0.00  0.00    +0.000 HD
ENDBRANCH   1   4
BRANCH   1  17
ATOM     17  C   UNL     1       1.933   9.261  18.004  0.00  0.00    +0.000 C 
BRANCH  17  18
ATOM     18  C   UNL     1       2.180   7.910  18.663  0.00  0.00    +0.000 C 
BRANCH  18  26
ATOM     19  C   UNL     1       1.458   4.104  17.958  0.00  0.00    +0.000 C 
ATOM     20  C   UNL     1       2.343   4.962  18.869  0.00  0.00    +0.000 C 
ATOM     21  C   UNL     1       3.099   4.111  19.902  0.00  0.00    +0.000 C 
ATOM     22  C   UNL     1       4.195   3.263  19.259  0.00  0.00    +0.000 C 
ATOM     23  C   UNL     1       5.136   4.132  18.424  0.00  0.00    +0.000 C 
ATOM     24  C   UNL     1       4.378   5.012  17.432  0.00  0.00    +0.000 C 
ATOM     25  N   UNL     1       3.308   5.766  18.095  0.00  0.00    +0.000 N 
ATOM     26  C   UNL     1       3.276   7.147  17.943  0.00  0.00    +0.000 C 
ATOM     27  O   UNL     1       4.113   7.755  17.272  0.00  0.00    +0.000 OA
ENDBRANCH  18  26
ENDBRANCH  17  18
ENDBRANCH   1  17
TORSDOF 4
ENDMDL
