MODEL 1
REMARK VINA RESULT:      -7.9      0.000      0.000
REMARK  Name = 
REMARK  8 active torsions:
REMARK  status: ('A' for Active; 'I' for Inactive)
REMARK    1  A    between atoms: S_2  and  C_4
REMARK    2  A    between atoms: S_2  and  N_25
REMARK    3  A    between atoms: C_7  and  O_8
REMARK    4  A    between atoms: O_8  and  C_9
REMARK    5  A    between atoms: C_9  and  C_10
REMARK    6  A    between atoms: C_10  and  O_11
REMARK    7  A    between atoms: C_10  and  C_12
REMARK    8  A    between atoms: C_12  and  N_13
REMARK                            x       y       z     vdW  Elec       q    Type
REMARK                         _______ _______ _______ _____ _____    ______ ____
ROOT
ATOM      1  O   UNL     1       3.026   6.692  17.955  0.00  0.00    +0.000 OA
ENDROOT
BRANCH   1   5
ATOM      2  C   UNL     1       0.953   9.893  19.695  0.00  0.00    +0.000 A 
ATOM      3  C   UNL     1       1.242   8.769  20.471  0.00  0.00    +0.000 A 
ATOM      4  C   UNL     1       1.899   7.679  19.910  0.00  0.00    +0.000 A 
ATOM      5  C   UNL     1       2.308   7.699  18.570  0.00  0.00    +0.000 A 
ATOM      6  C   UNL     1       1.983   8.817  17.787  0.00  0.00    +0.000 A 
ATOM      7  C   UNL     1       1.293   9.921  18.345  0.00  0.00    +0.000 A 
BRANCH   2   9
ATOM      8  O   UNL     1      -1.230  11.262  20.083  0.00  0.00    +0.000 OA
ATOM      9  S   UNL     1       0.161  11.279  20.472  0.00  0.00    +0.000 S 
ATOM     10  O   UNL     1       0.539  11.260  21.871  0.00  0.00    +0.000 OA
BRANCH   9  11
ATOM     11  N   UNL     1       0.886  12.658  19.772  0.00  0.00    +0.000 NA
ATOM     12  C   UNL     1       1.856  13.444  20.593  0.00  0.00    +0.000 C 
ATOM     13  C   UNL     1       1.155  14.366  21.597  0.00  0.00    +0.000 C 
ATOM     14  O   UNL     1       0.225  15.242  20.946  0.00  0.00    +0.000 OA
ATOM     15  C   UNL     1      -0.762  14.503  20.212  0.00  0.00    +0.000 C 
ATOM     16  C   UNL     1      -0.105  13.607  19.151  0.00  0.00    +0.000 C 
ENDBRANCH   9  11
ENDBRANCH   2   9
ENDBRANCH   1   5
BRANCH   1  17
ATOM     17  C   UNL     1       4.281   7.118  17.389  0.00  0.00    +0.000 C 
BRANCH  17  18
ATOM     18  C   UNL     1       4.953   6.059  16.503  0.00  0.00    +0.000 C 
BRANCH  18  19
ATOM     19  O   UNL     1       5.725   6.709  15.480  0.00  0.00    +0.000 OA
ATOM     20  H   UNL     1       5.655   7.668  15.649  0.00  0.00    +0.000 HD
ENDBRANCH  18  19
BRANCH  18  21
ATOM     21  C   UNL     1       5.857   5.052  17.236  0.00  0.00    +0.000 C 
BRANCH  21  22
ATOM     22  N   UNL     1       5.220   3.909  17.912  0.00  0.00    +0.000 NA
ATOM     23  C   UNL     1       4.144   3.393  17.045  0.00  0.00    +0.000 C 
ATOM     24  C   UNL     1       3.503   2.169  17.692  0.00  0.00    +0.000 C 
ATOM     25  C   UNL     1       2.730   2.694  18.864  0.00  0.00    +0.000 A 
ATOM     26  C   UNL     1       1.412   2.292  19.104  0.00  0.00    +0.000 A 
ATOM     27  C   UNL     1       0.676   2.910  20.108  0.00  0.00    +0.000 A 
ATOM     28  C   UNL     1       1.272   3.888  20.904  0.00  0.00    +0.000 A 
ATOM     29  C   UNL     1       2.602   4.269  20.688  0.00  0.00    +0.000 A 
ATOM     30  C   UNL     1       3.337   3.702  19.639  0.00  0.00    +0.000 A 
ATOM     31  C   UNL     1       4.754   4.173  19.302  0.00  0.00    +0.000 C 
ENDBRANCH  21  22
ENDBRANCH  18  21
ENDBRANCH  17  18
ENDBRANCH   1  17
TORSDOF 8
ENDMDL
MODEL 2
REMARK VINA RESULT:      -7.9      6.388      7.126
REMARK  Name = 
REMARK  8 active torsions:
REMARK  status: ('A' for Active; 'I' for Inactive)
REMARK    1  A    between atoms: S_2  and  C_4
REMARK    2  A    between atoms: S_2  and  N_25
REMARK    3  A    between atoms: C_7  and  O_8
REMARK    4  A    between atoms: O_8  and  C_9
REMARK    5  A    between atoms: C_9  and  C_10
REMARK    6  A    between atoms: C_10  and  O_11
REMARK    7  A    between atoms: C_10  and  C_12
REMARK    8  A    between atoms: C_12  and  N_13
REMARK                            x       y       z     vdW  Elec       q    Type
REMARK                         _______ _______ _______ _____ _____    ______ ____
ROOT
ATOM      1  O   UNL     1       8.926   9.232  18.834  0.00  0.00    +0.000 OA
ENDROOT
BRANCH   1   5
ATOM      2  C   UNL     1       9.864  13.304  19.166  0.00  0.00    +0.000 A 
ATOM      3  C   UNL     1       9.247  12.842  18.002  0.00  0.00    +0.000 A 
ATOM      4  C   UNL     1       8.955  11.490  17.852  0.00  0.00    +0.000 A 
ATOM      5  C   UNL     1       9.246  10.575  18.873  0.00  0.00    +0.000 A 
ATOM      6  C   UNL     1       9.899  11.041  20.024  0.00  0.00    +0.000 A 
ATOM      7  C   UNL     1      10.221  12.412  20.174  0.00  0.00    +0.000 A 
BRANCH   2   9
ATOM      8  O   UNL     1       9.422  15.511  20.479  0.00  0.00    +0.000 OA
ATOM      9  S   UNL     1      10.167  15.046  19.331  0.00  0.00    +0.000 S 
ATOM     10  O   UNL     1      11.599  15.242  19.249  0.00  0.00    +0.000 OA
BRANCH   9  11
ATOM     11  N   UNL     1       9.479  15.753  17.937  0.00  0.00    +0.000 NA
ATOM     12  C   UNL     1      10.257  16.809  17.220  0.00  0.00    +0.000 C 
ATOM     13  C   UNL     1      10.164  18.172  17.914  0.00  0.00    +0.000 C 
ATOM     14  O   UNL     1       8.802  18.584  18.085  0.00  0.00    +0.000 OA
ATOM     15  C   UNL     1       8.054  17.617  18.838  0.00  0.00    +0.000 C 
ATOM     16  C   UNL     1       8.071  16.245  18.146  0.00  0.00    +0.000 C 
ENDBRANCH   9  11
ENDBRANCH   2   9
ENDBRANCH   1   5
BRANCH   1  17
ATOM     17  C   UNL     1       8.027   8.867  17.768  0.00  0.00    +0.000 C 
BRANCH  17  18
ATOM     18  C   UNL     1       7.692   7.368  17.725  0.00  0.00    +0.000 C 
BRANCH  18  19
ATOM     19  O   UNL     1       8.119   6.747  18.948  0.00  0.00    +0.000 OA
ATOM     20  H   UNL     1       8.357   5.827  18.722  0.00  0.00    +0.000 HD
ENDBRANCH  18  19
BRANCH  18  21
ATOM     21  C   UNL     1       6.211   7.023  17.489  0.00  0.00    +0.000 C 
BRANCH  21  22
ATOM     22  N   UNL     1       5.764   5.648  17.771  0.00  0.00    +0.000 NA
ATOM     23  C   UNL     1       5.075   5.126  16.576  0.00  0.00    +0.000 C 
ATOM     24  C   UNL     1       4.653   3.680  16.816  0.00  0.00    +0.000 C 
ATOM     25  C   UNL     1       3.535   3.748  17.813  0.00  0.00    +0.000 A 
ATOM     26  C   UNL     1       2.349   3.031  17.624  0.00  0.00    +0.000 A 
ATOM     27  C   UNL     1       1.278   3.234  18.487  0.00  0.00    +0.000 A 
ATOM     28  C   UNL     1       1.411   4.110  19.564  0.00  0.00    +0.000 A 
ATOM     29  C   UNL     1       2.609   4.804  19.775  0.00  0.00    +0.000 A 
ATOM     30  C   UNL     1       3.675   4.660  18.878  0.00  0.00    +0.000 A 
ATOM     31  C   UNL     1       4.957   5.484  19.012  0.00  0.00    +0.000 C 
ENDBRANCH  21  22
ENDBRANCH  18  21
ENDBRANCH  17  18
ENDBRANCH   1  17
TORSDOF 8
ENDMDL
MODEL 3
REMARK VINA RESULT:      -7.9      0.975      1.437
REMARK  Name = 
REMARK  8 active torsions:
REMARK  status: ('A' for Active; 'I' for Inactive)
REMARK    1  A    between atoms: S_2  and  C_4
REMARK    2  A    between atoms: S_2  and  N_25
REMARK    3  A    between atoms: C_7  and  O_8
REMARK    4  A    between atoms: O_8  and  C_9
REMARK    5  A    between atoms: C_9  and  C_10
REMARK    6  A    between atoms: C_10  and  O_11
REMARK    7  A    between atoms: C_10  and  C_12
REMARK    8  A    between atoms: C_12  and  N_13
REMARK                            x       y       z     vdW  Elec       q    Type
REMARK                         _______ _______ _______ _____ _____    ______ ____
ROOT
ATOM      1  O   UNL     1       3.163   6.551  17.643  0.00  0.00    +0.000 OA
ENDROOT
BRANCH   1   5
ATOM      2  C   UNL     1       1.187   9.574  19.771  0.00  0.00    +0.000 A 
ATOM      3  C   UNL     1       1.543   9.802  18.440  0.00  0.00    +0.000 A 
ATOM      4  C   UNL     1       2.228   8.828  17.721  0.00  0.00    +0.000 A 
ATOM      5  C   UNL     1       2.549   7.595  18.306  0.00  0.00    +0.000 A 
ATOM      6  C   UNL     1       2.220   7.388  19.654  0.00  0.00    +0.000 A 
ATOM      7  C   UNL     1       1.543   8.384  20.400  0.00  0.00    +0.000 A 
BRANCH   2   9
ATOM      8  O   UNL     1      -0.753  10.161  21.410  0.00  0.00    +0.000 OA
ATOM      9  S   UNL     1       0.265  10.827  20.629  0.00  0.00    +0.000 S 
ATOM     10  O   UNL     1       1.225  11.708  21.261  0.00  0.00    +0.000 OA
BRANCH   9  11
ATOM     11  N   UNL     1      -0.515  11.724  19.404  0.00  0.00    +0.000 NA
ATOM     12  C   UNL     1       0.007  13.086  19.080  0.00  0.00    +0.000 C 
ATOM     13  C   UNL     1      -0.448  14.141  20.094  0.00  0.00    +0.000 C 
ATOM     14  O   UNL     1      -1.876  14.169  20.217  0.00  0.00    +0.000 OA
ATOM     15  C   UNL     1      -2.393  12.887  20.602  0.00  0.00    +0.000 C 
ATOM     16  C   UNL     1      -2.009  11.807  19.579  0.00  0.00    +0.000 C 
ENDBRANCH   9  11
ENDBRANCH   2   9
ENDBRANCH   1   5
BRANCH   1  17
ATOM     17  C   UNL     1       4.327   6.934  16.883  0.00  0.00    +0.000 C 
BRANCH  17  18
ATOM     18  C   UNL     1       5.121   5.745  16.323  0.00  0.00    +0.000 C 
BRANCH  18  19
ATOM     19  O   UNL     1       6.020   6.206  15.302  0.00  0.00    +0.000 OA
ATOM     20  H   UNL     1       6.595   6.875  15.722  0.00  0.00    +0.000 HD
ENDBRANCH  18  19
BRANCH  18  21
ATOM     21  C   UNL     1       5.925   4.935  17.357  0.00  0.00    +0.000 C 
BRANCH  21  22
ATOM     22  N   UNL     1       5.254   3.812  18.033  0.00  0.00    +0.000 NA
ATOM     23  C   UNL     1       4.225   3.266  17.127  0.00  0.00    +0.000 C 
ATOM     24  C   UNL     1       3.553   2.061  17.777  0.00  0.00    +0.000 C 
ATOM     25  C   UNL     1       2.719   2.619  18.891  0.00  0.00    +0.000 A 
ATOM     26  C   UNL     1       1.390   2.221  19.073  0.00  0.00    +0.000 A 
ATOM     27  C   UNL     1       0.602   2.867  20.018  0.00  0.00    +0.000 A 
ATOM     28  C   UNL     1       1.154   3.871  20.813  0.00  0.00    +0.000 A 
ATOM     29  C   UNL     1       2.493   4.250  20.655  0.00  0.00    +0.000 A 
ATOM     30  C   UNL     1       3.283   3.653  19.665  0.00  0.00    +0.000 A 
ATOM     31  C   UNL     1       4.715   4.116  19.388  0.00  0.00    +0.000 C 
ENDBRANCH  21  22
ENDBRANCH  18  21
ENDBRANCH  17  18
ENDBRANCH   1  17
TORSDOF 8
ENDMDL
MODEL 4
REMARK VINA RESULT:      -7.7      1.274      1.316
REMARK  Name = 
REMARK  8 active torsions:
REMARK  status: ('A' for Active; 'I' for Inactive)
REMARK    1  A    between atoms: S_2  and  C_4
REMARK    2  A    between atoms: S_2  and  N_25
REMARK    3  A    between atoms: C_7  and  O_8
REMARK    4  A    between atoms: O_8  and  C_9
REMARK    5  A    between atoms: C_9  and  C_10
REMARK    6  A    between atoms: C_10  and  O_11
REMARK    7  A    between atoms: C_10  and  C_12
REMARK    8  A    between atoms: C_12  and  N_13
REMARK                            x       y       z     vdW  Elec       q    Type
REMARK                         _______ _______ _______ _____ _____    ______ ____
ROOT
ATOM      1  O   UNL     1       3.833   6.942  17.003  0.00  0.00    +0.000 OA
ENDROOT
BRANCH   1   5
ATOM      2  C   UNL     1       1.385   9.043  19.680  0.00  0.00    +0.000 A 
ATOM      3  C   UNL     1       1.908   7.806  20.064  0.00  0.00    +0.000 A 
ATOM      4  C   UNL     1       2.696   7.073  19.184  0.00  0.00    +0.000 A 
ATOM      5  C   UNL     1       3.003   7.571  17.910  0.00  0.00    +0.000 A 
ATOM      6  C   UNL     1       2.445   8.798  17.518  0.00  0.00    +0.000 A 
ATOM      7  C   UNL     1       1.622   9.539  18.401  0.00  0.00    +0.000 A 
BRANCH   2   9
ATOM      8  O   UNL     1      -0.854   9.315  20.985  0.00  0.00    +0.000 OA
ATOM      9  S   UNL     1       0.431   9.964  20.861  0.00  0.00    +0.000 S 
ATOM     10  O   UNL     1       1.271  10.172  22.022  0.00  0.00    +0.000 OA
BRANCH   9  11
ATOM     11  N   UNL     1       0.180  11.491  20.138  0.00  0.00    +0.000 NA
ATOM     12  C   UNL     1       0.724  12.700  20.827  0.00  0.00    +0.000 C 
ATOM     13  C   UNL     1      -0.157  13.148  21.998  0.00  0.00    +0.000 C 
ATOM     14  O   UNL     1      -1.510  13.377  21.580  0.00  0.00    +0.000 OA
ATOM     15  C   UNL     1      -2.077  12.202  20.982  0.00  0.00    +0.000 C 
ATOM     16  C   UNL     1      -1.256  11.750  19.765  0.00  0.00    +0.000 C 
ENDBRANCH   9  11
ENDBRANCH   2   9
ENDBRANCH   1   5
BRANCH   1  17
ATOM     17  C   UNL     1       5.239   7.073  17.296  0.00  0.00    +0.000 C 
BRANCH  17  18
ATOM     18  C   UNL     1       6.053   5.803  17.007  0.00  0.00    +0.000 C 
BRANCH  18  19
ATOM     19  O   UNL     1       7.285   6.161  16.360  0.00  0.00    +0.000 OA
ATOM     20  H   UNL     1       7.865   5.378  16.416  0.00  0.00    +0.000 HD
ENDBRANCH  18  19
BRANCH  18  21
ATOM     21  C   UNL     1       6.377   4.926  18.229  0.00  0.00    +0.000 C 
BRANCH  21  22
ATOM     22  N   UNL     1       5.512   3.765  18.500  0.00  0.00    +0.000 NA
ATOM     23  C   UNL     1       4.582   3.600  17.367  0.00  0.00    +0.000 C 
ATOM     24  C   UNL     1       3.712   2.367  17.590  0.00  0.00    +0.000 C 
ATOM     25  C   UNL     1       2.779   2.730  18.706  0.00  0.00    +0.000 A 
ATOM     26  C   UNL     1       1.407   2.473  18.618  0.00  0.00    +0.000 A 
ATOM     27  C   UNL     1       0.552   2.957  19.602  0.00  0.00    +0.000 A 
ATOM     28  C   UNL     1       1.073   3.651  20.694  0.00  0.00    +0.000 A 
ATOM     29  C   UNL     1       2.450   3.881  20.801  0.00  0.00    +0.000 A 
ATOM     30  C   UNL     1       3.317   3.456  19.787  0.00  0.00    +0.000 A 
ATOM     31  C   UNL     1       4.812   3.787  19.814  0.00  0.00    +0.000 C 
ENDBRANCH  21  22
ENDBRANCH  18  21
ENDBRANCH  17  18
ENDBRANCH   1  17
TORSDOF 8
ENDMDL
MODEL 5
REMARK VINA RESULT:      -7.6      1.405      1.809
REMARK  Name = 
REMARK  8 active torsions:
REMARK  status: ('A' for Active; 'I' for Inactive)
REMARK    1  A    between atoms: S_2  and  C_4
REMARK    2  A    between atoms: S_2  and  N_25
REMARK    3  A    between atoms: C_7  and  O_8
REMARK    4  A    between atoms: O_8  and  C_9
REMARK    5  A    between atoms: C_9  and  C_10
REMARK    6  A    between atoms: C_10  and  O_11
REMARK    7  A    between atoms: C_10  and  C_12
REMARK    8  A    between atoms: C_12  and  N_13
REMARK                            x       y       z     vdW  Elec       q    Type
REMARK                         _______ _______ _______ _____ _____    ______ ____
ROOT
ATOM      1  O   UNL     1       3.237   6.388  17.569  0.00  0.00    +0.000 OA
ENDROOT
BRANCH   1   5
ATOM      2  C   UNL     1       1.427   9.512  19.699  0.00  0.00    +0.000 A 
ATOM      3  C   UNL     1       1.628   8.285  20.333  0.00  0.00    +0.000 A 
ATOM      4  C   UNL     1       2.196   7.221  19.640  0.00  0.00    +0.000 A 
ATOM      5  C   UNL     1       2.603   7.368  18.306  0.00  0.00    +0.000 A 
ATOM      6  C   UNL     1       2.365   8.594  17.665  0.00  0.00    +0.000 A 
ATOM      7  C   UNL     1       1.765   9.674  18.358  0.00  0.00    +0.000 A 
BRANCH   2   9
ATOM      8  O   UNL     1       1.000  10.576  22.039  0.00  0.00    +0.000 OA
ATOM      9  S   UNL     1       0.749  10.854  20.644  0.00  0.00    +0.000 S 
ATOM     10  O   UNL     1       1.217  12.084  20.038  0.00  0.00    +0.000 OA
BRANCH   9  11
ATOM     11  N   UNL     1      -0.937  10.774  20.386  0.00  0.00    +0.000 NA
ATOM     12  C   UNL     1      -1.433  10.596  18.987  0.00  0.00    +0.000 C 
ATOM     13  C   UNL     1      -1.408  11.905  18.190  0.00  0.00    +0.000 C 
ATOM     14  O   UNL     1      -2.146  12.939  18.855  0.00  0.00    +0.000 OA
ATOM     15  C   UNL     1      -1.637  13.178  20.175  0.00  0.00    +0.000 C 
ATOM     16  C   UNL     1      -1.697  11.903  21.030  0.00  0.00    +0.000 C 
ENDBRANCH   9  11
ENDBRANCH   2   9
ENDBRANCH   1   5
BRANCH   1  17
ATOM     17  C   UNL     1       4.475   6.810  16.962  0.00  0.00    +0.000 C 
BRANCH  17  18
ATOM     18  C   UNL     1       5.325   5.652  16.417  0.00  0.00    +0.000 C 
BRANCH  18  19
ATOM     19  O   UNL     1       6.303   6.167  15.499  0.00  0.00    +0.000 OA
ATOM     20  H   UNL     1       6.175   5.684  14.659  0.00  0.00    +0.000 HD
ENDBRANCH  18  19
BRANCH  18  21
ATOM     21  C   UNL     1       6.044   4.797  17.475  0.00  0.00    +0.000 C 
BRANCH  21  22
ATOM     22  N   UNL     1       5.312   3.666  18.070  0.00  0.00    +0.000 NA
ATOM     23  C   UNL     1       4.260   3.242  17.127  0.00  0.00    +0.000 C 
ATOM     24  C   UNL     1       3.523   2.031  17.690  0.00  0.00    +0.000 C 
ATOM     25  C   UNL     1       2.714   2.552  18.840  0.00  0.00    +0.000 A 
ATOM     26  C   UNL     1       1.366   2.213  18.993  0.00  0.00    +0.000 A 
ATOM     27  C   UNL     1       0.609   2.832  19.982  0.00  0.00    +0.000 A 
ATOM     28  C   UNL     1       1.211   3.747  20.846  0.00  0.00    +0.000 A 
ATOM     29  C   UNL     1       2.569   4.064  20.716  0.00  0.00    +0.000 A 
ATOM     30  C   UNL     1       3.329   3.497  19.685  0.00  0.00    +0.000 A 
ATOM     31  C   UNL     1       4.785   3.903  19.443  0.00  0.00    +0.000 C 
ENDBRANCH  21  22
ENDBRANCH  18  21
ENDBRANCH  17  18
ENDBRANCH   1  17
TORSDOF 8
ENDMDL
MODEL 6
REMARK VINA RESULT:      -7.5      3.279      9.580
REMARK  Name = 
REMARK  8 active torsions:
REMARK  status: ('A' for Active; 'I' for Inactive)
REMARK    1  A    between atoms: S_2  and  C_4
REMARK    2  A    between atoms: S_2  and  N_25
REMARK    3  A    between atoms: C_7  and  O_8
REMARK    4  A    between atoms: O_8  and  C_9
REMARK    5  A    between atoms: C_9  and  C_10
REMARK    6  A    between atoms: C_10  and  O_11
REMARK    7  A    between atoms: C_10  and  C_12
REMARK    8  A    between atoms: C_12  and  N_13
REMARK                            x       y       z     vdW  Elec       q    Type
REMARK                         _______ _______ _______ _____ _____    ______ ____
ROOT
ATOM      1  O   UNL     1       0.758   9.975  19.923  0.00  0.00    +0.000 OA
ENDROOT
BRANCH   1   5
ATOM      2  C   UNL     1       3.055   6.716  18.632  0.00  0.00    +0.000 A 
ATOM      3  C   UNL     1       2.835   7.781  17.756  0.00  0.00    +0.000 A 
ATOM      4  C   UNL     1       2.049   8.859  18.147  0.00  0.00    +0.000 A 
ATOM      5  C   UNL     1       1.490   8.912  19.431  0.00  0.00    +0.000 A 
ATOM      6  C   UNL     1       1.686   7.822  20.293  0.00  0.00    +0.000 A 
ATOM      7  C   UNL     1       2.465   6.709  19.893  0.00  0.00    +0.000 A 
BRANCH   2   9
ATOM      8  O   UNL     1       4.822   4.908  19.267  0.00  0.00    +0.000 OA
ATOM      9  S   UNL     1       4.111   5.388  18.104  0.00  0.00    +0.000 S 
ATOM     10  O   UNL     1       3.302   4.488  17.308  0.00  0.00    +0.000 OA
BRANCH   9  11
ATOM     11  N   UNL     1       5.246   6.111  17.054  0.00  0.00    +0.000 NA
ATOM     12  C   UNL     1       5.455   5.499  15.706  0.00  0.00    +0.000 C 
ATOM     13  C   UNL     1       6.351   4.257  15.764  0.00  0.00    +0.000 C 
ATOM     14  O   UNL     1       7.611   4.546  16.383  0.00  0.00    +0.000 OA
ATOM     15  C   UNL     1       7.435   5.065  17.709  0.00  0.00    +0.000 C 
ATOM     16  C   UNL     1       6.589   6.347  17.692  0.00  0.00    +0.000 C 
ENDBRANCH   9  11
ENDBRANCH   2   9
ENDBRANCH   1   5
BRANCH   1  17
ATOM     17  C   UNL     1      -0.323   9.597  20.798  0.00  0.00    +0.000 C 
BRANCH  17  18
ATOM     18  C   UNL     1      -0.625  10.631  21.894  0.00  0.00    +0.000 C 
BRANCH  18  19
ATOM     19  O   UNL     1       0.235  10.400  23.021  0.00  0.00    +0.000 OA
ATOM     20  H   UNL     1       0.454   9.448  23.012  0.00  0.00    +0.000 HD
ENDBRANCH  18  19
BRANCH  18  21
ATOM     21  C   UNL     1      -0.498  12.106  21.472  0.00  0.00    +0.000 C 
BRANCH  21  22
ATOM     22  N   UNL     1      -1.708  12.800  20.999  0.00  0.00    +0.000 NA
ATOM     23  C   UNL     1      -2.805  12.525  21.945  0.00  0.00    +0.000 C 
ATOM     24  C   UNL     1      -4.058  13.281  21.515  0.00  0.00    +0.000 C 
ATOM     25  C   UNL     1      -4.539  12.589  20.275  0.00  0.00    +0.000 A 
ATOM     26  C   UNL     1      -5.884  12.240  20.113  0.00  0.00    +0.000 A 
ATOM     27  C   UNL     1      -6.267  11.467  19.023  0.00  0.00    +0.000 A 
ATOM     28  C   UNL     1      -5.319  11.088  18.073  0.00  0.00    +0.000 A 
ATOM     29  C   UNL     1      -3.977  11.464  18.215  0.00  0.00    +0.000 A 
ATOM     30  C   UNL     1      -3.564  12.188  19.340  0.00  0.00    +0.000 A 
ATOM     31  C   UNL     1      -2.090  12.520  19.587  0.00  0.00    +0.000 C 
ENDBRANCH  21  22
ENDBRANCH  18  21
ENDBRANCH  17  18
ENDBRANCH   1  17
TORSDOF 8
ENDMDL
MODEL 7
REMARK VINA RESULT:      -7.5      6.411     10.387
REMARK  Name = 
REMARK  8 active torsions:
REMARK  status: ('A' for Active; 'I' for Inactive)
REMARK    1  A    between atoms: S_2  and  C_4
REMARK    2  A    between atoms: S_2  and  N_25
REMARK    3  A    between atoms: C_7  and  O_8
REMARK    4  A    between atoms: O_8  and  C_9
REMARK    5  A    between atoms: C_9  and  C_10
REMARK    6  A    between atoms: C_10  and  O_11
REMARK    7  A    between atoms: C_10  and  C_12
REMARK    8  A    between atoms: C_12  and  N_13
REMARK                            x       y       z     vdW  Elec       q    Type
REMARK                         _______ _______ _______ _____ _____    ______ ____
ROOT
ATOM      1  O   UNL     1       8.476   8.116  17.636  0.00  0.00    +0.000 OA
ENDROOT
BRANCH   1   5
ATOM      2  C   UNL     1       5.528   5.176  18.117  0.00  0.00    +0.000 A 
ATOM      3  C   UNL     1       6.672   5.127  18.915  0.00  0.00    +0.000 A 
ATOM      4  C   UNL     1       7.681   6.071  18.753  0.00  0.00    +0.000 A 
ATOM      5  C   UNL     1       7.557   7.101  17.811  0.00  0.00    +0.000 A 
ATOM      6  C   UNL     1       6.420   7.122  16.988  0.00  0.00    +0.000 A 
ATOM      7  C   UNL     1       5.400   6.150  17.131  0.00  0.00    +0.000 A 
BRANCH   2   9
ATOM      8  O   UNL     1       4.177   3.129  17.234  0.00  0.00    +0.000 OA
ATOM      9  S   UNL     1       4.245   3.981  18.399  0.00  0.00    +0.000 S 
ATOM     10  O   UNL     1       4.466   3.418  19.715  0.00  0.00    +0.000 OA
BRANCH   9  11
ATOM     11  N   UNL     1       2.800   4.887  18.474  0.00  0.00    +0.000 NA
ATOM     12  C   UNL     1       2.486   5.619  19.738  0.00  0.00    +0.000 C 
ATOM     13  C   UNL     1       1.921   4.695  20.822  0.00  0.00    +0.000 C 
ATOM     14  O   UNL     1       0.767   3.983  20.357  0.00  0.00    +0.000 OA
ATOM     15  C   UNL     1       1.066   3.212  19.184  0.00  0.00    +0.000 C 
ATOM     16  C   UNL     1       1.581   4.110  18.049  0.00  0.00    +0.000 C 
ENDBRANCH   9  11
ENDBRANCH   2   9
ENDBRANCH   1   5
BRANCH   1  17
ATOM     17  C   UNL     1       7.933   9.442  17.792  0.00  0.00    +0.000 C 
BRANCH  17  18
ATOM     18  C   UNL     1       8.802  10.371  18.653  0.00  0.00    +0.000 C 
BRANCH  18  19
ATOM     19  O   UNL     1       9.330   9.635  19.769  0.00  0.00    +0.000 OA
ATOM     20  H   UNL     1      10.294   9.573  19.628  0.00  0.00    +0.000 HD
ENDBRANCH  18  19
BRANCH  18  21
ATOM     21  C   UNL     1       9.968  11.060  17.922  0.00  0.00    +0.000 C 
BRANCH  21  22
ATOM     22  N   UNL     1       9.928  12.525  17.776  0.00  0.00    +0.000 NA
ATOM     23  C   UNL     1      11.199  12.970  17.175  0.00  0.00    +0.000 C 
ATOM     24  C   UNL     1      11.164  14.479  16.954  0.00  0.00    +0.000 C 
ATOM     25  C   UNL     1      11.239  15.087  18.322  0.00  0.00    +0.000 A 
ATOM     26  C   UNL     1      12.120  16.137  18.603  0.00  0.00    +0.000 A 
ATOM     27  C   UNL     1      12.272  16.575  19.914  0.00  0.00    +0.000 A 
ATOM     28  C   UNL     1      11.510  16.000  20.931  0.00  0.00    +0.000 A 
ATOM     29  C   UNL     1      10.603  14.971  20.647  0.00  0.00    +0.000 A 
ATOM     30  C   UNL     1      10.484  14.475  19.343  0.00  0.00    +0.000 A 
ATOM     31  C   UNL     1       9.588  13.279  19.015  0.00  0.00    +0.000 C 
ENDBRANCH  21  22
ENDBRANCH  18  21
ENDBRANCH  17  18
ENDBRANCH   1  17
TORSDOF 8
ENDMDL
MODEL 8
REMARK VINA RESULT:      -7.5      3.566      9.944
REMARK  Name = 
REMARK  8 active torsions:
REMARK  status: ('A' for Active; 'I' for Inactive)
REMARK    1  A    between atoms: S_2  and  C_4
REMARK    2  A    between atoms: S_2  and  N_25
REMARK    3  A    between atoms: C_7  and  O_8
REMARK    4  A    between atoms: O_8  and  C_9
REMARK    5  A    between atoms: C_9  and  C_10
REMARK    6  A    between atoms: C_10  and  O_11
REMARK    7  A    between atoms: C_10  and  C_12
REMARK    8  A    between atoms: C_12  and  N_13
REMARK                            x       y       z     vdW  Elec       q    Type
REMARK                         _______ _______ _______ _____ _____    ______ ____
ROOT
ATOM      1  O   UNL     1       0.621  10.018  19.485  0.00  0.00    +0.000 OA
ENDROOT
BRANCH   1   5
ATOM      2  C   UNL     1       3.133   6.784  18.592  0.00  0.00    +0.000 A 
ATOM      3  C   UNL     1       2.929   7.772  17.627  0.00  0.00    +0.000 A 
ATOM      4  C   UNL     1       2.075   8.839  17.885  0.00  0.00    +0.000 A 
ATOM      5  C   UNL     1       1.428   8.957  19.122  0.00  0.00    +0.000 A 
ATOM      6  C   UNL     1       1.609   7.941  20.073  0.00  0.00    +0.000 A 
ATOM      7  C   UNL     1       2.459   6.840  19.809  0.00  0.00    +0.000 A 
BRANCH   2   9
ATOM      8  O   UNL     1       4.856   5.045  19.487  0.00  0.00    +0.000 OA
ATOM      9  S   UNL     1       4.276   5.472  18.234  0.00  0.00    +0.000 S 
ATOM     10  O   UNL     1       3.589   4.528  17.376  0.00  0.00    +0.000 OA
BRANCH   9  11
ATOM     11  N   UNL     1       5.510   6.196  17.303  0.00  0.00    +0.000 NA
ATOM     12  C   UNL     1       5.702   5.731  15.895  0.00  0.00    +0.000 C 
ATOM     13  C   UNL     1       6.470   4.407  15.820  0.00  0.00    +0.000 C 
ATOM     14  O   UNL     1       7.732   4.492  16.495  0.00  0.00    +0.000 OA
ATOM     15  C   UNL     1       7.564   4.865  17.871  0.00  0.00    +0.000 C 
ATOM     16  C   UNL     1       6.848   6.218  17.993  0.00  0.00    +0.000 C 
ENDBRANCH   9  11
ENDBRANCH   2   9
ENDBRANCH   1   5
BRANCH   1  17
ATOM     17  C   UNL     1       0.250  10.881  18.392  0.00  0.00    +0.000 C 
BRANCH  17  18
ATOM     18  C   UNL     1      -0.673  12.039  18.802  0.00  0.00    +0.000 C 
BRANCH  18  19
ATOM     19  O   UNL     1      -1.078  12.767  17.631  0.00  0.00    +0.000 OA
ATOM     20  H   UNL     1      -1.086  12.124  16.896  0.00  0.00    +0.000 HD
ENDBRANCH  18  19
BRANCH  18  21
ATOM     21  C   UNL     1      -1.930  11.641  19.594  0.00  0.00    +0.000 C 
BRANCH  21  22
ATOM     22  N   UNL     1      -2.532  12.642  20.492  0.00  0.00    +0.000 NA
ATOM     23  C   UNL     1      -2.197  12.285  21.883  0.00  0.00    +0.000 C 
ATOM     24  C   UNL     1      -2.755  13.338  22.835  0.00  0.00    +0.000 C 
ATOM     25  C   UNL     1      -4.242  13.147  22.817  0.00  0.00    +0.000 A 
ATOM     26  C   UNL     1      -4.983  13.099  24.002  0.00  0.00    +0.000 A 
ATOM     27  C   UNL     1      -6.333  12.770  23.957  0.00  0.00    +0.000 A 
ATOM     28  C   UNL     1      -6.951  12.542  22.728  0.00  0.00    +0.000 A 
ATOM     29  C   UNL     1      -6.219  12.621  21.536  0.00  0.00    +0.000 A 
ATOM     30  C   UNL     1      -4.845  12.888  21.569  0.00  0.00    +0.000 A 
ATOM     31  C   UNL     1      -3.991  12.874  20.299  0.00  0.00    +0.000 C 
ENDBRANCH  21  22
ENDBRANCH  18  21
ENDBRANCH  17  18
ENDBRANCH   1  17
TORSDOF 8
ENDMDL
MODEL 9
REMARK VINA RESULT:      -7.5      3.041      9.068
REMARK  Name = 
REMARK  8 active torsions:
REMARK  status: ('A' for Active; 'I' for Inactive)
REMARK    1  A    between atoms: S_2  and  C_4
REMARK    2  A    between atoms: S_2  and  N_25
REMARK    3  A    between atoms: C_7  and  O_8
REMARK    4  A    between atoms: O_8  and  C_9
REMARK    5  A    between atoms: C_9  and  C_10
REMARK    6  A    between atoms: C_10  and  O_11
REMARK    7  A    between atoms: C_10  and  C_12
REMARK    8  A    between atoms: C_12  and  N_13
REMARK                            x       y       z     vdW  Elec       q    Type
REMARK                         _______ _______ _______ _____ _____    ______ ____
ROOT
ATOM      1  O   UNL     1       1.393   8.174  21.604  0.00  0.00    +0.000 OA
ENDROOT
BRANCH   1   5
ATOM      2  C   UNL     1       3.042   5.517  18.814  0.00  0.00    +0.000 A 
ATOM      3  C   UNL     1       2.797   6.837  18.432  0.00  0.00    +0.000 A 
ATOM      4  C   UNL     1       2.220   7.731  19.327  0.00  0.00    +0.000 A 
ATOM      5  C   UNL     1       1.901   7.334  20.633  0.00  0.00    +0.000 A 
ATOM      6  C   UNL     1       2.117   5.996  20.998  0.00  0.00    +0.000 A 
ATOM      7  C   UNL     1       2.683   5.074  20.084  0.00  0.00    +0.000 A 
BRANCH   2   9
ATOM      8  O   UNL     1       4.678   3.530  18.401  0.00  0.00    +0.000 OA
ATOM      9  S   UNL     1       3.831   4.430  17.652  0.00  0.00    +0.000 S 
ATOM     10  O   UNL     1       2.798   3.916  16.776  0.00  0.00    +0.000 OA
BRANCH   9  11
ATOM     11  N   UNL     1       4.837   5.437  16.710  0.00  0.00    +0.000 NA
ATOM     12  C   UNL     1       5.243   4.964  15.351  0.00  0.00    +0.000 C 
ATOM     13  C   UNL     1       6.380   3.939  15.407  0.00  0.00    +0.000 C 
ATOM     14  O   UNL     1       7.515   4.451  16.117  0.00  0.00    +0.000 OA
ATOM     15  C   UNL     1       7.163   4.842  17.453  0.00  0.00    +0.000 C 
ATOM     16  C   UNL     1       6.064   5.915  17.443  0.00  0.00    +0.000 C 
ENDBRANCH   9  11
ENDBRANCH   2   9
ENDBRANCH   1   5
BRANCH   1  17
ATOM     17  C   UNL     1      -0.038   8.342  21.553  0.00  0.00    +0.000 C 
BRANCH  17  18
ATOM     18  C   UNL     1      -0.528   9.676  22.137  0.00  0.00    +0.000 C 
BRANCH  18  19
ATOM     19  O   UNL     1      -0.382   9.654  23.566  0.00  0.00    +0.000 OA
ATOM     20  H   UNL     1      -0.841  10.448  23.903  0.00  0.00    +0.000 HD
ENDBRANCH  18  19
BRANCH  18  21
ATOM     21  C   UNL     1       0.164  10.937  21.591  0.00  0.00    +0.000 C 
BRANCH  21  22
ATOM     22  N   UNL     1      -0.491  11.669  20.494  0.00  0.00    +0.000 NA
ATOM     23  C   UNL     1      -1.909  11.873  20.848  0.00  0.00    +0.000 C 
ATOM     24  C   UNL     1      -2.601  12.683  19.756  0.00  0.00    +0.000 C 
ATOM     25  C   UNL     1      -2.706  11.761  18.578  0.00  0.00    +0.000 A 
ATOM     26  C   UNL     1      -3.904  11.623  17.869  0.00  0.00    +0.000 A 
ATOM     27  C   UNL     1      -4.009  10.651  16.880  0.00  0.00    +0.000 A 
ATOM     28  C   UNL     1      -2.906   9.857  16.567  0.00  0.00    +0.000 A 
ATOM     29  C   UNL     1      -1.695  10.015  17.253  0.00  0.00    +0.000 A 
ATOM     30  C   UNL     1      -1.592  10.946  18.295  0.00  0.00    +0.000 A 
ATOM     31  C   UNL     1      -0.322  11.070  19.140  0.00  0.00    +0.000 C 
ENDBRANCH  21  22
ENDBRANCH  18  21
ENDBRANCH  17  18
ENDBRANCH   1  17
TORSDOF 8
ENDMDL
