MODEL 1
REMARK VINA RESULT:      -8.7      0.000      0.000
REMARK  Name = 
REMARK  2 active torsions:
REMARK  status: ('A' for Active; 'I' for Inactive)
REMARK    1  A    between atoms: C_6  and  C_7
REMARK    2  A    between atoms: C_10  and  C_11
REMARK                            x       y       z     vdW  Elec       q    Type
REMARK                         _______ _______ _______ _____ _____    ______ ____
ROOT
ATOM      1  C   UNL     1       2.676   5.702  19.405  0.00  0.00    +0.000 A 
ATOM      2  C   UNL     1       2.290   5.568  20.718  0.00  0.00    +0.000 A 
ATOM      3  N   UNL     1       1.712   6.760  21.039  0.00  0.00    +0.000 N 
ATOM      4  C   UNL     1       1.745   7.567  19.929  0.00  0.00    +0.000 A 
ATOM      5  N   UNL     1       2.307   6.936  18.918  0.00  0.00    +0.000 NA
ATOM      6  H   UNL     1       1.333   7.024  21.935  0.00  0.00    +0.000 HD
ENDROOT
BRANCH   1  12
ATOM      7 BR   UNL     1       7.170   4.804  13.802  0.00  0.00    +0.000 Br
ATOM      8  C   UNL     1       5.971   4.881  15.265  0.00  0.00    +0.000 A 
ATOM      9  C   UNL     1       5.414   6.103  15.628  0.00  0.00    +0.000 A 
ATOM     10  C   UNL     1       4.538   6.180  16.718  0.00  0.00    +0.000 A 
ATOM     11  C   UNL     1       4.219   5.018  17.452  0.00  0.00    +0.000 A 
ATOM     12  C   UNL     1       3.418   4.733  18.600  0.00  0.00    +0.000 A 
ATOM     13  C   UNL     1       3.502   3.376  18.841  0.00  0.00    +0.000 A 
ATOM     14  N   UNL     1       4.326   2.830  17.896  0.00  0.00    +0.000 N 
ATOM     15  C   UNL     1       4.789   3.806  17.045  0.00  0.00    +0.000 A 
ATOM     16  C   UNL     1       5.669   3.706  15.958  0.00  0.00    +0.000 A 
ATOM     17  H   UNL     1       4.579   1.853  17.837  0.00  0.00    +0.000 HD
ENDBRANCH   1  12
BRANCH   4  18
ATOM     18  C   UNL     1       1.229   8.966  19.909  0.00  0.00    +0.000 A 
ATOM     19  C   UNL     1       1.419   9.846  18.865  0.00  0.00    +0.000 A 
ATOM     20  N   UNL     1       0.779  11.015  19.182  0.00  0.00    +0.000 N 
ATOM     21  C   UNL     1       0.205  10.923  20.429  0.00  0.00    +0.000 A 
ATOM     22  C   UNL     1      -0.520  11.877  21.155  0.00  0.00    +0.000 A 
ATOM     23  C   UNL     1      -0.976  11.507  22.423  0.00  0.00    +0.000 A 
ATOM     24 BR   UNL     1      -1.938  12.769  23.456  0.00  0.00    +0.000 Br
ATOM     25  C   UNL     1      -0.732  10.238  22.941  0.00  0.00    +0.000 A 
ATOM     26  C   UNL     1      -0.017   9.295  22.193  0.00  0.00    +0.000 A 
ATOM     27  C   UNL     1       0.468   9.638  20.913  0.00  0.00    +0.000 A 
ATOM     28  H   UNL     1       0.736  11.837  18.594  0.00  0.00    +0.000 HD
ENDBRANCH   4  18
TORSDOF 2
ENDMDL
MODEL 2
REMARK VINA RESULT:      -8.7      2.363      8.521
REMARK  Name = 
REMARK  2 active torsions:
REMARK  status: ('A' for Active; 'I' for Inactive)
REMARK    1  A    between atoms: C_6  and  C_7
REMARK    2  A    between atoms: C_10  and  C_11
REMARK                            x       y       z     vdW  Elec       q    Type
REMARK                         _______ _______ _______ _____ _____    ______ ____
ROOT
ATOM      1  C   UNL     1       1.167   9.080  19.945  0.00  0.00    +0.000 A 
ATOM      2  C   UNL     1       1.245   8.547  21.210  0.00  0.00    +0.000 A 
ATOM      3  N   UNL     1       1.923   7.374  21.057  0.00  0.00    +0.000 N 
ATOM      4  C   UNL     1       2.248   7.235  19.730  0.00  0.00    +0.000 A 
ATOM      5  N   UNL     1       1.818   8.272  19.040  0.00  0.00    +0.000 NA
ATOM      6  H   UNL     1       2.144   6.707  21.779  0.00  0.00    +0.000 HD
ENDROOT
BRANCH   1  12
ATOM      7 BR   UNL     1      -4.812  11.788  16.893  0.00  0.00    +0.000 Br
ATOM      8  C   UNL     1      -3.184  11.225  17.678  0.00  0.00    +0.000 A 
ATOM      9  C   UNL     1      -2.902   9.866  17.766  0.00  0.00    +0.000 A 
ATOM     10  C   UNL     1      -1.709   9.432  18.358  0.00  0.00    +0.000 A 
ATOM     11  C   UNL     1      -0.790  10.374  18.868  0.00  0.00    +0.000 A 
ATOM     12  C   UNL     1       0.467  10.299  19.543  0.00  0.00    +0.000 A 
ATOM     13  C   UNL     1       0.886  11.591  19.787  0.00  0.00    +0.000 A 
ATOM     14  N   UNL     1      -0.066  12.444  19.299  0.00  0.00    +0.000 N 
ATOM     15  C   UNL     1      -1.105  11.732  18.746  0.00  0.00    +0.000 A 
ATOM     16  C   UNL     1      -2.293  12.189  18.159  0.00  0.00    +0.000 A 
ATOM     17  H   UNL     1      -0.027  13.452  19.350  0.00  0.00    +0.000 HD
ENDBRANCH   1  12
BRANCH   4  18
ATOM     18  C   UNL     1       2.969   6.054  19.176  0.00  0.00    +0.000 A 
ATOM     19  C   UNL     1       2.922   4.790  19.725  0.00  0.00    +0.000 A 
ATOM     20  N   UNL     1       3.672   3.961  18.933  0.00  0.00    +0.000 N 
ATOM     21  C   UNL     1       4.234   4.670  17.897  0.00  0.00    +0.000 A 
ATOM     22  C   UNL     1       5.085   4.236  16.872  0.00  0.00    +0.000 A 
ATOM     23  C   UNL     1       5.522   5.194  15.953  0.00  0.00    +0.000 A 
ATOM     24 BR   UNL     1       6.694   4.664  14.563  0.00  0.00    +0.000 Br
ATOM     25  C   UNL     1       5.120   6.524  16.043  0.00  0.00    +0.000 A 
ATOM     26  C   UNL     1       4.259   6.934  17.068  0.00  0.00    +0.000 A 
ATOM     27  C   UNL     1       3.807   5.995  18.020  0.00  0.00    +0.000 A 
ATOM     28  H   UNL     1       3.805   2.970  19.085  0.00  0.00    +0.000 HD
ENDBRANCH   4  18
TORSDOF 2
ENDMDL
MODEL 3
REMARK VINA RESULT:      -8.7      0.476      8.875
REMARK  Name = 
REMARK  2 active torsions:
REMARK  status: ('A' for Active; 'I' for Inactive)
REMARK    1  A    between atoms: C_6  and  C_7
REMARK    2  A    between atoms: C_10  and  C_11
REMARK                            x       y       z     vdW  Elec       q    Type
REMARK                         _______ _______ _______ _____ _____    ______ ____
ROOT
ATOM      1  C   UNL     1       1.699   7.890  20.080  0.00  0.00    +0.000 A 
ATOM      2  C   UNL     1       1.574   7.035  21.150  0.00  0.00    +0.000 A 
ATOM      3  N   UNL     1       2.252   5.910  20.781  0.00  0.00    +0.000 N 
ATOM      4  C   UNL     1       2.774   6.113  19.528  0.00  0.00    +0.000 A 
ATOM      5  N   UNL     1       2.469   7.319  19.092  0.00  0.00    +0.000 NA
ATOM      6  H   UNL     1       2.350   5.063  21.319  0.00  0.00    +0.000 HD
ENDROOT
BRANCH   1  12
ATOM      7 BR   UNL     1      -2.160  13.075  23.339  0.00  0.00    +0.000 Br
ATOM      8  C   UNL     1      -1.178  11.795  22.349  0.00  0.00    +0.000 A 
ATOM      9  C   UNL     1      -0.890  10.561  22.923  0.00  0.00    +0.000 A 
ATOM     10  C   UNL     1      -0.151   9.609  22.211  0.00  0.00    +0.000 A 
ATOM     11  C   UNL     1       0.305   9.900  20.907  0.00  0.00    +0.000 A 
ATOM     12  C   UNL     1       1.085   9.209  19.929  0.00  0.00    +0.000 A 
ATOM     13  C   UNL     1       1.191  10.030  18.825  0.00  0.00    +0.000 A 
ATOM     14  N   UNL     1       0.520  11.190  19.095  0.00  0.00    +0.000 N 
ATOM     15  C   UNL     1      -0.019  11.146  20.360  0.00  0.00    +0.000 A 
ATOM     16  C   UNL     1      -0.756  12.115  21.055  0.00  0.00    +0.000 A 
ATOM     17  H   UNL     1       0.442  11.979  18.468  0.00  0.00    +0.000 HD
ENDBRANCH   1  12
BRANCH   4  18
ATOM     18  C   UNL     1       3.555   5.085  18.782  0.00  0.00    +0.000 A 
ATOM     19  C   UNL     1       3.678   3.770  19.176  0.00  0.00    +0.000 A 
ATOM     20  N   UNL     1       4.432   3.119  18.236  0.00  0.00    +0.000 N 
ATOM     21  C   UNL     1       4.832   3.996  17.255  0.00  0.00    +0.000 A 
ATOM     22  C   UNL     1       5.628   3.773  16.124  0.00  0.00    +0.000 A 
ATOM     23  C   UNL     1       5.890   4.870  15.297  0.00  0.00    +0.000 A 
ATOM     24 BR   UNL     1       6.983   4.628  13.770  0.00  0.00    +0.000 Br
ATOM     25  C   UNL     1       5.371   6.131  15.578  0.00  0.00    +0.000 A 
ATOM     26  C   UNL     1       4.566   6.329  16.707  0.00  0.00    +0.000 A 
ATOM     27  C   UNL     1       4.291   5.246  17.569  0.00  0.00    +0.000 A 
ATOM     28  H   UNL     1       4.673   2.137  18.256  0.00  0.00    +0.000 HD
ENDBRANCH   4  18
TORSDOF 2
ENDMDL
MODEL 4
REMARK VINA RESULT:      -8.6      2.191      8.574
REMARK  Name = 
REMARK  2 active torsions:
REMARK  status: ('A' for Active; 'I' for Inactive)
REMARK    1  A    between atoms: C_6  and  C_7
REMARK    2  A    between atoms: C_10  and  C_11
REMARK                            x       y       z     vdW  Elec       q    Type
REMARK                         _______ _______ _______ _____ _____    ______ ____
ROOT
ATOM      1  C   UNL     1       1.014   9.363  19.726  0.00  0.00    +0.000 A 
ATOM      2  C   UNL     1       1.031   8.953  21.039  0.00  0.00    +0.000 A 
ATOM      3  N   UNL     1       1.730   7.783  21.032  0.00  0.00    +0.000 N 
ATOM      4  C   UNL     1       2.127   7.525  19.743  0.00  0.00    +0.000 A 
ATOM      5  N   UNL     1       1.721   8.485  18.937  0.00  0.00    +0.000 NA
ATOM      6  H   UNL     1       1.921   7.191  21.825  0.00  0.00    +0.000 HD
ENDROOT
BRANCH   1  12
ATOM      7 BR   UNL     1       0.937  16.587  19.264  0.00  0.00    +0.000 Br
ATOM      8  C   UNL     1       0.810  14.699  19.323  0.00  0.00    +0.000 A 
ATOM      9  C   UNL     1       1.699  13.979  20.113  0.00  0.00    +0.000 A 
ATOM     10  C   UNL     1       1.629  12.581  20.157  0.00  0.00    +0.000 A 
ATOM     11  C   UNL     1       0.656  11.899  19.396  0.00  0.00    +0.000 A 
ATOM     12  C   UNL     1       0.321  10.527  19.175  0.00  0.00    +0.000 A 
ATOM     13  C   UNL     1      -0.755  10.495  18.311  0.00  0.00    +0.000 A 
ATOM     14  N   UNL     1      -1.079  11.785  17.992  0.00  0.00    +0.000 N 
ATOM     15  C   UNL     1      -0.229  12.661  18.626  0.00  0.00    +0.000 A 
ATOM     16  C   UNL     1      -0.177  14.060  18.566  0.00  0.00    +0.000 A 
ATOM     17  H   UNL     1      -1.823  12.061  17.365  0.00  0.00    +0.000 HD
ENDBRANCH   1  12
BRANCH   4  18
ATOM     18  C   UNL     1       2.891   6.310  19.342  0.00  0.00    +0.000 A 
ATOM     19  C   UNL     1       2.875   5.120  20.038  0.00  0.00    +0.000 A 
ATOM     20  N   UNL     1       3.660   4.226  19.358  0.00  0.00    +0.000 N 
ATOM     21  C   UNL     1       4.214   4.824  18.251  0.00  0.00    +0.000 A 
ATOM     22  C   UNL     1       5.091   4.297  17.293  0.00  0.00    +0.000 A 
ATOM     23  C   UNL     1       5.511   5.152  16.270  0.00  0.00    +0.000 A 
ATOM     24 BR   UNL     1       6.717   4.498  14.965  0.00  0.00    +0.000 Br
ATOM     25  C   UNL     1       5.068   6.470  16.196  0.00  0.00    +0.000 A 
ATOM     26  C   UNL     1       4.181   6.972  17.156  0.00  0.00    +0.000 A 
ATOM     27  C   UNL     1       3.745   6.140  18.210  0.00  0.00    +0.000 A 
ATOM     28  H   UNL     1       3.821   3.265  19.629  0.00  0.00    +0.000 HD
ENDBRANCH   4  18
TORSDOF 2
ENDMDL
MODEL 5
REMARK VINA RESULT:      -8.6      1.229      1.314
REMARK  Name = 
REMARK  2 active torsions:
REMARK  status: ('A' for Active; 'I' for Inactive)
REMARK    1  A    between atoms: C_6  and  C_7
REMARK    2  A    between atoms: C_10  and  C_11
REMARK                            x       y       z     vdW  Elec       q    Type
REMARK                         _______ _______ _______ _____ _____    ______ ____
ROOT
ATOM      1  C   UNL     1       3.779   5.918  19.024  0.00  0.00    +0.000 A 
ATOM      2  C   UNL     1       3.011   5.462  20.069  0.00  0.00    +0.000 A 
ATOM      3  N   UNL     1       2.076   6.434  20.269  0.00  0.00    +0.000 N 
ATOM      4  C   UNL     1       2.285   7.429  19.346  0.00  0.00    +0.000 A 
ATOM      5  N   UNL     1       3.302   7.125  18.565  0.00  0.00    +0.000 NA
ATOM      6  H   UNL     1       1.356   6.442  20.975  0.00  0.00    +0.000 HD
ENDROOT
BRANCH   1  12
ATOM      7 BR   UNL     1       7.673   4.787  13.027  0.00  0.00    +0.000 Br
ATOM      8  C   UNL     1       6.743   4.970  14.666  0.00  0.00    +0.000 A 
ATOM      9  C   UNL     1       5.514   5.621  14.685  0.00  0.00    +0.000 A 
ATOM     10  C   UNL     1       4.820   5.779  15.891  0.00  0.00    +0.000 A 
ATOM     11  C   UNL     1       5.368   5.279  17.092  0.00  0.00    +0.000 A 
ATOM     12  C   UNL     1       4.973   5.285  18.465  0.00  0.00    +0.000 A 
ATOM     13  C   UNL     1       5.946   4.618  19.181  0.00  0.00    +0.000 A 
ATOM     14  N   UNL     1       6.916   4.218  18.304  0.00  0.00    +0.000 N 
ATOM     15  C   UNL     1       6.599   4.617  17.027  0.00  0.00    +0.000 A 
ATOM     16  C   UNL     1       7.311   4.449  15.832  0.00  0.00    +0.000 A 
ATOM     17  H   UNL     1       7.758   3.716  18.554  0.00  0.00    +0.000 HD
ENDBRANCH   1  12
BRANCH   4  18
ATOM     18  C   UNL     1       1.472   8.676  19.278  0.00  0.00    +0.000 A 
ATOM     19  C   UNL     1       1.275   9.411  18.128  0.00  0.00    +0.000 A 
ATOM     20  N   UNL     1       0.453  10.462  18.438  0.00  0.00    +0.000 N 
ATOM     21  C   UNL     1       0.138  10.444  19.777  0.00  0.00    +0.000 A 
ATOM     22  C   UNL     1      -0.646  11.330  20.525  0.00  0.00    +0.000 A 
ATOM     23  C   UNL     1      -0.781  11.070  21.892  0.00  0.00    +0.000 A 
ATOM     24 BR   UNL     1      -1.810  12.254  22.954  0.00  0.00    +0.000 Br
ATOM     25  C   UNL     1      -0.172   9.969  22.485  0.00  0.00    +0.000 A 
ATOM     26  C   UNL     1       0.597   9.087  21.716  0.00  0.00    +0.000 A 
ATOM     27  C   UNL     1       0.764   9.325  20.335  0.00  0.00    +0.000 A 
ATOM     28  H   UNL     1       0.125  11.161  17.784  0.00  0.00    +0.000 HD
ENDBRANCH   4  18
TORSDOF 2
ENDMDL
MODEL 6
REMARK VINA RESULT:      -8.4      1.696      2.367
REMARK  Name = 
REMARK  2 active torsions:
REMARK  status: ('A' for Active; 'I' for Inactive)
REMARK    1  A    between atoms: C_6  and  C_7
REMARK    2  A    between atoms: C_10  and  C_11
REMARK                            x       y       z     vdW  Elec       q    Type
REMARK                         _______ _______ _______ _____ _____    ______ ____
ROOT
ATOM      1  C   UNL     1       4.312   6.497  17.812  0.00  0.00    +0.000 A 
ATOM      2  C   UNL     1       3.766   5.784  18.854  0.00  0.00    +0.000 A 
ATOM      3  N   UNL     1       2.713   6.537  19.282  0.00  0.00    +0.000 N 
ATOM      4  C   UNL     1       2.637   7.659  18.493  0.00  0.00    +0.000 A 
ATOM      5  N   UNL     1       3.585   7.643  17.579  0.00  0.00    +0.000 NA
ATOM      6  H   UNL     1       2.096   6.328  20.051  0.00  0.00    +0.000 HD
ENDROOT
BRANCH   1  12
ATOM      7 BR   UNL     1       6.930   3.140  11.958  0.00  0.00    +0.000 Br
ATOM      8  C   UNL     1       6.396   4.029  13.542  0.00  0.00    +0.000 A 
ATOM      9  C   UNL     1       5.061   3.989  13.931  0.00  0.00    +0.000 A 
ATOM     10  C   UNL     1       4.646   4.654  15.091  0.00  0.00    +0.000 A 
ATOM     11  C   UNL     1       5.582   5.369  15.868  0.00  0.00    +0.000 A 
ATOM     12  C   UNL     1       5.516   6.166  17.052  0.00  0.00    +0.000 A 
ATOM     13  C   UNL     1       6.795   6.604  17.331  0.00  0.00    +0.000 A 
ATOM     14  N   UNL     1       7.629   6.116  16.362  0.00  0.00    +0.000 N 
ATOM     15  C   UNL     1       6.917   5.372  15.451  0.00  0.00    +0.000 A 
ATOM     16  C   UNL     1       7.355   4.715  14.293  0.00  0.00    +0.000 A 
ATOM     17  H   UNL     1       8.623   6.289  16.308  0.00  0.00    +0.000 HD
ENDBRANCH   1  12
BRANCH   4  18
ATOM     18  C   UNL     1       1.624   8.735  18.685  0.00  0.00    +0.000 A 
ATOM     19  C   UNL     1       1.104   9.500  17.662  0.00  0.00    +0.000 A 
ATOM     20  N   UNL     1       0.182  10.355  18.205  0.00  0.00    +0.000 N 
ATOM     21  C   UNL     1       0.118  10.184  19.569  0.00  0.00    +0.000 A 
ATOM     22  C   UNL     1      -0.662  10.855  20.520  0.00  0.00    +0.000 A 
ATOM     23  C   UNL     1      -0.506  10.479  21.857  0.00  0.00    +0.000 A 
ATOM     24 BR   UNL     1      -1.516  11.373  23.186  0.00  0.00    +0.000 Br
ATOM     25  C   UNL     1       0.378   9.470  22.230  0.00  0.00    +0.000 A 
ATOM     26  C   UNL     1       1.138   8.803  21.261  0.00  0.00    +0.000 A 
ATOM     27  C   UNL     1       1.014   9.165  19.902  0.00  0.00    +0.000 A 
ATOM     28  H   UNL     1      -0.371  11.026  17.687  0.00  0.00    +0.000 HD
ENDBRANCH   4  18
TORSDOF 2
ENDMDL
MODEL 7
REMARK VINA RESULT:      -8.4      1.189      9.018
REMARK  Name = 
REMARK  2 active torsions:
REMARK  status: ('A' for Active; 'I' for Inactive)
REMARK    1  A    between atoms: C_6  and  C_7
REMARK    2  A    between atoms: C_10  and  C_11
REMARK                            x       y       z     vdW  Elec       q    Type
REMARK                         _______ _______ _______ _____ _____    ______ ____
ROOT
ATOM      1  C   UNL     1       1.245   9.118  20.220  0.00  0.00    +0.000 A 
ATOM      2  C   UNL     1       1.369   8.447  21.415  0.00  0.00    +0.000 A 
ATOM      3  N   UNL     1       1.884   7.229  21.082  0.00  0.00    +0.000 N 
ATOM      4  C   UNL     1       2.071   7.197  19.722  0.00  0.00    +0.000 A 
ATOM      5  N   UNL     1       1.709   8.343  19.182  0.00  0.00    +0.000 NA
ATOM      6  H   UNL     1       2.086   6.469  21.712  0.00  0.00    +0.000 HD
ENDROOT
BRANCH   1  12
ATOM      7 BR   UNL     1      -2.588  14.488  23.198  0.00  0.00    +0.000 Br
ATOM      8  C   UNL     1      -1.607  13.155  22.278  0.00  0.00    +0.000 A 
ATOM      9  C   UNL     1      -1.362  11.935  22.901  0.00  0.00    +0.000 A 
ATOM     10  C   UNL     1      -0.625  10.944  22.241  0.00  0.00    +0.000 A 
ATOM     11  C   UNL     1      -0.127  11.182  20.942  0.00  0.00    +0.000 A 
ATOM     12  C   UNL     1       0.664  10.443  20.010  0.00  0.00    +0.000 A 
ATOM     13  C   UNL     1       0.819  11.225  18.883  0.00  0.00    +0.000 A 
ATOM     14  N   UNL     1       0.166  12.407  19.096  0.00  0.00    +0.000 N 
ATOM     15  C   UNL     1      -0.408  12.416  20.346  0.00  0.00    +0.000 A 
ATOM     16  C   UNL     1      -1.143  13.423  20.988  0.00  0.00    +0.000 A 
ATOM     17  H   UNL     1       0.123  13.176  18.441  0.00  0.00    +0.000 HD
ENDBRANCH   1  12
BRANCH   4  18
ATOM     18  C   UNL     1       2.591   6.009  18.988  0.00  0.00    +0.000 A 
ATOM     19  C   UNL     1       2.192   4.712  19.233  0.00  0.00    +0.000 A 
ATOM     20  N   UNL     1       2.851   3.897  18.350  0.00  0.00    +0.000 N 
ATOM     21  C   UNL     1       3.697   4.638  17.558  0.00  0.00    +0.000 A 
ATOM     22  C   UNL     1       4.572   4.220  16.546  0.00  0.00    +0.000 A 
ATOM     23  C   UNL     1       5.334   5.205  15.911  0.00  0.00    +0.000 A 
ATOM     24 BR   UNL     1       6.552   4.690  14.556  0.00  0.00    +0.000 Br
ATOM     25  C   UNL     1       5.222   6.548  16.259  0.00  0.00    +0.000 A 
ATOM     26  C   UNL     1       4.331   6.945  17.264  0.00  0.00    +0.000 A 
ATOM     27  C   UNL     1       3.554   5.976  17.934  0.00  0.00    +0.000 A 
ATOM     28  H   UNL     1       2.743   2.893  18.287  0.00  0.00    +0.000 HD
ENDBRANCH   4  18
TORSDOF 2
ENDMDL
MODEL 8
REMARK VINA RESULT:      -8.4      1.522      9.103
REMARK  Name = 
REMARK  2 active torsions:
REMARK  status: ('A' for Active; 'I' for Inactive)
REMARK    1  A    between atoms: C_6  and  C_7
REMARK    2  A    between atoms: C_10  and  C_11
REMARK                            x       y       z     vdW  Elec       q    Type
REMARK                         _______ _______ _______ _____ _____    ______ ____
ROOT
ATOM      1  C   UNL     1       0.955   8.969  20.467  0.00  0.00    +0.000 A 
ATOM      2  C   UNL     1       1.213   9.519  19.233  0.00  0.00    +0.000 A 
ATOM      3  N   UNL     1       1.988   8.597  18.593  0.00  0.00    +0.000 N 
ATOM      4  C   UNL     1       2.164   7.525  19.432  0.00  0.00    +0.000 A 
ATOM      5  N   UNL     1       1.526   7.720  20.568  0.00  0.00    +0.000 NA
ATOM      6  H   UNL     1       2.381   8.680  17.669  0.00  0.00    +0.000 HD
ENDROOT
BRANCH   1  12
ATOM      7 BR   UNL     1      -3.856  14.042  22.341  0.00  0.00    +0.000 Br
ATOM      8  C   UNL     1      -2.563  12.700  22.006  0.00  0.00    +0.000 A 
ATOM      9  C   UNL     1      -2.071  12.532  20.716  0.00  0.00    +0.000 A 
ATOM     10  C   UNL     1      -1.126  11.535  20.448  0.00  0.00    +0.000 A 
ATOM     11  C   UNL     1      -0.671  10.695  21.487  0.00  0.00    +0.000 A 
ATOM     12  C   UNL     1       0.229   9.589  21.575  0.00  0.00    +0.000 A 
ATOM     13  C   UNL     1       0.261   9.182  22.893  0.00  0.00    +0.000 A 
ATOM     14  N   UNL     1      -0.588   9.985  23.604  0.00  0.00    +0.000 N 
ATOM     15  C   UNL     1      -1.180  10.907  22.773  0.00  0.00    +0.000 A 
ATOM     16  C   UNL     1      -2.127  11.898  23.064  0.00  0.00    +0.000 A 
ATOM     17  H   UNL     1      -0.772   9.906  24.595  0.00  0.00    +0.000 HD
ENDBRANCH   1  12
BRANCH   4  18
ATOM     18  C   UNL     1       2.986   6.331  19.084  0.00  0.00    +0.000 A 
ATOM     19  C   UNL     1       3.037   5.179  19.840  0.00  0.00    +0.000 A 
ATOM     20  N   UNL     1       3.861   4.293  19.198  0.00  0.00    +0.000 N 
ATOM     21  C   UNL     1       4.374   4.860  18.055  0.00  0.00    +0.000 A 
ATOM     22  C   UNL     1       5.268   4.331  17.115  0.00  0.00    +0.000 A 
ATOM     23  C   UNL     1       5.634   5.152  16.045  0.00  0.00    +0.000 A 
ATOM     24 BR   UNL     1       6.861   4.494  14.761  0.00  0.00    +0.000 Br
ATOM     25  C   UNL     1       5.123   6.440  15.909  0.00  0.00    +0.000 A 
ATOM     26  C   UNL     1       4.220   6.944  16.853  0.00  0.00    +0.000 A 
ATOM     27  C   UNL     1       3.837   6.147  17.952  0.00  0.00    +0.000 A 
ATOM     28  H   UNL     1       4.074   3.356  19.515  0.00  0.00    +0.000 HD
ENDBRANCH   4  18
TORSDOF 2
ENDMDL
MODEL 9
REMARK VINA RESULT:      -8.3      1.468      2.364
REMARK  Name = 
REMARK  2 active torsions:
REMARK  status: ('A' for Active; 'I' for Inactive)
REMARK    1  A    between atoms: C_6  and  C_7
REMARK    2  A    between atoms: C_10  and  C_11
REMARK                            x       y       z     vdW  Elec       q    Type
REMARK                         _______ _______ _______ _____ _____    ______ ____
ROOT
ATOM      1  C   UNL     1       2.197   7.573  19.077  0.00  0.00    +0.000 A 
ATOM      2  C   UNL     1       2.067   8.728  18.341  0.00  0.00    +0.000 A 
ATOM      3  N   UNL     1       1.365   9.578  19.143  0.00  0.00    +0.000 N 
ATOM      4  C   UNL     1       1.106   8.937  20.329  0.00  0.00    +0.000 A 
ATOM      5  N   UNL     1       1.622   7.725  20.318  0.00  0.00    +0.000 NA
ATOM      6  H   UNL     1       1.068  10.514  18.915  0.00  0.00    +0.000 HD
ENDROOT
BRANCH   1  12
ATOM      7 BR   UNL     1       6.856   4.474  14.484  0.00  0.00    +0.000 Br
ATOM      8  C   UNL     1       5.585   5.138  15.721  0.00  0.00    +0.000 A 
ATOM      9  C   UNL     1       5.241   6.485  15.689  0.00  0.00    +0.000 A 
ATOM     10  C   UNL     1       4.314   6.996  16.606  0.00  0.00    +0.000 A 
ATOM     11  C   UNL     1       3.729   6.144  17.568  0.00  0.00    +0.000 A 
ATOM     12  C   UNL     1       2.804   6.315  18.643  0.00  0.00    +0.000 A 
ATOM     13  C   UNL     1       2.614   5.080  19.230  0.00  0.00    +0.000 A 
ATOM     14  N   UNL     1       3.391   4.173  18.564  0.00  0.00    +0.000 N 
ATOM     15  C   UNL     1       4.091   4.793  17.556  0.00  0.00    +0.000 A 
ATOM     16  C   UNL     1       5.017   4.260  16.648  0.00  0.00    +0.000 A 
ATOM     17  H   UNL     1       3.460   3.189  18.787  0.00  0.00    +0.000 HD
ENDBRANCH   1  12
BRANCH   4  18
ATOM     18  C   UNL     1       0.327   9.546  21.444  0.00  0.00    +0.000 A 
ATOM     19  C   UNL     1       0.385   9.118  22.754  0.00  0.00    +0.000 A 
ATOM     20  N   UNL     1      -0.431   9.930  23.496  0.00  0.00    +0.000 N 
ATOM     21  C   UNL     1      -1.045  10.858  22.688  0.00  0.00    +0.000 A 
ATOM     22  C   UNL     1      -1.969  11.859  23.014  0.00  0.00    +0.000 A 
ATOM     23  C   UNL     1      -2.446  12.657  21.970  0.00  0.00    +0.000 A 
ATOM     24 BR   UNL     1      -3.716  14.007  22.354  0.00  0.00    +0.000 Br
ATOM     25  C   UNL     1      -2.013  12.473  20.660  0.00  0.00    +0.000 A 
ATOM     26  C   UNL     1      -1.079  11.475  20.357  0.00  0.00    +0.000 A 
ATOM     27  C   UNL     1      -0.585  10.644  21.385  0.00  0.00    +0.000 A 
ATOM     28  H   UNL     1      -0.573   9.860  24.495  0.00  0.00    +0.000 HD
ENDBRANCH   4  18
TORSDOF 2
ENDMDL
