MODEL 1
REMARK VINA RESULT:      -8.7      0.000      0.000
REMARK  Name = 
REMARK  11 active torsions:
REMARK  status: ('A' for Active; 'I' for Inactive)
REMARK    1  A    between atoms: C_1  and  S_2
REMARK    2  A    between atoms: S_2  and  C_4
REMARK    3  A    between atoms: C_4  and  C_5
REMARK    4  A    between atoms: C_4  and  C_17
REMARK    5  A    between atoms: C_5  and  C_6
REMARK    6  A    between atoms: C_10  and  O_11
REMARK    7  A    between atoms: O_11  and  C_12
REMARK    8  A    between atoms: C_12  and  C_13
REMARK    9  A    between atoms: C_13  and  O_15
REMARK   10  A    between atoms: C_19  and  C_20
REMARK   11  A    between atoms: C_26  and  C_27
REMARK                            x       y       z     vdW  Elec       q    Type
REMARK                         _______ _______ _______ _____ _____    ______ ____
ROOT
ATOM      1  C   UNL     1       6.310   5.702  16.863  0.00  0.00    +0.000 C 
ENDROOT
BRANCH   1   2
ATOM      2  C   UNL     1       5.000   5.998  17.562  0.00  0.00    +0.000 A 
ATOM      3  N   UNL     1       4.303   7.115  17.555  0.00  0.00    +0.000 NA
ATOM      4  C   UNL     1       3.205   6.854  18.341  0.00  0.00    +0.000 A 
ATOM      5  C   UNL     1       3.189   5.521  18.724  0.00  0.00    +0.000 A 
ATOM      6  O   UNL     1       4.346   4.964  18.207  0.00  0.00    +0.000 OA
BRANCH   4   7
ATOM      7  C   UNL     1       2.253   7.887  18.688  0.00  0.00    +0.000 A 
ATOM      8  C   UNL     1       1.865   8.048  20.022  0.00  0.00    +0.000 A 
ATOM      9  C   UNL     1       0.983   9.069  20.383  0.00  0.00    +0.000 A 
ATOM     10  C   UNL     1       0.487   9.931  19.405  0.00  0.00    +0.000 A 
ATOM     11  C   UNL     1       0.841   9.762  18.074  0.00  0.00    +0.000 A 
ATOM     12  C   UNL     1       1.707   8.721  17.708  0.00  0.00    +0.000 A 
ENDBRANCH   4   7
BRANCH   5  13
ATOM     13  C   UNL     1       2.342   4.660  19.572  0.00  0.00    +0.000 A 
ATOM     14  C   UNL     1       2.565   4.512  20.946  0.00  0.00    +0.000 A 
ATOM     15  C   UNL     1       1.995   3.456  21.674  0.00  0.00    +0.000 A 
ATOM     16  C   UNL     1       1.151   2.544  21.054  0.00  0.00    +0.000 A 
ATOM     17  C   UNL     1       0.782   2.771  19.739  0.00  0.00    +0.000 A 
ATOM     18  C   UNL     1       1.353   3.839  19.022  0.00  0.00    +0.000 A 
ENDBRANCH   5  13
ENDBRANCH   1   2
BRANCH   1  20
ATOM     19  C   UNL     1       7.843   7.766  17.958  0.00  0.00    +0.000 C 
ATOM     20  S   UNL     1       7.758   5.951  17.994  0.00  0.00    +0.000 S 
ATOM     21  O   UNL     1       7.315   5.613  19.467  0.00  0.00    +0.000 OA
ENDBRANCH   1  20
BRANCH   1  22
ATOM     22  C   UNL     1       6.332   4.333  16.138  0.00  0.00    +0.000 C 
BRANCH  22  23
ATOM     23  C   UNL     1       6.430   4.290  14.620  0.00  0.00    +0.000 A 
ATOM     24  C   UNL     1       7.484   4.933  13.956  0.00  0.00    +0.000 A 
ATOM     25  C   UNL     1       7.556   4.949  12.562  0.00  0.00    +0.000 A 
ATOM     26  C   UNL     1       6.593   4.295  11.810  0.00  0.00    +0.000 A 
ATOM     27  C   UNL     1       5.562   3.613  12.435  0.00  0.00    +0.000 A 
ATOM     28  C   UNL     1       5.447   3.660  13.831  0.00  0.00    +0.000 A 
BRANCH  27  29
ATOM     29  O   UNL     1       4.710   2.988  11.569  0.00  0.00    +0.000 OA
BRANCH  29  30
ATOM     30  C   UNL     1       5.261   1.959  10.767  0.00  0.00    +0.000 C 
BRANCH  30  31
ATOM     31  C   UNL     1       6.482   1.122  11.196  0.00  0.00    +0.000 C 
ATOM     32  O   UNL     1       7.640   1.491  11.117  0.00  0.00    +0.000 OA
BRANCH  31  33
ATOM     33  O   UNL     1       6.179  -0.121  11.648  0.00  0.00    +0.000 OA
ATOM     34  H   UNL     1       5.488  -0.605  11.164  0.00  0.00    +0.000 HD
ENDBRANCH  31  33
ENDBRANCH  30  31
ENDBRANCH  29  30
ENDBRANCH  27  29
ENDBRANCH  22  23
ENDBRANCH   1  22
TORSDOF 10
ENDMDL
MODEL 2
REMARK VINA RESULT:      -8.5      0.521      1.110
REMARK  Name = 
REMARK  11 active torsions:
REMARK  status: ('A' for Active; 'I' for Inactive)
REMARK    1  A    between atoms: C_1  and  S_2
REMARK    2  A    between atoms: S_2  and  C_4
REMARK    3  A    between atoms: C_4  and  C_5
REMARK    4  A    between atoms: C_4  and  C_17
REMARK    5  A    between atoms: C_5  and  C_6
REMARK    6  A    between atoms: C_10  and  O_11
REMARK    7  A    between atoms: O_11  and  C_12
REMARK    8  A    between atoms: C_12  and  C_13
REMARK    9  A    between atoms: C_13  and  O_15
REMARK   10  A    between atoms: C_19  and  C_20
REMARK   11  A    between atoms: C_26  and  C_27
REMARK                            x       y       z     vdW  Elec       q    Type
REMARK                         _______ _______ _______ _____ _____    ______ ____
ROOT
ATOM      1  C   UNL     1       6.165   5.761  16.627  0.00  0.00    +0.000 C 
ENDROOT
BRANCH   1   2
ATOM      2  C   UNL     1       4.893   6.071  17.387  0.00  0.00    +0.000 A 
ATOM      3  N   UNL     1       4.208   7.196  17.413  0.00  0.00    +0.000 NA
ATOM      4  C   UNL     1       3.146   6.946  18.249  0.00  0.00    +0.000 A 
ATOM      5  C   UNL     1       3.134   5.612  18.632  0.00  0.00    +0.000 A 
ATOM      6  O   UNL     1       4.258   5.044  18.061  0.00  0.00    +0.000 OA
BRANCH   4   7
ATOM      7  C   UNL     1       2.222   7.989  18.641  0.00  0.00    +0.000 A 
ATOM      8  C   UNL     1       1.729   8.873  17.675  0.00  0.00    +0.000 A 
ATOM      9  C   UNL     1       0.801   9.855  18.025  0.00  0.00    +0.000 A 
ATOM     10  C   UNL     1       0.365   9.954  19.346  0.00  0.00    +0.000 A 
ATOM     11  C   UNL     1       0.869   9.103  20.318  0.00  0.00    +0.000 A 
ATOM     12  C   UNL     1       1.821   8.131  19.972  0.00  0.00    +0.000 A 
ENDBRANCH   4   7
BRANCH   5  13
ATOM     13  C   UNL     1       2.317   4.760  19.518  0.00  0.00    +0.000 A 
ATOM     14  C   UNL     1       2.592   4.622  20.884  0.00  0.00    +0.000 A 
ATOM     15  C   UNL     1       2.048   3.573  21.642  0.00  0.00    +0.000 A 
ATOM     16  C   UNL     1       1.180   2.658  21.061  0.00  0.00    +0.000 A 
ATOM     17  C   UNL     1       0.762   2.875  19.759  0.00  0.00    +0.000 A 
ATOM     18  C   UNL     1       1.307   3.937  19.012  0.00  0.00    +0.000 A 
ENDBRANCH   5  13
ENDBRANCH   1   2
BRANCH   1  20
ATOM     19  C   UNL     1       7.580   7.947  17.642  0.00  0.00    +0.000 C 
ATOM     20  S   UNL     1       7.672   6.132  17.641  0.00  0.00    +0.000 S 
ATOM     21  O   UNL     1       7.389   5.730  19.137  0.00  0.00    +0.000 OA
ENDBRANCH   1  20
BRANCH   1  22
ATOM     22  C   UNL     1       6.187   4.344  16.000  0.00  0.00    +0.000 C 
BRANCH  22  23
ATOM     23  C   UNL     1       6.420   4.189  14.505  0.00  0.00    +0.000 A 
ATOM     24  C   UNL     1       7.401   4.950  13.855  0.00  0.00    +0.000 A 
ATOM     25  C   UNL     1       7.590   4.859  12.475  0.00  0.00    +0.000 A 
ATOM     26  C   UNL     1       6.820   3.981  11.726  0.00  0.00    +0.000 A 
ATOM     27  C   UNL     1       5.871   3.183  12.344  0.00  0.00    +0.000 A 
ATOM     28  C   UNL     1       5.630   3.329  13.716  0.00  0.00    +0.000 A 
BRANCH  27  29
ATOM     29  O   UNL     1       5.216   2.344  11.487  0.00  0.00    +0.000 OA
BRANCH  29  30
ATOM     30  C   UNL     1       6.012   1.421  10.768  0.00  0.00    +0.000 C 
BRANCH  30  31
ATOM     31  C   UNL     1       6.186  -0.050  11.195  0.00  0.00    +0.000 C 
ATOM     32  O   UNL     1       5.302  -0.888  11.179  0.00  0.00    +0.000 OA
BRANCH  31  33
ATOM     33  O   UNL     1       7.427  -0.359  11.650  0.00  0.00    +0.000 OA
ATOM     34  H   UNL     1       7.499  -0.600  12.590  0.00  0.00    +0.000 HD
ENDBRANCH  31  33
ENDBRANCH  30  31
ENDBRANCH  29  30
ENDBRANCH  27  29
ENDBRANCH  22  23
ENDBRANCH   1  22
TORSDOF 10
ENDMDL
MODEL 3
REMARK VINA RESULT:      -8.5      4.836      8.453
REMARK  Name = 
REMARK  11 active torsions:
REMARK  status: ('A' for Active; 'I' for Inactive)
REMARK    1  A    between atoms: C_1  and  S_2
REMARK    2  A    between atoms: S_2  and  C_4
REMARK    3  A    between atoms: C_4  and  C_5
REMARK    4  A    between atoms: C_4  and  C_17
REMARK    5  A    between atoms: C_5  and  C_6
REMARK    6  A    between atoms: C_10  and  O_11
REMARK    7  A    between atoms: O_11  and  C_12
REMARK    8  A    between atoms: C_12  and  C_13
REMARK    9  A    between atoms: C_13  and  O_15
REMARK   10  A    between atoms: C_19  and  C_20
REMARK   11  A    between atoms: C_26  and  C_27
REMARK                            x       y       z     vdW  Elec       q    Type
REMARK                         _______ _______ _______ _____ _____    ______ ____
ROOT
ATOM      1  C   UNL     1       0.427   9.640  20.042  0.00  0.00    +0.000 C 
ENDROOT
BRANCH   1   2
ATOM      2  C   UNL     1       1.190   8.382  19.684  0.00  0.00    +0.000 A 
ATOM      3  N   UNL     1       2.169   8.236  18.816  0.00  0.00    +0.000 NA
ATOM      4  C   UNL     1       2.504   6.904  18.878  0.00  0.00    +0.000 A 
ATOM      5  C   UNL     1       1.792   6.272  19.888  0.00  0.00    +0.000 A 
ATOM      6  O   UNL     1       0.952   7.234  20.419  0.00  0.00    +0.000 OA
BRANCH   4   7
ATOM      7  C   UNL     1       3.464   6.316  17.969  0.00  0.00    +0.000 A 
ATOM      8  C   UNL     1       3.397   4.948  17.685  0.00  0.00    +0.000 A 
ATOM      9  C   UNL     1       4.285   4.372  16.775  0.00  0.00    +0.000 A 
ATOM     10  C   UNL     1       5.244   5.167  16.147  0.00  0.00    +0.000 A 
ATOM     11  C   UNL     1       5.339   6.518  16.443  0.00  0.00    +0.000 A 
ATOM     12  C   UNL     1       4.463   7.093  17.377  0.00  0.00    +0.000 A 
ENDBRANCH   4   7
BRANCH   5  13
ATOM     13  C   UNL     1       1.667   4.897  20.411  0.00  0.00    +0.000 A 
ATOM     14  C   UNL     1       2.442   4.431  21.480  0.00  0.00    +0.000 A 
ATOM     15  C   UNL     1       2.572   3.059  21.750  0.00  0.00    +0.000 A 
ATOM     16  C   UNL     1       1.895   2.120  20.984  0.00  0.00    +0.000 A 
ATOM     17  C   UNL     1       0.991   2.568  20.035  0.00  0.00    +0.000 A 
ATOM     18  C   UNL     1       0.862   3.946  19.779  0.00  0.00    +0.000 A 
ENDBRANCH   5  13
ENDBRANCH   1   2
BRANCH   1  20
ATOM     19  C   UNL     1      -0.228  11.573  21.951  0.00  0.00    +0.000 C 
ATOM     20  S   UNL     1       1.162  10.485  21.520  0.00  0.00    +0.000 S 
ATOM     21  O   UNL     1       1.231   9.455  22.710  0.00  0.00    +0.000 OA
ENDBRANCH   1  20
BRANCH   1  22
ATOM     22  C   UNL     1       0.206  10.596  18.842  0.00  0.00    +0.000 C 
BRANCH  22  23
ATOM     23  C   UNL     1      -1.174  10.696  18.209  0.00  0.00    +0.000 A 
ATOM     24  C   UNL     1      -2.157  11.521  18.771  0.00  0.00    +0.000 A 
ATOM     25  C   UNL     1      -3.444  11.581  18.233  0.00  0.00    +0.000 A 
ATOM     26  C   UNL     1      -3.760  10.840  17.104  0.00  0.00    +0.000 A 
ATOM     27  C   UNL     1      -2.799  10.047  16.499  0.00  0.00    +0.000 A 
ATOM     28  C   UNL     1      -1.530   9.928  17.081  0.00  0.00    +0.000 A 
BRANCH  27  29
ATOM     29  O   UNL     1      -3.242   9.404  15.378  0.00  0.00    +0.000 OA
BRANCH  29  30
ATOM     30  C   UNL     1      -3.238  10.149  14.174  0.00  0.00    +0.000 C 
BRANCH  30  31
ATOM     31  C   UNL     1      -4.029   9.724  12.921  0.00  0.00    +0.000 C 
ATOM     32  O   UNL     1      -3.563   9.646  11.798  0.00  0.00    +0.000 OA
BRANCH  31  33
ATOM     33  O   UNL     1      -5.343   9.472  13.145  0.00  0.00    +0.000 OA
ATOM     34  H   UNL     1      -5.793   8.898  12.501  0.00  0.00    +0.000 HD
ENDBRANCH  31  33
ENDBRANCH  30  31
ENDBRANCH  29  30
ENDBRANCH  27  29
ENDBRANCH  22  23
ENDBRANCH   1  22
TORSDOF 10
ENDMDL
MODEL 4
REMARK VINA RESULT:      -8.4      0.804      3.689
REMARK  Name = 
REMARK  11 active torsions:
REMARK  status: ('A' for Active; 'I' for Inactive)
REMARK    1  A    between atoms: C_1  and  S_2
REMARK    2  A    between atoms: S_2  and  C_4
REMARK    3  A    between atoms: C_4  and  C_5
REMARK    4  A    between atoms: C_4  and  C_17
REMARK    5  A    between atoms: C_5  and  C_6
REMARK    6  A    between atoms: C_10  and  O_11
REMARK    7  A    between atoms: O_11  and  C_12
REMARK    8  A    between atoms: C_12  and  C_13
REMARK    9  A    between atoms: C_13  and  O_15
REMARK   10  A    between atoms: C_19  and  C_20
REMARK   11  A    between atoms: C_26  and  C_27
REMARK                            x       y       z     vdW  Elec       q    Type
REMARK                         _______ _______ _______ _____ _____    ______ ____
ROOT
ATOM      1  C   UNL     1       6.474   5.896  16.801  0.00  0.00    +0.000 C 
ENDROOT
BRANCH   1   2
ATOM      2  C   UNL     1       5.217   5.816  17.641  0.00  0.00    +0.000 A 
ATOM      3  N   UNL     1       4.792   4.817  18.386  0.00  0.00    +0.000 NA
ATOM      4  C   UNL     1       3.610   5.259  18.933  0.00  0.00    +0.000 A 
ATOM      5  C   UNL     1       3.390   6.588  18.602  0.00  0.00    +0.000 A 
ATOM      6  O   UNL     1       4.439   6.952  17.777  0.00  0.00    +0.000 OA
BRANCH   4   7
ATOM      7  C   UNL     1       2.762   4.389  19.720  0.00  0.00    +0.000 A 
ATOM      8  C   UNL     1       1.401   4.290  19.412  0.00  0.00    +0.000 A 
ATOM      9  C   UNL     1       0.576   3.421  20.130  0.00  0.00    +0.000 A 
ATOM     10  C   UNL     1       1.116   2.649  21.159  0.00  0.00    +0.000 A 
ATOM     11  C   UNL     1       2.457   2.761  21.492  0.00  0.00    +0.000 A 
ATOM     12  C   UNL     1       3.281   3.653  20.788  0.00  0.00    +0.000 A 
ENDBRANCH   4   7
BRANCH   5  13
ATOM     13  C   UNL     1       2.327   7.586  18.829  0.00  0.00    +0.000 A 
ATOM     14  C   UNL     1       1.827   8.394  17.800  0.00  0.00    +0.000 A 
ATOM     15  C   UNL     1       1.083   9.553  18.071  0.00  0.00    +0.000 A 
ATOM     16  C   UNL     1       0.782   9.911  19.378  0.00  0.00    +0.000 A 
ATOM     17  C   UNL     1       1.118   9.037  20.398  0.00  0.00    +0.000 A 
ATOM     18  C   UNL     1       1.856   7.873  20.114  0.00  0.00    +0.000 A 
ENDBRANCH   5  13
ENDBRANCH   1   2
BRANCH   1  20
ATOM     19  C   UNL     1       7.605   8.307  17.650  0.00  0.00    +0.000 C 
ATOM     20  S   UNL     1       7.914   6.522  17.789  0.00  0.00    +0.000 S 
ATOM     21  O   UNL     1       7.663   6.202  19.310  0.00  0.00    +0.000 OA
ENDBRANCH   1  20
BRANCH   1  22
ATOM     22  C   UNL     1       6.788   4.594  16.025  0.00  0.00    +0.000 C 
BRANCH  22  23
ATOM     23  C   UNL     1       6.931   4.639  14.511  0.00  0.00    +0.000 A 
ATOM     24  C   UNL     1       7.905   5.448  13.911  0.00  0.00    +0.000 A 
ATOM     25  C   UNL     1       8.012   5.542  12.523  0.00  0.00    +0.000 A 
ATOM     26  C   UNL     1       7.164   4.804  11.710  0.00  0.00    +0.000 A 
ATOM     27  C   UNL     1       6.218   3.962  12.270  0.00  0.00    +0.000 A 
ATOM     28  C   UNL     1       6.061   3.924  13.662  0.00  0.00    +0.000 A 
BRANCH  27  29
ATOM     29  O   UNL     1       5.481   3.273  11.350  0.00  0.00    +0.000 OA
BRANCH  29  30
ATOM     30  C   UNL     1       5.290   1.891  11.593  0.00  0.00    +0.000 C 
BRANCH  30  31
ATOM     31  C   UNL     1       6.346   0.824  11.245  0.00  0.00    +0.000 C 
ATOM     32  O   UNL     1       6.102  -0.348  11.018  0.00  0.00    +0.000 OA
BRANCH  31  33
ATOM     33  O   UNL     1       7.625   1.278  11.248  0.00  0.00    +0.000 OA
ATOM     34  H   UNL     1       8.163   1.061  12.029  0.00  0.00    +0.000 HD
ENDBRANCH  31  33
ENDBRANCH  30  31
ENDBRANCH  29  30
ENDBRANCH  27  29
ENDBRANCH  22  23
ENDBRANCH   1  22
TORSDOF 10
ENDMDL
MODEL 5
REMARK VINA RESULT:      -8.4      1.442      4.002
REMARK  Name = 
REMARK  11 active torsions:
REMARK  status: ('A' for Active; 'I' for Inactive)
REMARK    1  A    between atoms: C_1  and  S_2
REMARK    2  A    between atoms: S_2  and  C_4
REMARK    3  A    between atoms: C_4  and  C_5
REMARK    4  A    between atoms: C_4  and  C_17
REMARK    5  A    between atoms: C_5  and  C_6
REMARK    6  A    between atoms: C_10  and  O_11
REMARK    7  A    between atoms: O_11  and  C_12
REMARK    8  A    between atoms: C_12  and  C_13
REMARK    9  A    between atoms: C_13  and  O_15
REMARK   10  A    between atoms: C_19  and  C_20
REMARK   11  A    between atoms: C_26  and  C_27
REMARK                            x       y       z     vdW  Elec       q    Type
REMARK                         _______ _______ _______ _____ _____    ______ ____
ROOT
ATOM      1  C   UNL     1       6.123   6.399  16.622  0.00  0.00    +0.000 C 
ENDROOT
BRANCH   1   2
ATOM      2  C   UNL     1       4.835   6.206  17.394  0.00  0.00    +0.000 A 
ATOM      3  N   UNL     1       4.330   5.091  17.880  0.00  0.00    +0.000 NA
ATOM      4  C   UNL     1       3.156   5.468  18.487  0.00  0.00    +0.000 A 
ATOM      5  C   UNL     1       3.020   6.848  18.466  0.00  0.00    +0.000 A 
ATOM      6  O   UNL     1       4.116   7.326  17.769  0.00  0.00    +0.000 OA
BRANCH   4   7
ATOM      7  C   UNL     1       2.235   4.495  19.035  0.00  0.00    +0.000 A 
ATOM      8  C   UNL     1       1.526   3.653  18.171  0.00  0.00    +0.000 A 
ATOM      9  C   UNL     1       0.668   2.678  18.683  0.00  0.00    +0.000 A 
ATOM     10  C   UNL     1       0.519   2.544  20.063  0.00  0.00    +0.000 A 
ATOM     11  C   UNL     1       1.193   3.392  20.929  0.00  0.00    +0.000 A 
ATOM     12  C   UNL     1       2.036   4.390  20.414  0.00  0.00    +0.000 A 
ENDBRANCH   4   7
BRANCH   5  13
ATOM     13  C   UNL     1       2.005   7.832  18.894  0.00  0.00    +0.000 A 
ATOM     14  C   UNL     1       1.456   8.771  18.012  0.00  0.00    +0.000 A 
ATOM     15  C   UNL     1       0.767   9.902  18.478  0.00  0.00    +0.000 A 
ATOM     16  C   UNL     1       0.573  10.101  19.838  0.00  0.00    +0.000 A 
ATOM     17  C   UNL     1       0.957   9.100  20.715  0.00  0.00    +0.000 A 
ATOM     18  C   UNL     1       1.638   7.966  20.235  0.00  0.00    +0.000 A 
ENDBRANCH   5  13
ENDBRANCH   1   2
BRANCH   1  20
ATOM     19  C   UNL     1       7.931   6.276  18.749  0.00  0.00    +0.000 C 
ATOM     20  S   UNL     1       7.312   7.485  17.542  0.00  0.00    +0.000 S 
ATOM     21  O   UNL     1       8.552   7.778  16.616  0.00  0.00    +0.000 OA
ENDBRANCH   1  20
BRANCH   1  22
ATOM     22  C   UNL     1       6.761   5.074  16.134  0.00  0.00    +0.000 C 
BRANCH  22  23
ATOM     23  C   UNL     1       6.908   4.818  14.641  0.00  0.00    +0.000 A 
ATOM     24  C   UNL     1       7.897   5.479  13.900  0.00  0.00    +0.000 A 
ATOM     25  C   UNL     1       8.009   5.296  12.521  0.00  0.00    +0.000 A 
ATOM     26  C   UNL     1       7.152   4.424  11.864  0.00  0.00    +0.000 A 
ATOM     27  C   UNL     1       6.192   3.723  12.574  0.00  0.00    +0.000 A 
ATOM     28  C   UNL     1       6.030   3.962  13.945  0.00  0.00    +0.000 A 
BRANCH  27  29
ATOM     29  O   UNL     1       5.447   2.876  11.803  0.00  0.00    +0.000 OA
BRANCH  29  30
ATOM     30  C   UNL     1       4.057   3.138  11.732  0.00  0.00    +0.000 C 
BRANCH  30  31
ATOM     31  C   UNL     1       3.330   3.456  10.411  0.00  0.00    +0.000 C 
ATOM     32  O   UNL     1       3.401   4.516   9.816  0.00  0.00    +0.000 OA
BRANCH  31  33
ATOM     33  O   UNL     1       2.536   2.456   9.952  0.00  0.00    +0.000 OA
ATOM     34  H   UNL     1       1.591   2.662   9.846  0.00  0.00    +0.000 HD
ENDBRANCH  31  33
ENDBRANCH  30  31
ENDBRANCH  29  30
ENDBRANCH  27  29
ENDBRANCH  22  23
ENDBRANCH   1  22
TORSDOF 10
ENDMDL
MODEL 6
REMARK VINA RESULT:      -8.2      2.984      8.981
REMARK  Name = 
REMARK  11 active torsions:
REMARK  status: ('A' for Active; 'I' for Inactive)
REMARK    1  A    between atoms: C_1  and  S_2
REMARK    2  A    between atoms: S_2  and  C_4
REMARK    3  A    between atoms: C_4  and  C_5
REMARK    4  A    between atoms: C_4  and  C_17
REMARK    5  A    between atoms: C_5  and  C_6
REMARK    6  A    between atoms: C_10  and  O_11
REMARK    7  A    between atoms: O_11  and  C_12
REMARK    8  A    between atoms: C_12  and  C_13
REMARK    9  A    between atoms: C_13  and  O_15
REMARK   10  A    between atoms: C_19  and  C_20
REMARK   11  A    between atoms: C_26  and  C_27
REMARK                            x       y       z     vdW  Elec       q    Type
REMARK                         _______ _______ _______ _____ _____    ______ ____
ROOT
ATOM      1  C   UNL     1       3.047   3.343  18.755  0.00  0.00    +0.000 C 
ENDROOT
BRANCH   1   2
ATOM      2  C   UNL     1       4.113   3.923  17.848  0.00  0.00    +0.000 A 
ATOM      3  N   UNL     1       4.311   3.692  16.567  0.00  0.00    +0.000 NA
ATOM      4  C   UNL     1       5.397   4.465  16.231  0.00  0.00    +0.000 A 
ATOM      5  C   UNL     1       5.777   5.260  17.302  0.00  0.00    +0.000 A 
ATOM      6  O   UNL     1       4.935   4.918  18.345  0.00  0.00    +0.000 OA
BRANCH   4   7
ATOM      7  C   UNL     1       6.012   4.389  14.923  0.00  0.00    +0.000 A 
ATOM      8  C   UNL     1       5.398   3.638  13.914  0.00  0.00    +0.000 A 
ATOM      9  C   UNL     1       5.951   3.591  12.633  0.00  0.00    +0.000 A 
ATOM     10  C   UNL     1       7.123   4.297  12.360  0.00  0.00    +0.000 A 
ATOM     11  C   UNL     1       7.758   5.020  13.360  0.00  0.00    +0.000 A 
ATOM     12  C   UNL     1       7.216   5.047  14.654  0.00  0.00    +0.000 A 
ENDBRANCH   4   7
BRANCH   5  13
ATOM     13  C   UNL     1       6.850   6.232  17.588  0.00  0.00    +0.000 A 
ATOM     14  C   UNL     1       7.775   6.043  18.622  0.00  0.00    +0.000 A 
ATOM     15  C   UNL     1       8.562   7.099  19.108  0.00  0.00    +0.000 A 
ATOM     16  C   UNL     1       8.474   8.364  18.542  0.00  0.00    +0.000 A 
ATOM     17  C   UNL     1       7.694   8.531  17.410  0.00  0.00    +0.000 A 
ATOM     18  C   UNL     1       6.917   7.462  16.926  0.00  0.00    +0.000 A 
ENDBRANCH   5  13
ENDBRANCH   1   2
BRANCH   1  20
ATOM     19  C   UNL     1       2.202   2.348  21.225  0.00  0.00    +0.000 C 
ATOM     20  S   UNL     1       3.706   3.019  20.458  0.00  0.00    +0.000 S 
ATOM     21  O   UNL     1       4.690   1.792  20.396  0.00  0.00    +0.000 OA
ENDBRANCH   1  20
BRANCH   1  22
ATOM     22  C   UNL     1       1.725   4.150  18.756  0.00  0.00    +0.000 C 
BRANCH  22  23
ATOM     23  C   UNL     1       1.753   5.635  19.084  0.00  0.00    +0.000 A 
ATOM     24  C   UNL     1       2.048   6.578  18.090  0.00  0.00    +0.000 A 
ATOM     25  C   UNL     1       2.131   7.939  18.387  0.00  0.00    +0.000 A 
ATOM     26  C   UNL     1       1.890   8.383  19.679  0.00  0.00    +0.000 A 
ATOM     27  C   UNL     1       1.554   7.482  20.676  0.00  0.00    +0.000 A 
ATOM     28  C   UNL     1       1.543   6.110  20.395  0.00  0.00    +0.000 A 
BRANCH  27  29
ATOM     29  O   UNL     1       1.309   8.067  21.886  0.00  0.00    +0.000 OA
BRANCH  29  30
ATOM     30  C   UNL     1       1.036   9.456  21.879  0.00  0.00    +0.000 C 
BRANCH  30  31
ATOM     31  C   UNL     1      -0.085  10.095  22.721  0.00  0.00    +0.000 C 
ATOM     32  O   UNL     1      -0.300  11.292  22.799  0.00  0.00    +0.000 OA
BRANCH  31  33
ATOM     33  O   UNL     1      -0.825   9.210  23.436  0.00  0.00    +0.000 OA
ATOM     34  H   UNL     1      -0.801   9.303  24.405  0.00  0.00    +0.000 HD
ENDBRANCH  31  33
ENDBRANCH  30  31
ENDBRANCH  29  30
ENDBRANCH  27  29
ENDBRANCH  22  23
ENDBRANCH   1  22
TORSDOF 10
ENDMDL
MODEL 7
REMARK VINA RESULT:      -8.2      2.375      5.857
REMARK  Name = 
REMARK  11 active torsions:
REMARK  status: ('A' for Active; 'I' for Inactive)
REMARK    1  A    between atoms: C_1  and  S_2
REMARK    2  A    between atoms: S_2  and  C_4
REMARK    3  A    between atoms: C_4  and  C_5
REMARK    4  A    between atoms: C_4  and  C_17
REMARK    5  A    between atoms: C_5  and  C_6
REMARK    6  A    between atoms: C_10  and  O_11
REMARK    7  A    between atoms: O_11  and  C_12
REMARK    8  A    between atoms: C_12  and  C_13
REMARK    9  A    between atoms: C_13  and  O_15
REMARK   10  A    between atoms: C_19  and  C_20
REMARK   11  A    between atoms: C_26  and  C_27
REMARK                            x       y       z     vdW  Elec       q    Type
REMARK                         _______ _______ _______ _____ _____    ______ ____
ROOT
ATOM      1  C   UNL     1       5.853   4.003  15.558  0.00  0.00    +0.000 C 
ENDROOT
BRANCH   1   2
ATOM      2  C   UNL     1       4.826   4.483  16.564  0.00  0.00    +0.000 A 
ATOM      3  N   UNL     1       4.313   5.688  16.698  0.00  0.00    +0.000 NA
ATOM      4  C   UNL     1       3.436   5.585  17.751  0.00  0.00    +0.000 A 
ATOM      5  C   UNL     1       3.336   4.268  18.173  0.00  0.00    +0.000 A 
ATOM      6  O   UNL     1       4.228   3.552  17.393  0.00  0.00    +0.000 OA
BRANCH   4   7
ATOM      7  C   UNL     1       2.760   6.743  18.296  0.00  0.00    +0.000 A 
ATOM      8  C   UNL     1       2.438   7.814  17.456  0.00  0.00    +0.000 A 
ATOM      9  C   UNL     1       1.745   8.919  17.954  0.00  0.00    +0.000 A 
ATOM     10  C   UNL     1       1.373   8.953  19.298  0.00  0.00    +0.000 A 
ATOM     11  C   UNL     1       1.713   7.911  20.148  0.00  0.00    +0.000 A 
ATOM     12  C   UNL     1       2.432   6.812  19.653  0.00  0.00    +0.000 A 
ENDBRANCH   4   7
BRANCH   5  13
ATOM     13  C   UNL     1       2.631   3.535  19.242  0.00  0.00    +0.000 A 
ATOM     14  C   UNL     1       1.237   3.402  19.264  0.00  0.00    +0.000 A 
ATOM     15  C   UNL     1       0.553   3.016  20.427  0.00  0.00    +0.000 A 
ATOM     16  C   UNL     1       1.249   2.711  21.589  0.00  0.00    +0.000 A 
ATOM     17  C   UNL     1       2.633   2.669  21.540  0.00  0.00    +0.000 A 
ATOM     18  C   UNL     1       3.308   3.049  20.365  0.00  0.00    +0.000 A 
ENDBRANCH   5  13
ENDBRANCH   1   2
BRANCH   1  20
ATOM     19  C   UNL     1       7.220   4.948  13.312  0.00  0.00    +0.000 C 
ATOM     20  S   UNL     1       5.511   4.674  13.864  0.00  0.00    +0.000 S 
ATOM     21  O   UNL     1       4.991   3.501  12.950  0.00  0.00    +0.000 OA
ENDBRANCH   1  20
BRANCH   1  22
ATOM     22  C   UNL     1       7.318   4.217  16.014  0.00  0.00    +0.000 C 
BRANCH  22  23
ATOM     23  C   UNL     1       7.623   5.229  17.108  0.00  0.00    +0.000 A 
ATOM     24  C   UNL     1       7.931   4.803  18.406  0.00  0.00    +0.000 A 
ATOM     25  C   UNL     1       8.159   5.720  19.433  0.00  0.00    +0.000 A 
ATOM     26  C   UNL     1       8.113   7.081  19.171  0.00  0.00    +0.000 A 
ATOM     27  C   UNL     1       7.853   7.536  17.889  0.00  0.00    +0.000 A 
ATOM     28  C   UNL     1       7.550   6.618  16.875  0.00  0.00    +0.000 A 
BRANCH  27  29
ATOM     29  O   UNL     1       7.875   8.898  17.773  0.00  0.00    +0.000 OA
BRANCH  29  30
ATOM     30  C   UNL     1       8.960   9.571  18.384  0.00  0.00    +0.000 C 
BRANCH  30  31
ATOM     31  C   UNL     1       9.039  11.106  18.497  0.00  0.00    +0.000 C 
ATOM     32  O   UNL     1       8.703  11.886  17.624  0.00  0.00    +0.000 OA
BRANCH  31  33
ATOM     33  O   UNL     1       9.569  11.557  19.663  0.00  0.00    +0.000 OA
ATOM     34  H   UNL     1       8.999  12.126  20.209  0.00  0.00    +0.000 HD
ENDBRANCH  31  33
ENDBRANCH  30  31
ENDBRANCH  29  30
ENDBRANCH  27  29
ENDBRANCH  22  23
ENDBRANCH   1  22
TORSDOF 10
ENDMDL
MODEL 8
REMARK VINA RESULT:      -8.1      1.038      1.812
REMARK  Name = 
REMARK  11 active torsions:
REMARK  status: ('A' for Active; 'I' for Inactive)
REMARK    1  A    between atoms: C_1  and  S_2
REMARK    2  A    between atoms: S_2  and  C_4
REMARK    3  A    between atoms: C_4  and  C_5
REMARK    4  A    between atoms: C_4  and  C_17
REMARK    5  A    between atoms: C_5  and  C_6
REMARK    6  A    between atoms: C_10  and  O_11
REMARK    7  A    between atoms: O_11  and  C_12
REMARK    8  A    between atoms: C_12  and  C_13
REMARK    9  A    between atoms: C_13  and  O_15
REMARK   10  A    between atoms: C_19  and  C_20
REMARK   11  A    between atoms: C_26  and  C_27
REMARK                            x       y       z     vdW  Elec       q    Type
REMARK                         _______ _______ _______ _____ _____    ______ ____
ROOT
ATOM      1  C   UNL     1       5.978   5.642  16.603  0.00  0.00    +0.000 C 
ENDROOT
BRANCH   1   2
ATOM      2  C   UNL     1       4.748   5.965  17.425  0.00  0.00    +0.000 A 
ATOM      3  N   UNL     1       4.085   7.101  17.495  0.00  0.00    +0.000 NA
ATOM      4  C   UNL     1       3.059   6.859  18.377  0.00  0.00    +0.000 A 
ATOM      5  C   UNL     1       3.041   5.522  18.746  0.00  0.00    +0.000 A 
ATOM      6  O   UNL     1       4.128   4.941  18.117  0.00  0.00    +0.000 OA
BRANCH   4   7
ATOM      7  C   UNL     1       2.172   7.913  18.823  0.00  0.00    +0.000 A 
ATOM      8  C   UNL     1       1.679   8.838  17.896  0.00  0.00    +0.000 A 
ATOM      9  C   UNL     1       0.786   9.832  18.299  0.00  0.00    +0.000 A 
ATOM     10  C   UNL     1       0.385   9.902  19.633  0.00  0.00    +0.000 A 
ATOM     11  C   UNL     1       0.890   9.010  20.567  0.00  0.00    +0.000 A 
ATOM     12  C   UNL     1       1.808   8.025  20.167  0.00  0.00    +0.000 A 
ENDBRANCH   4   7
BRANCH   5  13
ATOM     13  C   UNL     1       2.253   4.673  19.661  0.00  0.00    +0.000 A 
ATOM     14  C   UNL     1       2.575   4.532  21.016  0.00  0.00    +0.000 A 
ATOM     15  C   UNL     1       2.053   3.485  21.792  0.00  0.00    +0.000 A 
ATOM     16  C   UNL     1       1.160   2.576  21.242  0.00  0.00    +0.000 A 
ATOM     17  C   UNL     1       0.696   2.797  19.956  0.00  0.00    +0.000 A 
ATOM     18  C   UNL     1       1.220   3.856  19.191  0.00  0.00    +0.000 A 
ENDBRANCH   5  13
ENDBRANCH   1   2
BRANCH   1  20
ATOM     19  C   UNL     1       6.746   5.525  19.287  0.00  0.00    +0.000 C 
ATOM     20  S   UNL     1       7.513   5.643  17.643  0.00  0.00    +0.000 S 
ATOM     21  O   UNL     1       8.251   4.264  17.460  0.00  0.00    +0.000 OA
ENDBRANCH   1  20
BRANCH   1  22
ATOM     22  C   UNL     1       5.830   4.367  15.736  0.00  0.00    +0.000 C 
BRANCH  22  23
ATOM     23  C   UNL     1       6.427   4.337  14.337  0.00  0.00    +0.000 A 
ATOM     24  C   UNL     1       7.379   5.290  13.949  0.00  0.00    +0.000 A 
ATOM     25  C   UNL     1       7.895   5.309  12.652  0.00  0.00    +0.000 A 
ATOM     26  C   UNL     1       7.489   4.356  11.730  0.00  0.00    +0.000 A 
ATOM     27  C   UNL     1       6.582   3.375  12.093  0.00  0.00    +0.000 A 
ATOM     28  C   UNL     1       6.008   3.400  13.371  0.00  0.00    +0.000 A 
BRANCH  27  29
ATOM     29  O   UNL     1       6.303   2.485  11.094  0.00  0.00    +0.000 OA
BRANCH  29  30
ATOM     30  C   UNL     1       4.957   2.064  10.974  0.00  0.00    +0.000 C 
BRANCH  30  31
ATOM     31  C   UNL     1       3.777   3.049  10.859  0.00  0.00    +0.000 C 
ATOM     32  O   UNL     1       2.753   2.987  11.515  0.00  0.00    +0.000 OA
BRANCH  31  33
ATOM     33  O   UNL     1       3.935   4.007   9.910  0.00  0.00    +0.000 OA
ATOM     34  H   UNL     1       4.616   4.680  10.080  0.00  0.00    +0.000 HD
ENDBRANCH  31  33
ENDBRANCH  30  31
ENDBRANCH  29  30
ENDBRANCH  27  29
ENDBRANCH  22  23
ENDBRANCH   1  22
TORSDOF 10
ENDMDL
MODEL 9
REMARK VINA RESULT:      -7.9      2.927      8.310
REMARK  Name = 
REMARK  11 active torsions:
REMARK  status: ('A' for Active; 'I' for Inactive)
REMARK    1  A    between atoms: C_1  and  S_2
REMARK    2  A    between atoms: S_2  and  C_4
REMARK    3  A    between atoms: C_4  and  C_5
REMARK    4  A    between atoms: C_4  and  C_17
REMARK    5  A    between atoms: C_5  and  C_6
REMARK    6  A    between atoms: C_10  and  O_11
REMARK    7  A    between atoms: O_11  and  C_12
REMARK    8  A    between atoms: C_12  and  C_13
REMARK    9  A    between atoms: C_13  and  O_15
REMARK   10  A    between atoms: C_19  and  C_20
REMARK   11  A    between atoms: C_26  and  C_27
REMARK                            x       y       z     vdW  Elec       q    Type
REMARK                         _______ _______ _______ _____ _____    ______ ____
ROOT
ATOM      1  C   UNL     1       3.385   2.999  18.816  0.00  0.00    +0.000 C 
ENDROOT
BRANCH   1   2
ATOM      2  C   UNL     1       4.364   3.682  17.884  0.00  0.00    +0.000 A 
ATOM      3  N   UNL     1       4.519   3.506  16.589  0.00  0.00    +0.000 NA
ATOM      4  C   UNL     1       5.531   4.365  16.233  0.00  0.00    +0.000 A 
ATOM      5  C   UNL     1       5.902   5.153  17.313  0.00  0.00    +0.000 A 
ATOM      6  O   UNL     1       5.134   4.718  18.379  0.00  0.00    +0.000 OA
BRANCH   4   7
ATOM      7  C   UNL     1       6.090   4.374  14.897  0.00  0.00    +0.000 A 
ATOM      8  C   UNL     1       7.251   5.111  14.640  0.00  0.00    +0.000 A 
ATOM      9  C   UNL     1       7.830   5.094  13.369  0.00  0.00    +0.000 A 
ATOM     10  C   UNL     1       7.246   4.338  12.353  0.00  0.00    +0.000 A 
ATOM     11  C   UNL     1       6.078   3.628  12.588  0.00  0.00    +0.000 A 
ATOM     12  C   UNL     1       5.480   3.665  13.858  0.00  0.00    +0.000 A 
ENDBRANCH   4   7
BRANCH   5  13
ATOM     13  C   UNL     1       6.915   6.191  17.585  0.00  0.00    +0.000 A 
ATOM     14  C   UNL     1       7.845   6.074  18.624  0.00  0.00    +0.000 A 
ATOM     15  C   UNL     1       8.567   7.183  19.094  0.00  0.00    +0.000 A 
ATOM     16  C   UNL     1       8.407   8.431  18.506  0.00  0.00    +0.000 A 
ATOM     17  C   UNL     1       7.623   8.532  17.369  0.00  0.00    +0.000 A 
ATOM     18  C   UNL     1       6.913   7.411  16.902  0.00  0.00    +0.000 A 
ENDBRANCH   5  13
ENDBRANCH   1   2
BRANCH   1  20
ATOM     19  C   UNL     1       2.661   2.158  21.381  0.00  0.00    +0.000 C 
ATOM     20  S   UNL     1       4.155   2.633  20.463  0.00  0.00    +0.000 S 
ATOM     21  O   UNL     1       4.982   1.298  20.352  0.00  0.00    +0.000 OA
ENDBRANCH   1  20
BRANCH   1  22
ATOM     22  C   UNL     1       2.022   3.726  18.929  0.00  0.00    +0.000 C 
BRANCH  22  23
ATOM     23  C   UNL     1       1.987   5.201  19.300  0.00  0.00    +0.000 A 
ATOM     24  C   UNL     1       1.652   5.599  20.601  0.00  0.00    +0.000 A 
ATOM     25  C   UNL     1       1.562   6.950  20.942  0.00  0.00    +0.000 A 
ATOM     26  C   UNL     1       1.836   7.925  19.994  0.00  0.00    +0.000 A 
ATOM     27  C   UNL     1       2.211   7.564  18.710  0.00  0.00    +0.000 A 
ATOM     28  C   UNL     1       2.228   6.211  18.347  0.00  0.00    +0.000 A 
BRANCH  27  29
ATOM     29  O   UNL     1       2.483   8.628  17.897  0.00  0.00    +0.000 OA
BRANCH  29  30
ATOM     30  C   UNL     1       1.549   9.692  17.907  0.00  0.00    +0.000 C 
BRANCH  30  31
ATOM     31  C   UNL     1       1.888  11.103  18.424  0.00  0.00    +0.000 C 
ATOM     32  O   UNL     1       2.654  11.878  17.879  0.00  0.00    +0.000 OA
BRANCH  31  33
ATOM     33  O   UNL     1       1.288  11.431  19.596  0.00  0.00    +0.000 OA
ATOM     34  H   UNL     1       0.364  11.147  19.707  0.00  0.00    +0.000 HD
ENDBRANCH  31  33
ENDBRANCH  30  31
ENDBRANCH  29  30
ENDBRANCH  27  29
ENDBRANCH  22  23
ENDBRANCH   1  22
TORSDOF 10
ENDMDL
