MODEL 1
REMARK VINA RESULT:      -7.7      0.000      0.000
REMARK  Name = 
REMARK  3 active torsions:
REMARK  status: ('A' for Active; 'I' for Inactive)
REMARK    1  A    between atoms: N_8  and  N_9
REMARK    2  A    between atoms: C_10  and  C_11
REMARK    3  A    between atoms: C_11  and  C_12
REMARK                            x       y       z     vdW  Elec       q    Type
REMARK                         _______ _______ _______ _____ _____    ______ ____
ROOT
ATOM      1  N   UNL     1       4.064   4.984  17.964  0.00  0.00    +0.000 N 
ATOM      2  C   UNL     1       2.942   5.407  18.599  0.00  0.00    +0.000 A 
ATOM      3  N   UNL     1       1.859   4.781  18.213  0.00  0.00    +0.000 NA
ATOM      4  N   UNL     1       2.297   3.875  17.287  0.00  0.00    +0.000 N 
ATOM      5  C   UNL     1       3.684   3.934  17.153  0.00  0.00    +0.000 A 
ATOM      6  O   UNL     1       4.376   3.177  16.494  0.00  0.00    +0.000 OA
ATOM      7  H   UNL     1       1.679   3.219  16.827  0.00  0.00    +0.000 HD
ENDROOT
BRANCH   1  15
ATOM      8  O   UNL     1       6.054   4.093  19.636  0.00  0.00    +0.000 OA
ATOM      9  C   UNL     1       6.264   5.067  18.911  0.00  0.00    +0.000 C 
ATOM     10  C   UNL     1       7.589   5.799  19.019  0.00  0.00    +0.000 C 
ATOM     11  C   UNL     1       7.657   7.069  18.193  0.00  0.00    +0.000 C 
ATOM     12  C   UNL     1       7.147   6.763  16.805  0.00  0.00    +0.000 C 
ATOM     13  C   UNL     1       5.681   6.396  16.902  0.00  0.00    +0.000 C 
ATOM     14  O   UNL     1       4.878   6.831  16.076  0.00  0.00    +0.000 OA
ATOM     15  N   UNL     1       5.360   5.539  17.965  0.00  0.00    +0.000 N 
ENDBRANCH   1  15
BRANCH   2  16
ATOM     16  C   UNL     1       2.949   6.462  19.678  0.00  0.00    +0.000 C 
BRANCH  16  17
ATOM     17  C   UNL     1       2.149   7.715  19.388  0.00  0.00    +0.000 A 
ATOM     18  C   UNL     1       1.384   8.312  20.407  0.00  0.00    +0.000 A 
ATOM     19  C   UNL     1       0.691   9.499  20.167  0.00  0.00    +0.000 A 
ATOM     20  C   UNL     1       0.752  10.095  18.900  0.00  0.00    +0.000 A 
ATOM     21 CL   UNL     1      -0.090  11.567  18.616  0.00  0.00    +0.000 Cl
ATOM     22  C   UNL     1       1.487   9.502  17.884  0.00  0.00    +0.000 A 
ATOM     23  C   UNL     1       2.182   8.311  18.121  0.00  0.00    +0.000 A 
ENDBRANCH  16  17
ENDBRANCH   2  16
TORSDOF 3
ENDMDL
MODEL 2
REMARK VINA RESULT:      -7.6      0.108      1.037
REMARK  Name = 
REMARK  3 active torsions:
REMARK  status: ('A' for Active; 'I' for Inactive)
REMARK    1  A    between atoms: N_8  and  N_9
REMARK    2  A    between atoms: C_10  and  C_11
REMARK    3  A    between atoms: C_11  and  C_12
REMARK                            x       y       z     vdW  Elec       q    Type
REMARK                         _______ _______ _______ _____ _____    ______ ____
ROOT
ATOM      1  N   UNL     1       4.092   4.953  17.942  0.00  0.00    +0.000 N 
ATOM      2  C   UNL     1       2.966   5.321  18.605  0.00  0.00    +0.000 A 
ATOM      3  N   UNL     1       1.894   4.688  18.200  0.00  0.00    +0.000 NA
ATOM      4  N   UNL     1       2.345   3.835  17.229  0.00  0.00    +0.000 N 
ATOM      5  C   UNL     1       3.728   3.933  17.087  0.00  0.00    +0.000 A 
ATOM      6  O   UNL     1       4.431   3.223  16.389  0.00  0.00    +0.000 OA
ATOM      7  H   UNL     1       1.737   3.187  16.745  0.00  0.00    +0.000 HD
ENDROOT
BRANCH   1  15
ATOM      8  O   UNL     1       6.090   4.091  19.619  0.00  0.00    +0.000 OA
ATOM      9  C   UNL     1       6.282   5.077  18.906  0.00  0.00    +0.000 C 
ATOM     10  C   UNL     1       7.590   5.838  19.030  0.00  0.00    +0.000 C 
ATOM     11  C   UNL     1       7.635   7.117  18.217  0.00  0.00    +0.000 C 
ATOM     12  C   UNL     1       7.141   6.813  16.822  0.00  0.00    +0.000 C 
ATOM     13  C   UNL     1       5.683   6.413  16.905  0.00  0.00    +0.000 C 
ATOM     14  O   UNL     1       4.877   6.836  16.078  0.00  0.00    +0.000 OA
ATOM     15  N   UNL     1       5.375   5.537  17.958  0.00  0.00    +0.000 N 
ENDBRANCH   1  15
BRANCH   2  16
ATOM     16  C   UNL     1       2.959   6.325  19.731  0.00  0.00    +0.000 C 
BRANCH  16  17
ATOM     17  C   UNL     1       2.213   7.616  19.466  0.00  0.00    +0.000 A 
ATOM     18  C   UNL     1       2.234   8.188  18.181  0.00  0.00    +0.000 A 
ATOM     19  C   UNL     1       1.502   9.345  17.911  0.00  0.00    +0.000 A 
ATOM     20  C   UNL     1       0.749   9.944  18.929  0.00  0.00    +0.000 A 
ATOM     21 CL   UNL     1      -0.165  11.359  18.584  0.00  0.00    +0.000 Cl
ATOM     22  C   UNL     1       0.740   9.398  20.204  0.00  0.00    +0.000 A 
ATOM     23  C   UNL     1       1.473   8.239  20.478  0.00  0.00    +0.000 A 
ENDBRANCH  16  17
ENDBRANCH   2  16
TORSDOF 3
ENDMDL
MODEL 3
REMARK VINA RESULT:      -7.6      1.398      2.319
REMARK  Name = 
REMARK  3 active torsions:
REMARK  status: ('A' for Active; 'I' for Inactive)
REMARK    1  A    between atoms: N_8  and  N_9
REMARK    2  A    between atoms: C_10  and  C_11
REMARK    3  A    between atoms: C_11  and  C_12
REMARK                            x       y       z     vdW  Elec       q    Type
REMARK                         _______ _______ _______ _____ _____    ______ ____
ROOT
ATOM      1  N   UNL     1       3.762   4.512  17.876  0.00  0.00    +0.000 N 
ATOM      2  C   UNL     1       2.771   5.435  17.780  0.00  0.00    +0.000 A 
ATOM      3  N   UNL     1       1.571   4.915  17.805  0.00  0.00    +0.000 NA
ATOM      4  N   UNL     1       1.782   3.571  17.949  0.00  0.00    +0.000 N 
ATOM      5  C   UNL     1       3.144   3.292  18.060  0.00  0.00    +0.000 A 
ATOM      6  O   UNL     1       3.637   2.206  18.312  0.00  0.00    +0.000 OA
ATOM      7  H   UNL     1       1.025   2.903  18.029  0.00  0.00    +0.000 HD
ENDROOT
BRANCH   1  15
ATOM      8  O   UNL     1       4.955   4.341  15.407  0.00  0.00    +0.000 OA
ATOM      9  C   UNL     1       5.657   4.474  16.410  0.00  0.00    +0.000 C 
ATOM     10  C   UNL     1       7.168   4.458  16.264  0.00  0.00    +0.000 C 
ATOM     11  C   UNL     1       7.912   4.468  17.585  0.00  0.00    +0.000 C 
ATOM     12  C   UNL     1       7.313   5.542  18.462  0.00  0.00    +0.000 C 
ATOM     13  C   UNL     1       5.882   5.158  18.781  0.00  0.00    +0.000 C 
ATOM     14  O   UNL     1       5.442   5.308  19.921  0.00  0.00    +0.000 OA
ATOM     15  N   UNL     1       5.151   4.663  17.691  0.00  0.00    +0.000 N 
ENDBRANCH   1  15
BRANCH   2  16
ATOM     16  C   UNL     1       3.029   6.920  17.701  0.00  0.00    +0.000 C 
BRANCH  16  17
ATOM     17  C   UNL     1       2.254   7.782  18.674  0.00  0.00    +0.000 A 
ATOM     18  C   UNL     1       1.637   8.966  18.228  0.00  0.00    +0.000 A 
ATOM     19  C   UNL     1       0.871   9.736  19.102  0.00  0.00    +0.000 A 
ATOM     20  C   UNL     1       0.722   9.333  20.437  0.00  0.00    +0.000 A 
ATOM     21 CL   UNL     1      -0.239  10.278  21.504  0.00  0.00    +0.000 Cl
ATOM     22  C   UNL     1       1.344   8.178  20.890  0.00  0.00    +0.000 A 
ATOM     23  C   UNL     1       2.113   7.404  20.016  0.00  0.00    +0.000 A 
ENDBRANCH  16  17
ENDBRANCH   2  16
TORSDOF 3
ENDMDL
MODEL 4
REMARK VINA RESULT:      -7.6      1.386      2.156
REMARK  Name = 
REMARK  3 active torsions:
REMARK  status: ('A' for Active; 'I' for Inactive)
REMARK    1  A    between atoms: N_8  and  N_9
REMARK    2  A    between atoms: C_10  and  C_11
REMARK    3  A    between atoms: C_11  and  C_12
REMARK                            x       y       z     vdW  Elec       q    Type
REMARK                         _______ _______ _______ _____ _____    ______ ____
ROOT
ATOM      1  N   UNL     1       3.776   4.499  17.881  0.00  0.00    +0.000 N 
ATOM      2  C   UNL     1       2.784   5.419  17.779  0.00  0.00    +0.000 A 
ATOM      3  N   UNL     1       1.584   4.895  17.799  0.00  0.00    +0.000 NA
ATOM      4  N   UNL     1       1.799   3.552  17.948  0.00  0.00    +0.000 N 
ATOM      5  C   UNL     1       3.160   3.278  18.065  0.00  0.00    +0.000 A 
ATOM      6  O   UNL     1       3.656   2.194  18.322  0.00  0.00    +0.000 OA
ATOM      7  H   UNL     1       1.044   2.883  18.025  0.00  0.00    +0.000 HD
ENDROOT
BRANCH   1  15
ATOM      8  O   UNL     1       4.980   4.334  15.417  0.00  0.00    +0.000 OA
ATOM      9  C   UNL     1       5.678   4.466  16.423  0.00  0.00    +0.000 C 
ATOM     10  C   UNL     1       7.190   4.455  16.283  0.00  0.00    +0.000 C 
ATOM     11  C   UNL     1       7.928   4.464  17.608  0.00  0.00    +0.000 C 
ATOM     12  C   UNL     1       7.322   5.535  18.483  0.00  0.00    +0.000 C 
ATOM     13  C   UNL     1       5.892   5.148  18.796  0.00  0.00    +0.000 C 
ATOM     14  O   UNL     1       5.446   5.295  19.934  0.00  0.00    +0.000 OA
ATOM     15  N   UNL     1       5.166   4.653  17.702  0.00  0.00    +0.000 N 
ENDBRANCH   1  15
BRANCH   2  16
ATOM     16  C   UNL     1       3.038   6.905  17.698  0.00  0.00    +0.000 C 
BRANCH  16  17
ATOM     17  C   UNL     1       2.215   7.772  18.626  0.00  0.00    +0.000 A 
ATOM     18  C   UNL     1       2.080   7.419  19.982  0.00  0.00    +0.000 A 
ATOM     19  C   UNL     1       1.374   8.242  20.859  0.00  0.00    +0.000 A 
ATOM     20  C   UNL     1       0.788   9.423  20.384  0.00  0.00    +0.000 A 
ATOM     21 CL   UNL     1      -0.066  10.442  21.474  0.00  0.00    +0.000 Cl
ATOM     22  C   UNL     1       0.898   9.768  19.045  0.00  0.00    +0.000 A 
ATOM     23  C   UNL     1       1.605   8.944  18.163  0.00  0.00    +0.000 A 
ENDBRANCH  16  17
ENDBRANCH   2  16
TORSDOF 3
ENDMDL
MODEL 5
REMARK VINA RESULT:      -7.4      2.890      4.095
REMARK  Name = 
REMARK  3 active torsions:
REMARK  status: ('A' for Active; 'I' for Inactive)
REMARK    1  A    between atoms: N_8  and  N_9
REMARK    2  A    between atoms: C_10  and  C_11
REMARK    3  A    between atoms: C_11  and  C_12
REMARK                            x       y       z     vdW  Elec       q    Type
REMARK                         _______ _______ _______ _____ _____    ______ ____
ROOT
ATOM      1  N   UNL     1       6.580   4.765  15.741  0.00  0.00    +0.000 N 
ATOM      2  C   UNL     1       5.651   3.775  15.748  0.00  0.00    +0.000 A 
ATOM      3  N   UNL     1       5.401   3.289  14.559  0.00  0.00    +0.000 NA
ATOM      4  N   UNL     1       6.232   3.982  13.722  0.00  0.00    +0.000 N 
ATOM      5  C   UNL     1       7.030   4.872  14.441  0.00  0.00    +0.000 A 
ATOM      6  O   UNL     1       7.943   5.542  13.992  0.00  0.00    +0.000 OA
ATOM      7  H   UNL     1       6.282   3.802  12.728  0.00  0.00    +0.000 HD
ENDROOT
BRANCH   1  15
ATOM      8  O   UNL     1       5.405   7.222  16.097  0.00  0.00    +0.000 OA
ATOM      9  C   UNL     1       6.357   6.899  16.808  0.00  0.00    +0.000 C 
ATOM     10  C   UNL     1       6.908   7.898  17.810  0.00  0.00    +0.000 C 
ATOM     11  C   UNL     1       8.174   7.436  18.504  0.00  0.00    +0.000 C 
ATOM     12  C   UNL     1       7.964   6.020  18.985  0.00  0.00    +0.000 C 
ATOM     13  C   UNL     1       7.790   5.124  17.777  0.00  0.00    +0.000 C 
ATOM     14  O   UNL     1       8.342   4.024  17.738  0.00  0.00    +0.000 OA
ATOM     15  N   UNL     1       6.961   5.647  16.773  0.00  0.00    +0.000 N 
ENDBRANCH   1  15
BRANCH   2  16
ATOM     16  C   UNL     1       5.006   3.255  17.009  0.00  0.00    +0.000 C 
BRANCH  16  17
ATOM     17  C   UNL     1       4.196   4.257  17.804  0.00  0.00    +0.000 A 
ATOM     18  C   UNL     1       4.557   4.559  19.130  0.00  0.00    +0.000 A 
ATOM     19  C   UNL     1       3.855   5.523  19.852  0.00  0.00    +0.000 A 
ATOM     20  C   UNL     1       2.777   6.190  19.254  0.00  0.00    +0.000 A 
ATOM     21 CL   UNL     1       1.927   7.391  20.143  0.00  0.00    +0.000 Cl
ATOM     22  C   UNL     1       2.401   5.884  17.954  0.00  0.00    +0.000 A 
ATOM     23  C   UNL     1       3.103   4.917  17.228  0.00  0.00    +0.000 A 
ENDBRANCH  16  17
ENDBRANCH   2  16
TORSDOF 3
ENDMDL
MODEL 6
REMARK VINA RESULT:      -7.4      1.414      1.594
REMARK  Name = 
REMARK  3 active torsions:
REMARK  status: ('A' for Active; 'I' for Inactive)
REMARK    1  A    between atoms: N_8  and  N_9
REMARK    2  A    between atoms: C_10  and  C_11
REMARK    3  A    between atoms: C_11  and  C_12
REMARK                            x       y       z     vdW  Elec       q    Type
REMARK                         _______ _______ _______ _____ _____    ______ ____
ROOT
ATOM      1  N   UNL     1       3.758   4.414  17.627  0.00  0.00    +0.000 N 
ATOM      2  C   UNL     1       2.884   5.431  17.836  0.00  0.00    +0.000 A 
ATOM      3  N   UNL     1       1.647   5.031  17.988  0.00  0.00    +0.000 NA
ATOM      4  N   UNL     1       1.713   3.667  17.898  0.00  0.00    +0.000 N 
ATOM      5  C   UNL     1       3.031   3.245  17.734  0.00  0.00    +0.000 A 
ATOM      6  O   UNL     1       3.422   2.090  17.738  0.00  0.00    +0.000 OA
ATOM      7  H   UNL     1       0.902   3.072  18.006  0.00  0.00    +0.000 HD
ENDROOT
BRANCH   1  15
ATOM      8  O   UNL     1       5.829   4.235  19.423  0.00  0.00    +0.000 OA
ATOM      9  C   UNL     1       6.075   4.443  18.235  0.00  0.00    +0.000 C 
ATOM     10  C   UNL     1       7.513   4.675  17.805  0.00  0.00    +0.000 C 
ATOM     11  C   UNL     1       7.662   5.077  16.351  0.00  0.00    +0.000 C 
ATOM     12  C   UNL     1       6.832   4.137  15.509  0.00  0.00    +0.000 C 
ATOM     13  C   UNL     1       5.372   4.340  15.860  0.00  0.00    +0.000 C 
ATOM     14  O   UNL     1       4.522   4.373  14.971  0.00  0.00    +0.000 OA
ATOM     15  N   UNL     1       5.111   4.458  17.234  0.00  0.00    +0.000 N 
ENDBRANCH   1  15
BRANCH   2  16
ATOM     16  C   UNL     1       3.305   6.877  17.931  0.00  0.00    +0.000 C 
BRANCH  16  17
ATOM     17  C   UNL     1       2.329   7.809  18.617  0.00  0.00    +0.000 A 
ATOM     18  C   UNL     1       2.050   7.651  19.987  0.00  0.00    +0.000 A 
ATOM     19  C   UNL     1       1.198   8.540  20.642  0.00  0.00    +0.000 A 
ATOM     20  C   UNL     1       0.612   9.595  19.928  0.00  0.00    +0.000 A 
ATOM     21 CL   UNL     1      -0.422  10.698  20.746  0.00  0.00    +0.000 Cl
ATOM     22  C   UNL     1       0.865   9.746  18.572  0.00  0.00    +0.000 A 
ATOM     23  C   UNL     1       1.718   8.855  17.913  0.00  0.00    +0.000 A 
ENDBRANCH  16  17
ENDBRANCH   2  16
TORSDOF 3
ENDMDL
MODEL 7
REMARK VINA RESULT:      -7.4      2.904      4.168
REMARK  Name = 
REMARK  3 active torsions:
REMARK  status: ('A' for Active; 'I' for Inactive)
REMARK    1  A    between atoms: N_8  and  N_9
REMARK    2  A    between atoms: C_10  and  C_11
REMARK    3  A    between atoms: C_11  and  C_12
REMARK                            x       y       z     vdW  Elec       q    Type
REMARK                         _______ _______ _______ _____ _____    ______ ____
ROOT
ATOM      1  N   UNL     1       6.575   4.775  15.736  0.00  0.00    +0.000 N 
ATOM      2  C   UNL     1       5.635   3.796  15.741  0.00  0.00    +0.000 A 
ATOM      3  N   UNL     1       5.384   3.309  14.552  0.00  0.00    +0.000 NA
ATOM      4  N   UNL     1       6.226   3.991  13.717  0.00  0.00    +0.000 N 
ATOM      5  C   UNL     1       7.031   4.873  14.437  0.00  0.00    +0.000 A 
ATOM      6  O   UNL     1       7.954   5.532  13.990  0.00  0.00    +0.000 OA
ATOM      7  H   UNL     1       6.278   3.808  12.723  0.00  0.00    +0.000 HD
ENDROOT
BRANCH   1  15
ATOM      8  O   UNL     1       5.416   7.240  16.090  0.00  0.00    +0.000 OA
ATOM      9  C   UNL     1       6.366   6.911  16.801  0.00  0.00    +0.000 C 
ATOM     10  C   UNL     1       6.924   7.908  17.802  0.00  0.00    +0.000 C 
ATOM     11  C   UNL     1       8.186   7.437  18.497  0.00  0.00    +0.000 C 
ATOM     12  C   UNL     1       7.967   6.023  18.979  0.00  0.00    +0.000 C 
ATOM     13  C   UNL     1       7.787   5.127  17.771  0.00  0.00    +0.000 C 
ATOM     14  O   UNL     1       8.331   4.024  17.733  0.00  0.00    +0.000 OA
ATOM     15  N   UNL     1       6.961   5.655  16.767  0.00  0.00    +0.000 N 
ENDBRANCH   1  15
BRANCH   2  16
ATOM     16  C   UNL     1       4.978   3.286  17.001  0.00  0.00    +0.000 C 
BRANCH  16  17
ATOM     17  C   UNL     1       4.218   4.310  17.816  0.00  0.00    +0.000 A 
ATOM     18  C   UNL     1       3.119   4.983  17.251  0.00  0.00    +0.000 A 
ATOM     19  C   UNL     1       2.375   5.885  18.011  0.00  0.00    +0.000 A 
ATOM     20  C   UNL     1       2.730   6.127  19.345  0.00  0.00    +0.000 A 
ATOM     21 CL   UNL     1       1.798   7.226  20.282  0.00  0.00    +0.000 Cl
ATOM     22  C   UNL     1       3.825   5.484  19.904  0.00  0.00    +0.000 A 
ATOM     23  C   UNL     1       4.573   4.579  19.143  0.00  0.00    +0.000 A 
ENDBRANCH  16  17
ENDBRANCH   2  16
TORSDOF 3
ENDMDL
MODEL 8
REMARK VINA RESULT:      -7.4      1.496      2.168
REMARK  Name = 
REMARK  3 active torsions:
REMARK  status: ('A' for Active; 'I' for Inactive)
REMARK    1  A    between atoms: N_8  and  N_9
REMARK    2  A    between atoms: C_10  and  C_11
REMARK    3  A    between atoms: C_11  and  C_12
REMARK                            x       y       z     vdW  Elec       q    Type
REMARK                         _______ _______ _______ _____ _____    ______ ____
ROOT
ATOM      1  N   UNL     1       4.121   4.473  18.863  0.00  0.00    +0.000 N 
ATOM      2  C   UNL     1       2.958   5.173  18.912  0.00  0.00    +0.000 A 
ATOM      3  N   UNL     1       2.024   4.580  19.611  0.00  0.00    +0.000 NA
ATOM      4  N   UNL     1       2.613   3.434  20.070  0.00  0.00    +0.000 N 
ATOM      5  C   UNL     1       3.947   3.368  19.671  0.00  0.00    +0.000 A 
ATOM      6  O   UNL     1       4.761   2.529  20.018  0.00  0.00    +0.000 OA
ATOM      7  H   UNL     1       2.135   2.776  20.672  0.00  0.00    +0.000 HD
ENDROOT
BRANCH   1  15
ATOM      8  O   UNL     1       6.502   5.373  19.898  0.00  0.00    +0.000 OA
ATOM      9  C   UNL     1       6.390   5.221  18.681  0.00  0.00    +0.000 C 
ATOM     10  C   UNL     1       7.545   5.612  17.776  0.00  0.00    +0.000 C 
ATOM     11  C   UNL     1       7.221   5.528  16.297  0.00  0.00    +0.000 C 
ATOM     12  C   UNL     1       6.552   4.201  16.030  0.00  0.00    +0.000 C 
ATOM     13  C   UNL     1       5.224   4.177  16.759  0.00  0.00    +0.000 C 
ATOM     14  O   UNL     1       4.224   3.720  16.206  0.00  0.00    +0.000 OA
ATOM     15  N   UNL     1       5.264   4.685  18.066  0.00  0.00    +0.000 N 
ENDBRANCH   1  15
BRANCH   2  16
ATOM     16  C   UNL     1       2.777   6.523  18.264  0.00  0.00    +0.000 C 
BRANCH  16  17
ATOM     17  C   UNL     1       2.119   7.587  19.116  0.00  0.00    +0.000 A 
ATOM     18  C   UNL     1       1.694   8.794  18.530  0.00  0.00    +0.000 A 
ATOM     19  C   UNL     1       1.033   9.756  19.294  0.00  0.00    +0.000 A 
ATOM     20  C   UNL     1       0.797   9.521  20.655  0.00  0.00    +0.000 A 
ATOM     21 CL   UNL     1      -0.034  10.703  21.586  0.00  0.00    +0.000 Cl
ATOM     22  C   UNL     1       1.231   8.343  21.246  0.00  0.00    +0.000 A 
ATOM     23  C   UNL     1       1.895   7.377  20.482  0.00  0.00    +0.000 A 
ENDBRANCH  16  17
ENDBRANCH   2  16
TORSDOF 3
ENDMDL
MODEL 9
REMARK VINA RESULT:      -7.3      2.037      4.233
REMARK  Name = 
REMARK  3 active torsions:
REMARK  status: ('A' for Active; 'I' for Inactive)
REMARK    1  A    between atoms: N_8  and  N_9
REMARK    2  A    between atoms: C_10  and  C_11
REMARK    3  A    between atoms: C_11  and  C_12
REMARK                            x       y       z     vdW  Elec       q    Type
REMARK                         _______ _______ _______ _____ _____    ______ ____
ROOT
ATOM      1  N   UNL     1       3.787   4.825  18.792  0.00  0.00    +0.000 N 
ATOM      2  C   UNL     1       3.802   6.065  18.241  0.00  0.00    +0.000 A 
ATOM      3  N   UNL     1       4.997   6.599  18.196  0.00  0.00    +0.000 NA
ATOM      4  N   UNL     1       5.820   5.644  18.726  0.00  0.00    +0.000 N 
ATOM      5  C   UNL     1       5.101   4.495  19.053  0.00  0.00    +0.000 A 
ATOM      6  O   UNL     1       5.571   3.437  19.435  0.00  0.00    +0.000 OA
ATOM      7  H   UNL     1       6.823   5.763  18.797  0.00  0.00    +0.000 HD
ENDROOT
BRANCH   1  15
ATOM      8  O   UNL     1       2.757   2.834  17.203  0.00  0.00    +0.000 OA
ATOM      9  C   UNL     1       2.200   3.108  18.267  0.00  0.00    +0.000 C 
ATOM     10  C   UNL     1       0.912   2.393  18.635  0.00  0.00    +0.000 C 
ATOM     11  C   UNL     1       0.245   2.934  19.885  0.00  0.00    +0.000 C 
ATOM     12  C   UNL     1       1.293   3.069  20.963  0.00  0.00    +0.000 C 
ATOM     13  C   UNL     1       2.297   4.117  20.529  0.00  0.00    +0.000 C 
ATOM     14  O   UNL     1       2.716   4.945  21.337  0.00  0.00    +0.000 OA
ATOM     15  N   UNL     1       2.691   4.030  19.185  0.00  0.00    +0.000 N 
ENDBRANCH   1  15
BRANCH   2  16
ATOM     16  C   UNL     1       2.571   6.742  17.691  0.00  0.00    +0.000 C 
BRANCH  16  17
ATOM     17  C   UNL     1       2.031   7.901  18.502  0.00  0.00    +0.000 A 
ATOM     18  C   UNL     1       1.706   9.113  17.865  0.00  0.00    +0.000 A 
ATOM     19  C   UNL     1       1.153  10.167  18.592  0.00  0.00    +0.000 A 
ATOM     20  C   UNL     1       0.927  10.020  19.968  0.00  0.00    +0.000 A 
ATOM     21 CL   UNL     1       0.229  11.316  20.854  0.00  0.00    +0.000 Cl
ATOM     22  C   UNL     1       1.265   8.835  20.607  0.00  0.00    +0.000 A 
ATOM     23  C   UNL     1       1.820   7.777  19.881  0.00  0.00    +0.000 A 
ENDBRANCH  16  17
ENDBRANCH   2  16
TORSDOF 3
ENDMDL
