MODEL 1
REMARK VINA RESULT:      -6.6      0.000      0.000
REMARK  Name = 
REMARK  15 active torsions:
REMARK  status: ('A' for Active; 'I' for Inactive)
REMARK    1  A    between atoms: C_1  and  C_2
REMARK    2  A    between atoms: C_4  and  O_5
REMARK    3  A    between atoms: O_5  and  C_6
REMARK    4  A    between atoms: C_8  and  C_9
REMARK    5  A    between atoms: C_9  and  O_10
REMARK    6  A    between atoms: C_11  and  O_12
REMARK    7  A    between atoms: C_13  and  O_14
REMARK    8  A    between atoms: C_15  and  O_16
REMARK    9  A    between atoms: C_19  and  C_20
REMARK   10  A    between atoms: C_20  and  O_22
REMARK   11  A    between atoms: O_22  and  C_23
REMARK   12  A    between atoms: C_24  and  C_25
REMARK   13  A    between atoms: C_25  and  C_26
REMARK   14  A    between atoms: C_26  and  O_28
REMARK   15  A    between atoms: O_28  and  C_29
REMARK                            x       y       z     vdW  Elec       q    Type
REMARK                         _______ _______ _______ _____ _____    ______ ____
ROOT
ATOM      1  C   UNL     1       1.870   4.998  20.494  0.00  0.00    +0.000 C 
ATOM      2  C   UNL     1       1.743   6.459  20.772  0.00  0.00    +0.000 C 
ATOM      3  C   UNL     1       1.798   7.490  19.896  0.00  0.00    +0.000 C 
ATOM      4  C   UNL     1       2.145   7.311  18.421  0.00  0.00    +0.000 C 
ATOM      5  O   UNL     1       1.388   8.160  17.539  0.00  0.00    +0.000 OA
ATOM      6  C   UNL     1       1.163   9.441  17.949  0.00  0.00    +0.000 C 
ATOM      7  C   UNL     1       1.212   9.862  19.217  0.00  0.00    +0.000 C 
ATOM      8  C   UNL     1       1.467   8.915  20.367  0.00  0.00    +0.000 C 
ENDROOT
BRANCH   7   9
ATOM      9  C   UNL     1       0.945  11.287  19.555  0.00  0.00    +0.000 C 
ATOM     10  O   UNL     1       1.701  11.955  20.248  0.00  0.00    +0.000 OA
BRANCH   9  11
ATOM     11  O   UNL     1      -0.264  11.693  19.092  0.00  0.00    +0.000 OA
ATOM     12  C   UNL     1      -0.261  13.009  18.532  0.00  0.00    +0.000 C 
ENDBRANCH   9  11
ENDBRANCH   7   9
BRANCH   4  13
ATOM     13  O   UNL     1       3.563   7.487  18.253  0.00  0.00    +0.000 OA
BRANCH  13  14
ATOM     14  C   UNL     1       4.125   6.484  17.398  0.00  0.00    +0.000 C 
ATOM     15  O   UNL     1       3.673   5.182  17.777  0.00  0.00    +0.000 OA
ATOM     16  C   UNL     1       4.056   4.184  16.819  0.00  0.00    +0.000 C 
ATOM     17  C   UNL     1       5.577   4.010  16.865  0.00  0.00    +0.000 C 
ATOM     18  C   UNL     1       6.245   5.367  16.565  0.00  0.00    +0.000 C 
ATOM     19  C   UNL     1       5.679   6.504  17.454  0.00  0.00    +0.000 C 
BRANCH  17  20
ATOM     20  O   UNL     1       6.002   3.004  15.942  0.00  0.00    +0.000 OA
ATOM     21  H   UNL     1       6.792   2.561  16.297  0.00  0.00    +0.000 HD
ENDBRANCH  17  20
BRANCH  18  22
ATOM     22  O   UNL     1       7.669   5.269  16.686  0.00  0.00    +0.000 OA
ATOM     23  H   UNL     1       7.881   4.517  17.267  0.00  0.00    +0.000 HD
ENDBRANCH  18  22
BRANCH  19  24
ATOM     24  O   UNL     1       6.213   7.769  17.037  0.00  0.00    +0.000 OA
ATOM     25  H   UNL     1       5.867   8.465  17.619  0.00  0.00    +0.000 HD
ENDBRANCH  19  24
BRANCH  16  26
ATOM     26  C   UNL     1       3.315   2.880  17.130  0.00  0.00    +0.000 C 
BRANCH  26  27
ATOM     27  O   UNL     1       4.148   2.056  17.950  0.00  0.00    +0.000 OA
ATOM     28  H   UNL     1       5.068   2.243  17.700  0.00  0.00    +0.000 HD
ENDBRANCH  26  27
ENDBRANCH  16  26
ENDBRANCH  13  14
ENDBRANCH   4  13
BRANCH   8  29
ATOM     29  C   UNL     1       0.281   8.959  21.372  0.00  0.00    +0.000 C 
BRANCH  29  30
ATOM     30  C   UNL     1       0.685   9.463  22.747  0.00  0.00    +0.000 C 
ATOM     31  O   UNL     1       1.827   9.470  23.174  0.00  0.00    +0.000 OA
BRANCH  30  32
ATOM     32  O   UNL     1      -0.417   9.893  23.424  0.00  0.00    +0.000 OA
ATOM     33  C   UNL     1      -1.070  11.055  22.906  0.00  0.00    +0.000 C 
ENDBRANCH  30  32
ENDBRANCH  29  30
ENDBRANCH   8  29
TORSDOF 12
ENDMDL
MODEL 2
REMARK VINA RESULT:      -6.3      2.054      7.728
REMARK  Name = 
REMARK  15 active torsions:
REMARK  status: ('A' for Active; 'I' for Inactive)
REMARK    1  A    between atoms: C_1  and  C_2
REMARK    2  A    between atoms: C_4  and  O_5
REMARK    3  A    between atoms: O_5  and  C_6
REMARK    4  A    between atoms: C_8  and  C_9
REMARK    5  A    between atoms: C_9  and  O_10
REMARK    6  A    between atoms: C_11  and  O_12
REMARK    7  A    between atoms: C_13  and  O_14
REMARK    8  A    between atoms: C_15  and  O_16
REMARK    9  A    between atoms: C_19  and  C_20
REMARK   10  A    between atoms: C_20  and  O_22
REMARK   11  A    between atoms: O_22  and  C_23
REMARK   12  A    between atoms: C_24  and  C_25
REMARK   13  A    between atoms: C_25  and  C_26
REMARK   14  A    between atoms: C_26  and  O_28
REMARK   15  A    between atoms: O_28  and  C_29
REMARK                            x       y       z     vdW  Elec       q    Type
REMARK                         _______ _______ _______ _____ _____    ______ ____
ROOT
ATOM      1  C   UNL     1       1.172   8.913  21.777  0.00  0.00    +0.000 C 
ATOM      2  C   UNL     1       1.376   7.614  21.073  0.00  0.00    +0.000 C 
ATOM      3  C   UNL     1       1.826   7.402  19.813  0.00  0.00    +0.000 C 
ATOM      4  C   UNL     1       2.091   8.532  18.822  0.00  0.00    +0.000 C 
ATOM      5  O   UNL     1       3.251   8.322  17.997  0.00  0.00    +0.000 OA
ATOM      6  C   UNL     1       3.465   7.058  17.532  0.00  0.00    +0.000 C 
ATOM      7  C   UNL     1       2.962   5.944  18.075  0.00  0.00    +0.000 C 
ATOM      8  C   UNL     1       2.131   5.972  19.338  0.00  0.00    +0.000 C 
ENDROOT
BRANCH   7   9
ATOM      9  C   UNL     1       3.262   4.610  17.488  0.00  0.00    +0.000 C 
ATOM     10  O   UNL     1       4.390   4.273  17.156  0.00  0.00    +0.000 OA
BRANCH   9  11
ATOM     11  O   UNL     1       2.131   3.888  17.282  0.00  0.00    +0.000 OA
ATOM     12  C   UNL     1       2.292   2.482  17.489  0.00  0.00    +0.000 C 
ENDBRANCH   9  11
ENDBRANCH   7   9
BRANCH   4  13
ATOM     13  O   UNL     1       0.903   8.748  18.038  0.00  0.00    +0.000 OA
BRANCH  13  14
ATOM     14  C   UNL     1       0.524  10.130  18.018  0.00  0.00    +0.000 C 
ATOM     15  O   UNL     1       1.098  10.830  19.124  0.00  0.00    +0.000 OA
ATOM     16  C   UNL     1       0.903  12.248  19.018  0.00  0.00    +0.000 C 
ATOM     17  C   UNL     1      -0.586  12.558  19.194  0.00  0.00    +0.000 C 
ATOM     18  C   UNL     1      -1.387  11.795  18.120  0.00  0.00    +0.000 C 
ATOM     19  C   UNL     1      -1.021  10.289  18.081  0.00  0.00    +0.000 C 
BRANCH  17  20
ATOM     20  O   UNL     1      -0.824  13.966  19.121  0.00  0.00    +0.000 OA
ATOM     21  H   UNL     1      -0.026  14.405  18.779  0.00  0.00    +0.000 HD
ENDBRANCH  17  20
BRANCH  18  22
ATOM     22  O   UNL     1      -2.795  11.988  18.305  0.00  0.00    +0.000 OA
ATOM     23  H   UNL     1      -2.928  12.714  18.940  0.00  0.00    +0.000 HD
ENDBRANCH  18  22
BRANCH  19  24
ATOM     24  O   UNL     1      -1.671   9.652  16.971  0.00  0.00    +0.000 OA
ATOM     25  H   UNL     1      -1.430   8.711  16.962  0.00  0.00    +0.000 HD
ENDBRANCH  19  24
BRANCH  16  26
ATOM     26  C   UNL     1       1.770  12.953  20.065  0.00  0.00    +0.000 C 
BRANCH  26  27
ATOM     27  O   UNL     1       1.109  12.893  21.332  0.00  0.00    +0.000 OA
ATOM     28  H   UNL     1       0.458  13.615  21.349  0.00  0.00    +0.000 HD
ENDBRANCH  26  27
ENDBRANCH  16  26
ENDBRANCH  13  14
ENDBRANCH   4  13
BRANCH   8  29
ATOM     29  C   UNL     1       2.797   5.099  20.439  0.00  0.00    +0.000 C 
BRANCH  29  30
ATOM     30  C   UNL     1       1.967   3.885  20.818  0.00  0.00    +0.000 C 
ATOM     31  O   UNL     1       0.766   3.783  20.638  0.00  0.00    +0.000 OA
BRANCH  30  32
ATOM     32  O   UNL     1       2.766   2.941  21.392  0.00  0.00    +0.000 OA
ATOM     33  C   UNL     1       3.875   2.484  20.614  0.00  0.00    +0.000 C 
ENDBRANCH  30  32
ENDBRANCH  29  30
ENDBRANCH   8  29
TORSDOF 12
ENDMDL
MODEL 3
REMARK VINA RESULT:      -6.3      2.101      7.740
REMARK  Name = 
REMARK  15 active torsions:
REMARK  status: ('A' for Active; 'I' for Inactive)
REMARK    1  A    between atoms: C_1  and  C_2
REMARK    2  A    between atoms: C_4  and  O_5
REMARK    3  A    between atoms: O_5  and  C_6
REMARK    4  A    between atoms: C_8  and  C_9
REMARK    5  A    between atoms: C_9  and  O_10
REMARK    6  A    between atoms: C_11  and  O_12
REMARK    7  A    between atoms: C_13  and  O_14
REMARK    8  A    between atoms: C_15  and  O_16
REMARK    9  A    between atoms: C_19  and  C_20
REMARK   10  A    between atoms: C_20  and  O_22
REMARK   11  A    between atoms: O_22  and  C_23
REMARK   12  A    between atoms: C_24  and  C_25
REMARK   13  A    between atoms: C_25  and  C_26
REMARK   14  A    between atoms: C_26  and  O_28
REMARK   15  A    between atoms: O_28  and  C_29
REMARK                            x       y       z     vdW  Elec       q    Type
REMARK                         _______ _______ _______ _____ _____    ______ ____
ROOT
ATOM      1  C   UNL     1       1.148   9.015  21.949  0.00  0.00    +0.000 C 
ATOM      2  C   UNL     1       1.304   7.706  21.251  0.00  0.00    +0.000 C 
ATOM      3  C   UNL     1       1.725   7.473  19.985  0.00  0.00    +0.000 C 
ATOM      4  C   UNL     1       2.000   8.588  18.980  0.00  0.00    +0.000 C 
ATOM      5  O   UNL     1       3.139   8.342  18.135  0.00  0.00    +0.000 OA
ATOM      6  C   UNL     1       3.311   7.070  17.676  0.00  0.00    +0.000 C 
ATOM      7  C   UNL     1       2.789   5.974  18.237  0.00  0.00    +0.000 C 
ATOM      8  C   UNL     1       1.983   6.032  19.514  0.00  0.00    +0.000 C 
ENDROOT
BRANCH   7   9
ATOM      9  C   UNL     1       3.043   4.628  17.654  0.00  0.00    +0.000 C 
ATOM     10  O   UNL     1       2.179   3.984  17.075  0.00  0.00    +0.000 OA
BRANCH   9  11
ATOM     11  O   UNL     1       4.295   4.187  17.940  0.00  0.00    +0.000 OA
ATOM     12  C   UNL     1       4.337   2.863  18.478  0.00  0.00    +0.000 C 
ENDBRANCH   9  11
ENDBRANCH   7   9
BRANCH   4  13
ATOM     13  O   UNL     1       0.804   8.830  18.217  0.00  0.00    +0.000 OA
BRANCH  13  14
ATOM     14  C   UNL     1       0.455  10.220  18.203  0.00  0.00    +0.000 C 
ATOM     15  O   UNL     1       0.912  10.871  19.390  0.00  0.00    +0.000 OA
ATOM     16  C   UNL     1       0.756  12.295  19.313  0.00  0.00    +0.000 C 
ATOM     17  C   UNL     1      -0.739  12.632  19.329  0.00  0.00    +0.000 C 
ATOM     18  C   UNL     1      -1.424  11.923  18.144  0.00  0.00    +0.000 C 
ATOM     19  C   UNL     1      -1.084  10.411  18.095  0.00  0.00    +0.000 C 
BRANCH  17  20
ATOM     20  O   UNL     1      -0.941  14.047  19.278  0.00  0.00    +0.000 OA
ATOM     21  H   UNL     1      -0.089  14.494  19.424  0.00  0.00    +0.000 HD
ENDBRANCH  17  20
BRANCH  18  22
ATOM     22  O   UNL     1      -2.840  12.140  18.174  0.00  0.00    +0.000 OA
ATOM     23  H   UNL     1      -3.286  11.327  17.878  0.00  0.00    +0.000 HD
ENDBRANCH  18  22
BRANCH  19  24
ATOM     24  O   UNL     1      -1.614   9.825  16.896  0.00  0.00    +0.000 OA
ATOM     25  H   UNL     1      -1.500  10.451  16.162  0.00  0.00    +0.000 HD
ENDBRANCH  19  24
BRANCH  16  26
ATOM     26  C   UNL     1       1.509  12.946  20.477  0.00  0.00    +0.000 C 
BRANCH  26  27
ATOM     27  O   UNL     1       0.688  12.899  21.646  0.00  0.00    +0.000 OA
ATOM     28  H   UNL     1      -0.236  12.965  21.349  0.00  0.00    +0.000 HD
ENDBRANCH  26  27
ENDBRANCH  16  26
ENDBRANCH  13  14
ENDBRANCH   4  13
BRANCH   8  29
ATOM     29  C   UNL     1       2.647   5.150  20.610  0.00  0.00    +0.000 C 
BRANCH  29  30
ATOM     30  C   UNL     1       1.771   3.990  21.050  0.00  0.00    +0.000 C 
ATOM     31  O   UNL     1       1.969   3.309  22.042  0.00  0.00    +0.000 OA
BRANCH  30  32
ATOM     32  O   UNL     1       0.746   3.825  20.167  0.00  0.00    +0.000 OA
ATOM     33  C   UNL     1       0.638   2.540  19.549  0.00  0.00    +0.000 C 
ENDBRANCH  30  32
ENDBRANCH  29  30
ENDBRANCH   8  29
TORSDOF 12
ENDMDL
MODEL 4
REMARK VINA RESULT:      -6.2      2.071      7.805
REMARK  Name = 
REMARK  15 active torsions:
REMARK  status: ('A' for Active; 'I' for Inactive)
REMARK    1  A    between atoms: C_1  and  C_2
REMARK    2  A    between atoms: C_4  and  O_5
REMARK    3  A    between atoms: O_5  and  C_6
REMARK    4  A    between atoms: C_8  and  C_9
REMARK    5  A    between atoms: C_9  and  O_10
REMARK    6  A    between atoms: C_11  and  O_12
REMARK    7  A    between atoms: C_13  and  O_14
REMARK    8  A    between atoms: C_15  and  O_16
REMARK    9  A    between atoms: C_19  and  C_20
REMARK   10  A    between atoms: C_20  and  O_22
REMARK   11  A    between atoms: O_22  and  C_23
REMARK   12  A    between atoms: C_24  and  C_25
REMARK   13  A    between atoms: C_25  and  C_26
REMARK   14  A    between atoms: C_26  and  O_28
REMARK   15  A    between atoms: O_28  and  C_29
REMARK                            x       y       z     vdW  Elec       q    Type
REMARK                         _______ _______ _______ _____ _____    ______ ____
ROOT
ATOM      1  C   UNL     1       1.034   8.857  21.759  0.00  0.00    +0.000 C 
ATOM      2  C   UNL     1       1.325   7.594  21.020  0.00  0.00    +0.000 C 
ATOM      3  C   UNL     1       1.822   7.447  19.769  0.00  0.00    +0.000 C 
ATOM      4  C   UNL     1       2.055   8.621  18.823  0.00  0.00    +0.000 C 
ATOM      5  O   UNL     1       3.249   8.499  18.027  0.00  0.00    +0.000 OA
ATOM      6  C   UNL     1       3.541   7.263  17.530  0.00  0.00    +0.000 C 
ATOM      7  C   UNL     1       3.082   6.108  18.021  0.00  0.00    +0.000 C 
ATOM      8  C   UNL     1       2.214   6.051  19.258  0.00  0.00    +0.000 C 
ENDROOT
BRANCH   7   9
ATOM      9  C   UNL     1       3.468   4.811  17.402  0.00  0.00    +0.000 C 
ATOM     10  O   UNL     1       2.656   3.930  17.151  0.00  0.00    +0.000 OA
BRANCH   9  11
ATOM     11  O   UNL     1       4.813   4.706  17.258  0.00  0.00    +0.000 OA
ATOM     12  C   UNL     1       5.220   3.974  16.099  0.00  0.00    +0.000 C 
ENDBRANCH   9  11
ENDBRANCH   7   9
BRANCH   4  13
ATOM     13  O   UNL     1       0.881   8.802  18.010  0.00  0.00    +0.000 OA
BRANCH  13  14
ATOM     14  C   UNL     1       0.495  10.180  17.934  0.00  0.00    +0.000 C 
ATOM     15  O   UNL     1       1.124  10.942  18.966  0.00  0.00    +0.000 OA
ATOM     16  C   UNL     1       0.918  12.351  18.792  0.00  0.00    +0.000 C 
ATOM     17  C   UNL     1      -0.562  12.669  19.029  0.00  0.00    +0.000 C 
ATOM     18  C   UNL     1      -1.415  11.845  18.042  0.00  0.00    +0.000 C 
ATOM     19  C   UNL     1      -1.045  10.341  18.069  0.00  0.00    +0.000 C 
BRANCH  17  20
ATOM     20  O   UNL     1      -0.810  14.070  18.890  0.00  0.00    +0.000 OA
ATOM     21  H   UNL     1      -0.334  14.400  18.108  0.00  0.00    +0.000 HD
ENDBRANCH  17  20
BRANCH  18  22
ATOM     22  O   UNL     1      -2.811  12.046  18.291  0.00  0.00    +0.000 OA
ATOM     23  H   UNL     1      -3.125  11.343  18.886  0.00  0.00    +0.000 HD
ENDBRANCH  18  22
BRANCH  19  24
ATOM     24  O   UNL     1      -1.749   9.641  17.032  0.00  0.00    +0.000 OA
ATOM     25  H   UNL     1      -1.146   9.005  16.614  0.00  0.00    +0.000 HD
ENDBRANCH  19  24
BRANCH  16  26
ATOM     26  C   UNL     1       1.835  13.115  19.752  0.00  0.00    +0.000 C 
BRANCH  26  27
ATOM     27  O   UNL     1       2.118  14.402  19.197  0.00  0.00    +0.000 OA
ATOM     28  H   UNL     1       1.994  14.333  18.236  0.00  0.00    +0.000 HD
ENDBRANCH  26  27
ENDBRANCH  16  26
ENDBRANCH  13  14
ENDBRANCH   4  13
BRANCH   8  29
ATOM     29  C   UNL     1       2.894   5.178  20.351  0.00  0.00    +0.000 C 
BRANCH  29  30
ATOM     30  C   UNL     1       2.079   3.951  20.723  0.00  0.00    +0.000 C 
ATOM     31  O   UNL     1       0.863   3.882  20.661  0.00  0.00    +0.000 OA
BRANCH  30  32
ATOM     32  O   UNL     1       2.909   2.954  21.140  0.00  0.00    +0.000 OA
ATOM     33  C   UNL     1       3.906   2.524  20.210  0.00  0.00    +0.000 C 
ENDBRANCH  30  32
ENDBRANCH  29  30
ENDBRANCH   8  29
TORSDOF 12
ENDMDL
MODEL 5
REMARK VINA RESULT:      -6.1      1.652      2.062
REMARK  Name = 
REMARK  15 active torsions:
REMARK  status: ('A' for Active; 'I' for Inactive)
REMARK    1  A    between atoms: C_1  and  C_2
REMARK    2  A    between atoms: C_4  and  O_5
REMARK    3  A    between atoms: O_5  and  C_6
REMARK    4  A    between atoms: C_8  and  C_9
REMARK    5  A    between atoms: C_9  and  O_10
REMARK    6  A    between atoms: C_11  and  O_12
REMARK    7  A    between atoms: C_13  and  O_14
REMARK    8  A    between atoms: C_15  and  O_16
REMARK    9  A    between atoms: C_19  and  C_20
REMARK   10  A    between atoms: C_20  and  O_22
REMARK   11  A    between atoms: O_22  and  C_23
REMARK   12  A    between atoms: C_24  and  C_25
REMARK   13  A    between atoms: C_25  and  C_26
REMARK   14  A    between atoms: C_26  and  O_28
REMARK   15  A    between atoms: O_28  and  C_29
REMARK                            x       y       z     vdW  Elec       q    Type
REMARK                         _______ _______ _______ _____ _____    ______ ____
ROOT
ATOM      1  C   UNL     1       2.779   4.758  20.064  0.00  0.00    +0.000 C 
ATOM      2  C   UNL     1       2.406   6.157  20.423  0.00  0.00    +0.000 C 
ATOM      3  C   UNL     1       2.245   7.222  19.601  0.00  0.00    +0.000 C 
ATOM      4  C   UNL     1       2.560   7.177  18.109  0.00  0.00    +0.000 C 
ATOM      5  O   UNL     1       1.632   7.917  17.295  0.00  0.00    +0.000 OA
ATOM      6  C   UNL     1       1.200   9.117  17.779  0.00  0.00    +0.000 C 
ATOM      7  C   UNL     1       1.222   9.480  19.065  0.00  0.00    +0.000 C 
ATOM      8  C   UNL     1       1.685   8.541  20.156  0.00  0.00    +0.000 C 
ENDROOT
BRANCH   7   9
ATOM      9  C   UNL     1       0.721  10.817  19.485  0.00  0.00    +0.000 C 
ATOM     10  O   UNL     1      -0.466  11.112  19.472  0.00  0.00    +0.000 OA
BRANCH   9  11
ATOM     11  O   UNL     1       1.740  11.665  19.774  0.00  0.00    +0.000 OA
ATOM     12  C   UNL     1       1.337  12.842  20.478  0.00  0.00    +0.000 C 
ENDBRANCH   9  11
ENDBRANCH   7   9
BRANCH   4  13
ATOM     13  O   UNL     1       3.918   7.610  17.909  0.00  0.00    +0.000 OA
BRANCH  13  14
ATOM     14  C   UNL     1       4.799   6.505  17.672  0.00  0.00    +0.000 C 
ATOM     15  O   UNL     1       5.689   6.319  18.775  0.00  0.00    +0.000 OA
ATOM     16  C   UNL     1       6.441   5.104  18.656  0.00  0.00    +0.000 C 
ATOM     17  C   UNL     1       7.421   5.239  17.486  0.00  0.00    +0.000 C 
ATOM     18  C   UNL     1       6.626   5.541  16.200  0.00  0.00    +0.000 C 
ATOM     19  C   UNL     1       5.645   6.726  16.387  0.00  0.00    +0.000 C 
BRANCH  17  20
ATOM     20  O   UNL     1       8.212   4.056  17.346  0.00  0.00    +0.000 OA
ATOM     21  H   UNL     1       8.658   4.074  16.481  0.00  0.00    +0.000 HD
ENDBRANCH  17  20
BRANCH  18  22
ATOM     22  O   UNL     1       7.512   5.763  15.097  0.00  0.00    +0.000 OA
ATOM     23  H   UNL     1       8.228   6.355  15.388  0.00  0.00    +0.000 HD
ENDBRANCH  18  22
BRANCH  19  24
ATOM     24  O   UNL     1       4.819   6.872  15.221  0.00  0.00    +0.000 OA
ATOM     25  H   UNL     1       4.342   6.040  15.067  0.00  0.00    +0.000 HD
ENDBRANCH  19  24
BRANCH  16  26
ATOM     26  C   UNL     1       7.157   4.824  19.981  0.00  0.00    +0.000 C 
BRANCH  26  27
ATOM     27  O   UNL     1       8.382   5.560  20.011  0.00  0.00    +0.000 OA
ATOM     28  H   UNL     1       8.609   5.699  20.946  0.00  0.00    +0.000 HD
ENDBRANCH  26  27
ENDBRANCH  16  26
ENDBRANCH  13  14
ENDBRANCH   4  13
BRANCH   8  29
ATOM     29  C   UNL     1       0.549   8.326  21.196  0.00  0.00    +0.000 C 
BRANCH  29  30
ATOM     30  C   UNL     1       0.717   9.176  22.443  0.00  0.00    +0.000 C 
ATOM     31  O   UNL     1       1.786   9.578  22.870  0.00  0.00    +0.000 OA
BRANCH  30  32
ATOM     32  O   UNL     1      -0.501   9.410  23.010  0.00  0.00    +0.000 OA
ATOM     33  C   UNL     1      -0.943  10.769  23.033  0.00  0.00    +0.000 C 
ENDBRANCH  30  32
ENDBRANCH  29  30
ENDBRANCH   8  29
TORSDOF 12
ENDMDL
MODEL 6
REMARK VINA RESULT:      -5.9      1.569      7.629
REMARK  Name = 
REMARK  15 active torsions:
REMARK  status: ('A' for Active; 'I' for Inactive)
REMARK    1  A    between atoms: C_1  and  C_2
REMARK    2  A    between atoms: C_4  and  O_5
REMARK    3  A    between atoms: O_5  and  C_6
REMARK    4  A    between atoms: C_8  and  C_9
REMARK    5  A    between atoms: C_9  and  O_10
REMARK    6  A    between atoms: C_11  and  O_12
REMARK    7  A    between atoms: C_13  and  O_14
REMARK    8  A    between atoms: C_15  and  O_16
REMARK    9  A    between atoms: C_19  and  C_20
REMARK   10  A    between atoms: C_20  and  O_22
REMARK   11  A    between atoms: O_22  and  C_23
REMARK   12  A    between atoms: C_24  and  C_25
REMARK   13  A    between atoms: C_25  and  C_26
REMARK   14  A    between atoms: C_26  and  O_28
REMARK   15  A    between atoms: O_28  and  C_29
REMARK                            x       y       z     vdW  Elec       q    Type
REMARK                         _______ _______ _______ _____ _____    ______ ____
ROOT
ATOM      1  C   UNL     1       1.296   4.811  20.662  0.00  0.00    +0.000 C 
ATOM      2  C   UNL     1       1.925   4.536  19.337  0.00  0.00    +0.000 C 
ATOM      3  C   UNL     1       2.729   5.341  18.604  0.00  0.00    +0.000 C 
ATOM      4  C   UNL     1       3.031   6.787  18.986  0.00  0.00    +0.000 C 
ATOM      5  O   UNL     1       4.389   7.187  18.724  0.00  0.00    +0.000 OA
ATOM      6  C   UNL     1       4.955   6.745  17.565  0.00  0.00    +0.000 C 
ATOM      7  C   UNL     1       4.545   5.682  16.865  0.00  0.00    +0.000 C 
ATOM      8  C   UNL     1       3.415   4.796  17.341  0.00  0.00    +0.000 C 
ENDROOT
BRANCH   7   9
ATOM      9  C   UNL     1       5.239   5.284  15.611  0.00  0.00    +0.000 C 
ATOM     10  O   UNL     1       4.737   4.530  14.788  0.00  0.00    +0.000 OA
BRANCH   9  11
ATOM     11  O   UNL     1       6.505   5.772  15.563  0.00  0.00    +0.000 OA
ATOM     12  C   UNL     1       7.437   4.911  14.903  0.00  0.00    +0.000 C 
ENDBRANCH   9  11
ENDBRANCH   7   9
BRANCH   4  13
ATOM     13  O   UNL     1       2.079   7.648  18.333  0.00  0.00    +0.000 OA
BRANCH  13  14
ATOM     14  C   UNL     1       1.777   8.803  19.126  0.00  0.00    +0.000 C 
ATOM     15  O   UNL     1       0.866   8.474  20.177  0.00  0.00    +0.000 OA
ATOM     16  C   UNL     1       0.704   9.558  21.103  0.00  0.00    +0.000 C 
ATOM     17  C   UNL     1      -0.031  10.704  20.402  0.00  0.00    +0.000 C 
ATOM     18  C   UNL     1       0.779  11.135  19.163  0.00  0.00    +0.000 C 
ATOM     19  C   UNL     1       1.147   9.930  18.260  0.00  0.00    +0.000 C 
BRANCH  17  20
ATOM     20  O   UNL     1      -0.237  11.799  21.298  0.00  0.00    +0.000 OA
ATOM     21  H   UNL     1      -1.185  11.864  21.507  0.00  0.00    +0.000 HD
ENDBRANCH  17  20
BRANCH  18  22
ATOM     22  O   UNL     1       0.081  12.146  18.427  0.00  0.00    +0.000 OA
ATOM     23  H   UNL     1      -0.717  12.398  18.926  0.00  0.00    +0.000 HD
ENDBRANCH  18  22
BRANCH  19  24
ATOM     24  O   UNL     1       2.027  10.352  17.208  0.00  0.00    +0.000 OA
ATOM     25  H   UNL     1       1.722   9.971  16.368  0.00  0.00    +0.000 HD
ENDBRANCH  19  24
BRANCH  16  26
ATOM     26  C   UNL     1      -0.051   9.055  22.337  0.00  0.00    +0.000 C 
BRANCH  26  27
ATOM     27  O   UNL     1       0.321   9.851  23.465  0.00  0.00    +0.000 OA
ATOM     28  H   UNL     1       1.056  10.421  23.182  0.00  0.00    +0.000 HD
ENDBRANCH  26  27
ENDBRANCH  16  26
ENDBRANCH  13  14
ENDBRANCH   4  13
BRANCH   8  29
ATOM     29  C   UNL     1       3.914   3.333  17.509  0.00  0.00    +0.000 C 
BRANCH  29  30
ATOM     30  C   UNL     1       4.735   3.126  18.770  0.00  0.00    +0.000 C 
ATOM     31  O   UNL     1       5.614   3.878  19.155  0.00  0.00    +0.000 OA
BRANCH  30  32
ATOM     32  O   UNL     1       4.347   1.976  19.390  0.00  0.00    +0.000 OA
ATOM     33  C   UNL     1       3.361   1.190  18.716  0.00  0.00    +0.000 C 
ENDBRANCH  30  32
ENDBRANCH  29  30
ENDBRANCH   8  29
TORSDOF 12
ENDMDL
MODEL 7
REMARK VINA RESULT:      -5.8      1.514      7.709
REMARK  Name = 
REMARK  15 active torsions:
REMARK  status: ('A' for Active; 'I' for Inactive)
REMARK    1  A    between atoms: C_1  and  C_2
REMARK    2  A    between atoms: C_4  and  O_5
REMARK    3  A    between atoms: O_5  and  C_6
REMARK    4  A    between atoms: C_8  and  C_9
REMARK    5  A    between atoms: C_9  and  O_10
REMARK    6  A    between atoms: C_11  and  O_12
REMARK    7  A    between atoms: C_13  and  O_14
REMARK    8  A    between atoms: C_15  and  O_16
REMARK    9  A    between atoms: C_19  and  C_20
REMARK   10  A    between atoms: C_20  and  O_22
REMARK   11  A    between atoms: O_22  and  C_23
REMARK   12  A    between atoms: C_24  and  C_25
REMARK   13  A    between atoms: C_25  and  C_26
REMARK   14  A    between atoms: C_26  and  O_28
REMARK   15  A    between atoms: O_28  and  C_29
REMARK                            x       y       z     vdW  Elec       q    Type
REMARK                         _______ _______ _______ _____ _____    ______ ____
ROOT
ATOM      1  C   UNL     1       1.669   4.838  20.940  0.00  0.00    +0.000 C 
ATOM      2  C   UNL     1       2.230   4.515  19.596  0.00  0.00    +0.000 C 
ATOM      3  C   UNL     1       2.933   5.318  18.762  0.00  0.00    +0.000 C 
ATOM      4  C   UNL     1       3.164   6.802  19.035  0.00  0.00    +0.000 C 
ATOM      5  O   UNL     1       4.475   7.264  18.658  0.00  0.00    +0.000 OA
ATOM      6  C   UNL     1       4.994   6.782  17.493  0.00  0.00    +0.000 C 
ATOM      7  C   UNL     1       4.611   5.653  16.890  0.00  0.00    +0.000 C 
ATOM      8  C   UNL     1       3.572   4.734  17.492  0.00  0.00    +0.000 C 
ENDROOT
BRANCH   7   9
ATOM      9  C   UNL     1       5.249   5.216  15.619  0.00  0.00    +0.000 C 
ATOM     10  O   UNL     1       4.665   4.538  14.784  0.00  0.00    +0.000 OA
BRANCH   9  11
ATOM     11  O   UNL     1       6.557   5.573  15.567  0.00  0.00    +0.000 OA
ATOM     12  C   UNL     1       7.451   4.593  16.100  0.00  0.00    +0.000 C 
ENDBRANCH   9  11
ENDBRANCH   7   9
BRANCH   4  13
ATOM     13  O   UNL     1       2.120   7.559  18.395  0.00  0.00    +0.000 OA
BRANCH  13  14
ATOM     14  C   UNL     1       1.786   8.737  19.140  0.00  0.00    +0.000 C 
ATOM     15  O   UNL     1       0.867   8.430  20.190  0.00  0.00    +0.000 OA
ATOM     16  C   UNL     1       0.673   9.545  21.073  0.00  0.00    +0.000 C 
ATOM     17  C   UNL     1      -0.073  10.651  20.319  0.00  0.00    +0.000 C 
ATOM     18  C   UNL     1       0.748  11.050  19.076  0.00  0.00    +0.000 C 
ATOM     19  C   UNL     1       1.149   9.819  18.224  0.00  0.00    +0.000 C 
BRANCH  17  20
ATOM     20  O   UNL     1      -0.311  11.775  21.171  0.00  0.00    +0.000 OA
ATOM     21  H   UNL     1      -0.774  12.464  20.664  0.00  0.00    +0.000 HD
ENDBRANCH  17  20
BRANCH  18  22
ATOM     22  O   UNL     1       0.042  12.021  18.294  0.00  0.00    +0.000 OA
ATOM     23  H   UNL     1       0.555  12.202  17.487  0.00  0.00    +0.000 HD
ENDBRANCH  18  22
BRANCH  19  24
ATOM     24  O   UNL     1       2.037  10.218  17.169  0.00  0.00    +0.000 OA
ATOM     25  H   UNL     1       1.540  10.251  16.335  0.00  0.00    +0.000 HD
ENDBRANCH  19  24
BRANCH  16  26
ATOM     26  C   UNL     1      -0.091   9.074  22.315  0.00  0.00    +0.000 C 
BRANCH  26  27
ATOM     27  O   UNL     1       0.267   9.905  23.422  0.00  0.00    +0.000 OA
ATOM     28  H   UNL     1      -0.555  10.302  23.758  0.00  0.00    +0.000 HD
ENDBRANCH  26  27
ENDBRANCH  16  26
ENDBRANCH  13  14
ENDBRANCH   4  13
BRANCH   8  29
ATOM     29  C   UNL     1       4.174   3.317  17.716  0.00  0.00    +0.000 C 
BRANCH  29  30
ATOM     30  C   UNL     1       3.116   2.232  17.814  0.00  0.00    +0.000 C 
ATOM     31  O   UNL     1       2.115   2.176  17.121  0.00  0.00    +0.000 OA
BRANCH  30  32
ATOM     32  O   UNL     1       3.453   1.345  18.793  0.00  0.00    +0.000 OA
ATOM     33  C   UNL     1       4.435   1.780  19.736  0.00  0.00    +0.000 C 
ENDBRANCH  30  32
ENDBRANCH  29  30
ENDBRANCH   8  29
TORSDOF 12
ENDMDL
MODEL 8
REMARK VINA RESULT:      -5.6      1.765      7.607
REMARK  Name = 
REMARK  15 active torsions:
REMARK  status: ('A' for Active; 'I' for Inactive)
REMARK    1  A    between atoms: C_1  and  C_2
REMARK    2  A    between atoms: C_4  and  O_5
REMARK    3  A    between atoms: O_5  and  C_6
REMARK    4  A    between atoms: C_8  and  C_9
REMARK    5  A    between atoms: C_9  and  O_10
REMARK    6  A    between atoms: C_11  and  O_12
REMARK    7  A    between atoms: C_13  and  O_14
REMARK    8  A    between atoms: C_15  and  O_16
REMARK    9  A    between atoms: C_19  and  C_20
REMARK   10  A    between atoms: C_20  and  O_22
REMARK   11  A    between atoms: O_22  and  C_23
REMARK   12  A    between atoms: C_24  and  C_25
REMARK   13  A    between atoms: C_25  and  C_26
REMARK   14  A    between atoms: C_26  and  O_28
REMARK   15  A    between atoms: O_28  and  C_29
REMARK                            x       y       z     vdW  Elec       q    Type
REMARK                         _______ _______ _______ _____ _____    ______ ____
ROOT
ATOM      1  C   UNL     1       0.549   4.343  20.282  0.00  0.00    +0.000 C 
ATOM      2  C   UNL     1       1.446   4.021  19.135  0.00  0.00    +0.000 C 
ATOM      3  C   UNL     1       2.513   4.721  18.679  0.00  0.00    +0.000 C 
ATOM      4  C   UNL     1       2.905   6.090  19.226  0.00  0.00    +0.000 C 
ATOM      5  O   UNL     1       4.327   6.288  19.333  0.00  0.00    +0.000 OA
ATOM      6  C   UNL     1       5.100   5.806  18.318  0.00  0.00    +0.000 C 
ATOM      7  C   UNL     1       4.737   4.842  17.466  0.00  0.00    +0.000 C 
ATOM      8  C   UNL     1       3.413   4.123  17.586  0.00  0.00    +0.000 C 
ENDROOT
BRANCH   7   9
ATOM      9  C   UNL     1       5.663   4.388  16.393  0.00  0.00    +0.000 C 
ATOM     10  O   UNL     1       6.848   4.160  16.595  0.00  0.00    +0.000 OA
BRANCH   9  11
ATOM     11  O   UNL     1       5.052   4.364  15.182  0.00  0.00    +0.000 OA
ATOM     12  C   UNL     1       5.938   4.112  14.088  0.00  0.00    +0.000 C 
ENDBRANCH   9  11
ENDBRANCH   7   9
BRANCH   4  13
ATOM     13  O   UNL     1       2.277   7.108  18.425  0.00  0.00    +0.000 OA
BRANCH  13  14
ATOM     14  C   UNL     1       2.034   8.302  19.178  0.00  0.00    +0.000 C 
ATOM     15  O   UNL     1       1.156   8.041  20.276  0.00  0.00    +0.000 OA
ATOM     16  C   UNL     1       1.057   9.167  21.160  0.00  0.00    +0.000 C 
ATOM     17  C   UNL     1       0.323  10.301  20.438  0.00  0.00    +0.000 C 
ATOM     18  C   UNL     1       1.095  10.658  19.152  0.00  0.00    +0.000 C 
ATOM     19  C   UNL     1       1.398   9.407  18.289  0.00  0.00    +0.000 C 
BRANCH  17  20
ATOM     20  O   UNL     1       0.178  11.438  21.293  0.00  0.00    +0.000 OA
ATOM     21  H   UNL     1      -0.647  11.901  21.067  0.00  0.00    +0.000 HD
ENDBRANCH  17  20
BRANCH  18  22
ATOM     22  O   UNL     1       0.392  11.656  18.400  0.00  0.00    +0.000 OA
ATOM     23  H   UNL     1       1.038  12.161  17.876  0.00  0.00    +0.000 HD
ENDBRANCH  18  22
BRANCH  19  24
ATOM     24  O   UNL     1       2.247   9.762  17.187  0.00  0.00    +0.000 OA
ATOM     25  H   UNL     1       2.074  10.686  16.941  0.00  0.00    +0.000 HD
ENDBRANCH  19  24
BRANCH  16  26
ATOM     26  C   UNL     1       0.339   8.736  22.442  0.00  0.00    +0.000 C 
BRANCH  26  27
ATOM     27  O   UNL     1       0.546   9.731  23.447  0.00  0.00    +0.000 OA
ATOM     28  H   UNL     1      -0.294   9.832  23.927  0.00  0.00    +0.000 HD
ENDBRANCH  26  27
ENDBRANCH  16  26
ENDBRANCH  13  14
ENDBRANCH   4  13
BRANCH   8  29
ATOM     29  C   UNL     1       3.646   2.595  17.766  0.00  0.00    +0.000 C 
BRANCH  29  30
ATOM     30  C   UNL     1       3.561   2.148  19.214  0.00  0.00    +0.000 C 
ATOM     31  O   UNL     1       2.617   1.550  19.701  0.00  0.00    +0.000 OA
BRANCH  30  32
ATOM     32  O   UNL     1       4.690   2.523  19.880  0.00  0.00    +0.000 OA
ATOM     33  C   UNL     1       5.250   1.560  20.777  0.00  0.00    +0.000 C 
ENDBRANCH  30  32
ENDBRANCH  29  30
ENDBRANCH   8  29
TORSDOF 12
ENDMDL
MODEL 9
REMARK VINA RESULT:      -5.6      2.023      4.298
REMARK  Name = 
REMARK  15 active torsions:
REMARK  status: ('A' for Active; 'I' for Inactive)
REMARK    1  A    between atoms: C_1  and  C_2
REMARK    2  A    between atoms: C_4  and  O_5
REMARK    3  A    between atoms: O_5  and  C_6
REMARK    4  A    between atoms: C_8  and  C_9
REMARK    5  A    between atoms: C_9  and  O_10
REMARK    6  A    between atoms: C_11  and  O_12
REMARK    7  A    between atoms: C_13  and  O_14
REMARK    8  A    between atoms: C_15  and  O_16
REMARK    9  A    between atoms: C_19  and  C_20
REMARK   10  A    between atoms: C_20  and  O_22
REMARK   11  A    between atoms: O_22  and  C_23
REMARK   12  A    between atoms: C_24  and  C_25
REMARK   13  A    between atoms: C_25  and  C_26
REMARK   14  A    between atoms: C_26  and  O_28
REMARK   15  A    between atoms: O_28  and  C_29
REMARK                            x       y       z     vdW  Elec       q    Type
REMARK                         _______ _______ _______ _____ _____    ______ ____
ROOT
ATOM      1  C   UNL     1       2.582   8.284  17.481  0.00  0.00    +0.000 C 
ATOM      2  C   UNL     1       1.483   8.939  18.249  0.00  0.00    +0.000 C 
ATOM      3  C   UNL     1       1.228   8.870  19.577  0.00  0.00    +0.000 C 
ATOM      4  C   UNL     1       1.998   7.956  20.527  0.00  0.00    +0.000 C 
ATOM      5  O   UNL     1       2.256   8.542  21.816  0.00  0.00    +0.000 OA
ATOM      6  C   UNL     1       1.254   9.278  22.377  0.00  0.00    +0.000 C 
ATOM      7  C   UNL     1       0.244   9.839  21.705  0.00  0.00    +0.000 C 
ATOM      8  C   UNL     1       0.143   9.765  20.198  0.00  0.00    +0.000 C 
ENDROOT
BRANCH   7   9
ATOM      9  C   UNL     1      -0.797  10.628  22.418  0.00  0.00    +0.000 C 
ATOM     10  O   UNL     1      -1.519  10.145  23.280  0.00  0.00    +0.000 OA
BRANCH   9  11
ATOM     11  O   UNL     1      -0.901  11.886  21.919  0.00  0.00    +0.000 OA
ATOM     12  C   UNL     1      -1.037  12.900  22.919  0.00  0.00    +0.000 C 
ENDBRANCH   9  11
ENDBRANCH   7   9
BRANCH   4  13
ATOM     13  O   UNL     1       1.298   6.703  20.633  0.00  0.00    +0.000 OA
BRANCH  13  14
ATOM     14  C   UNL     1       2.172   5.587  20.417  0.00  0.00    +0.000 C 
ATOM     15  O   UNL     1       3.301   5.970  19.629  0.00  0.00    +0.000 OA
ATOM     16  C   UNL     1       4.288   4.931  19.568  0.00  0.00    +0.000 C 
ATOM     17  C   UNL     1       3.725   3.760  18.757  0.00  0.00    +0.000 C 
ATOM     18  C   UNL     1       2.425   3.267  19.424  0.00  0.00    +0.000 C 
ATOM     19  C   UNL     1       1.433   4.427  19.692  0.00  0.00    +0.000 C 
BRANCH  17  20
ATOM     20  O   UNL     1       4.688   2.708  18.648  0.00  0.00    +0.000 OA
ATOM     21  H   UNL     1       4.623   2.310  17.763  0.00  0.00    +0.000 HD
ENDBRANCH  17  20
BRANCH  18  22
ATOM     22  O   UNL     1       1.819   2.229  18.645  0.00  0.00    +0.000 OA
ATOM     23  H   UNL     1       1.740   2.536  17.724  0.00  0.00    +0.000 HD
ENDBRANCH  18  22
BRANCH  19  24
ATOM     24  O   UNL     1       0.310   3.951  20.449  0.00  0.00    +0.000 OA
ATOM     25  H   UNL     1       0.412   4.231  21.374  0.00  0.00    +0.000 HD
ENDBRANCH  19  24
BRANCH  16  26
ATOM     26  C   UNL     1       5.574   5.495  18.956  0.00  0.00    +0.000 C 
BRANCH  26  27
ATOM     27  O   UNL     1       6.686   4.730  19.427  0.00  0.00    +0.000 OA
ATOM     28  H   UNL     1       6.358   4.158  20.141  0.00  0.00    +0.000 HD
ENDBRANCH  26  27
ENDBRANCH  16  26
ENDBRANCH  13  14
ENDBRANCH   4  13
BRANCH   8  29
ATOM     29  C   UNL     1       0.122  11.197  19.590  0.00  0.00    +0.000 C 
BRANCH  29  30
ATOM     30  C   UNL     1      -1.009  11.403  18.597  0.00  0.00    +0.000 C 
ATOM     31  O   UNL     1      -1.182  12.418  17.945  0.00  0.00    +0.000 OA
BRANCH  30  32
ATOM     32  O   UNL     1      -1.798  10.292  18.558  0.00  0.00    +0.000 OA
ATOM     33  C   UNL     1      -2.566  10.097  17.368  0.00  0.00    +0.000 C 
ENDBRANCH  30  32
ENDBRANCH  29  30
ENDBRANCH   8  29
TORSDOF 12
ENDMDL
