MODEL 1
REMARK VINA RESULT:      -8.0      0.000      0.000
REMARK  Name = 
REMARK  9 active torsions:
REMARK  status: ('A' for Active; 'I' for Inactive)
REMARK    1  A    between atoms: C_1  and  C_2
REMARK    2  A    between atoms: C_2  and  O_3
REMARK    3  A    between atoms: O_3  and  C_4
REMARK    4  A    between atoms: C_8  and  C_9
REMARK    5  A    between atoms: C_9  and  C_11
REMARK    6  A    between atoms: C_13  and  C_14
REMARK    7  A    between atoms: C_17  and  O_18
REMARK    8  A    between atoms: C_23  and  O_24
REMARK    9  A    between atoms: O_24  and  C_25
REMARK                            x       y       z     vdW  Elec       q    Type
REMARK                         _______ _______ _______ _____ _____    ______ ____
ROOT
ATOM      1  C   UNL     1       1.915   4.504  19.248  0.00  0.00    +0.000 A 
ATOM      2  C   UNL     1       2.794   4.032  18.252  0.00  0.00    +0.000 A 
ATOM      3  C   UNL     1       3.787   4.862  17.696  0.00  0.00    +0.000 A 
ATOM      4  C   UNL     1       4.778   4.373  16.827  0.00  0.00    +0.000 A 
ATOM      5  C   UNL     1       5.790   5.231  16.382  0.00  0.00    +0.000 A 
ATOM      6  C   UNL     1       5.693   6.566  16.728  0.00  0.00    +0.000 A 
ATOM      7  N   UNL     1       4.746   7.073  17.553  0.00  0.00    +0.000 NA
ATOM      8  C   UNL     1       3.835   6.222  18.055  0.00  0.00    +0.000 A 
ATOM      9  C   UNL     1       2.925   6.686  18.984  0.00  0.00    +0.000 A 
ATOM     10  C   UNL     1       1.975   5.856  19.605  0.00  0.00    +0.000 A 
ENDROOT
BRANCH   5  11
ATOM     11  C   UNL     1       6.929   4.703  15.595  0.00  0.00    +0.000 C 
ATOM     12  O   UNL     1       7.948   4.370  16.191  0.00  0.00    +0.000 OA
BRANCH  11  13
ATOM     13  C   UNL     1       6.860   4.561  14.107  0.00  0.00    +0.000 A 
ATOM     14  C   UNL     1       5.870   3.715  13.578  0.00  0.00    +0.000 A 
ATOM     15  C   UNL     1       5.737   3.542  12.191  0.00  0.00    +0.000 A 
ATOM     16  C   UNL     1       4.702   2.621  11.614  0.00  0.00    +0.000 C 
ATOM     17  C   UNL     1       6.599   4.231  11.330  0.00  0.00    +0.000 A 
ATOM     18  C   UNL     1       7.599   5.056  11.842  0.00  0.00    +0.000 A 
ATOM     19  C   UNL     1       7.739   5.203  13.221  0.00  0.00    +0.000 A 
BRANCH  19  20
ATOM     20  O   UNL     1       8.773   5.962  13.693  0.00  0.00    +0.000 OA
ATOM     21  H   UNL     1       8.423   6.749  14.143  0.00  0.00    +0.000 HD
ENDBRANCH  19  20
ENDBRANCH  11  13
ENDBRANCH   5  11
BRANCH  10  22
ATOM     22  O   UNL     1       1.252   6.557  20.531  0.00  0.00    +0.000 OA
ATOM     23  C   UNL     1       1.505   7.933  20.749  0.00  0.00    +0.000 C 
ENDBRANCH  10  22
BRANCH   1  24
ATOM     24  O   UNL     1       1.027   3.669  19.879  0.00  0.00    +0.000 OA
BRANCH  24  26
ATOM     25  C   UNL     1       2.254   2.913  21.811  0.00  0.00    +0.000 C 
ATOM     26  C   UNL     1       1.598   2.513  20.503  0.00  0.00    +0.000 C 
ENDBRANCH  24  26
ENDBRANCH   1  24
TORSDOF 6
ENDMDL
MODEL 2
REMARK VINA RESULT:      -7.8      2.512      4.896
REMARK  Name = 
REMARK  9 active torsions:
REMARK  status: ('A' for Active; 'I' for Inactive)
REMARK    1  A    between atoms: C_1  and  C_2
REMARK    2  A    between atoms: C_2  and  O_3
REMARK    3  A    between atoms: O_3  and  C_4
REMARK    4  A    between atoms: C_8  and  C_9
REMARK    5  A    between atoms: C_9  and  C_11
REMARK    6  A    between atoms: C_13  and  C_14
REMARK    7  A    between atoms: C_17  and  O_18
REMARK    8  A    between atoms: C_23  and  O_24
REMARK    9  A    between atoms: O_24  and  C_25
REMARK                            x       y       z     vdW  Elec       q    Type
REMARK                         _______ _______ _______ _____ _____    ______ ____
ROOT
ATOM      1  C   UNL     1       1.072   9.673  19.198  0.00  0.00    +0.000 A 
ATOM      2  C   UNL     1       1.865   8.761  18.473  0.00  0.00    +0.000 A 
ATOM      3  C   UNL     1       2.191   7.495  18.997  0.00  0.00    +0.000 A 
ATOM      4  C   UNL     1       2.838   6.508  18.233  0.00  0.00    +0.000 A 
ATOM      5  C   UNL     1       3.050   5.239  18.784  0.00  0.00    +0.000 A 
ATOM      6  C   UNL     1       2.720   5.057  20.114  0.00  0.00    +0.000 A 
ATOM      7  N   UNL     1       2.107   5.989  20.882  0.00  0.00    +0.000 NA
ATOM      8  C   UNL     1       1.817   7.172  20.314  0.00  0.00    +0.000 A 
ATOM      9  C   UNL     1       1.094   8.102  21.036  0.00  0.00    +0.000 A 
ATOM     10  C   UNL     1       0.696   9.341  20.505  0.00  0.00    +0.000 A 
ENDROOT
BRANCH   5  11
ATOM     11  C   UNL     1       3.586   4.138  17.949  0.00  0.00    +0.000 C 
ATOM     12  O   UNL     1       2.927   3.109  17.845  0.00  0.00    +0.000 OA
BRANCH  11  13
ATOM     13  C   UNL     1       4.894   4.258  17.230  0.00  0.00    +0.000 A 
ATOM     14  C   UNL     1       4.886   4.101  15.833  0.00  0.00    +0.000 A 
ATOM     15  C   UNL     1       6.072   4.213  15.091  0.00  0.00    +0.000 A 
ATOM     16  C   UNL     1       6.083   4.021  13.602  0.00  0.00    +0.000 C 
ATOM     17  C   UNL     1       7.272   4.493  15.756  0.00  0.00    +0.000 A 
ATOM     18  C   UNL     1       7.296   4.630  17.143  0.00  0.00    +0.000 A 
ATOM     19  C   UNL     1       6.117   4.494  17.875  0.00  0.00    +0.000 A 
BRANCH  19  20
ATOM     20  O   UNL     1       6.186   4.563  19.238  0.00  0.00    +0.000 OA
ATOM     21  H   UNL     1       6.964   4.073  19.553  0.00  0.00    +0.000 HD
ENDBRANCH  19  20
ENDBRANCH  11  13
ENDBRANCH   5  11
BRANCH  10  22
ATOM     22  O   UNL     1      -0.065  10.032  21.407  0.00  0.00    +0.000 OA
ATOM     23  C   UNL     1      -0.306   9.504  22.698  0.00  0.00    +0.000 C 
ENDBRANCH  10  22
BRANCH   1  24
ATOM     24  O   UNL     1       0.650  10.858  18.646  0.00  0.00    +0.000 OA
BRANCH  24  26
ATOM     25  C   UNL     1      -1.344  10.067  17.547  0.00  0.00    +0.000 C 
ATOM     26  C   UNL     1      -0.770  11.034  18.566  0.00  0.00    +0.000 C 
ENDBRANCH  24  26
ENDBRANCH   1  24
TORSDOF 6
ENDMDL
MODEL 3
REMARK VINA RESULT:      -7.8      2.708      5.253
REMARK  Name = 
REMARK  9 active torsions:
REMARK  status: ('A' for Active; 'I' for Inactive)
REMARK    1  A    between atoms: C_1  and  C_2
REMARK    2  A    between atoms: C_2  and  O_3
REMARK    3  A    between atoms: O_3  and  C_4
REMARK    4  A    between atoms: C_8  and  C_9
REMARK    5  A    between atoms: C_9  and  C_11
REMARK    6  A    between atoms: C_13  and  C_14
REMARK    7  A    between atoms: C_17  and  O_18
REMARK    8  A    between atoms: C_23  and  O_24
REMARK    9  A    between atoms: O_24  and  C_25
REMARK                            x       y       z     vdW  Elec       q    Type
REMARK                         _______ _______ _______ _____ _____    ______ ____
ROOT
ATOM      1  C   UNL     1       0.895   9.714  21.514  0.00  0.00    +0.000 A 
ATOM      2  C   UNL     1       1.327   8.378  21.399  0.00  0.00    +0.000 A 
ATOM      3  C   UNL     1       1.777   7.856  20.171  0.00  0.00    +0.000 A 
ATOM      4  C   UNL     1       2.366   6.584  20.063  0.00  0.00    +0.000 A 
ATOM      5  C   UNL     1       2.876   6.162  18.830  0.00  0.00    +0.000 A 
ATOM      6  C   UNL     1       2.661   6.979  17.737  0.00  0.00    +0.000 A 
ATOM      7  N   UNL     1       2.088   8.205  17.802  0.00  0.00    +0.000 NA
ATOM      8  C   UNL     1       1.689   8.644  19.008  0.00  0.00    +0.000 A 
ATOM      9  C   UNL     1       1.203   9.931  19.126  0.00  0.00    +0.000 A 
ATOM     10  C   UNL     1       0.819  10.494  20.355  0.00  0.00    +0.000 A 
ENDROOT
BRANCH   5  11
ATOM     11  C   UNL     1       3.639   4.896  18.727  0.00  0.00    +0.000 C 
ATOM     12  O   UNL     1       3.207   3.904  19.304  0.00  0.00    +0.000 OA
BRANCH  11  13
ATOM     13  C   UNL     1       4.906   4.800  17.935  0.00  0.00    +0.000 A 
ATOM     14  C   UNL     1       4.797   4.503  16.565  0.00  0.00    +0.000 A 
ATOM     15  C   UNL     1       5.941   4.411  15.756  0.00  0.00    +0.000 A 
ATOM     16  C   UNL     1       5.841   4.067  14.298  0.00  0.00    +0.000 C 
ATOM     17  C   UNL     1       7.201   4.627  16.326  0.00  0.00    +0.000 A 
ATOM     18  C   UNL     1       7.324   4.901  17.687  0.00  0.00    +0.000 A 
ATOM     19  C   UNL     1       6.184   4.968  18.488  0.00  0.00    +0.000 A 
BRANCH  19  20
ATOM     20  O   UNL     1       6.343   5.168  19.830  0.00  0.00    +0.000 OA
ATOM     21  H   UNL     1       5.563   4.837  20.306  0.00  0.00    +0.000 HD
ENDBRANCH  19  20
ENDBRANCH  11  13
ENDBRANCH   5  11
BRANCH  10  22
ATOM     22  O   UNL     1       0.444  11.800  20.192  0.00  0.00    +0.000 OA
ATOM     23  C   UNL     1       0.771  12.499  19.006  0.00  0.00    +0.000 C 
ENDBRANCH  10  22
BRANCH   1  24
ATOM     24  O   UNL     1       0.570  10.264  22.730  0.00  0.00    +0.000 OA
BRANCH  24  26
ATOM     25  C   UNL     1      -1.522  11.396  23.121  0.00  0.00    +0.000 C 
ATOM     26  C   UNL     1      -0.784  10.071  23.156  0.00  0.00    +0.000 C 
ENDBRANCH  24  26
ENDBRANCH   1  24
TORSDOF 6
ENDMDL
MODEL 4
REMARK VINA RESULT:      -7.6      3.400      7.980
REMARK  Name = 
REMARK  9 active torsions:
REMARK  status: ('A' for Active; 'I' for Inactive)
REMARK    1  A    between atoms: C_1  and  C_2
REMARK    2  A    between atoms: C_2  and  O_3
REMARK    3  A    between atoms: O_3  and  C_4
REMARK    4  A    between atoms: C_8  and  C_9
REMARK    5  A    between atoms: C_9  and  C_11
REMARK    6  A    between atoms: C_13  and  C_14
REMARK    7  A    between atoms: C_17  and  O_18
REMARK    8  A    between atoms: C_23  and  O_24
REMARK    9  A    between atoms: O_24  and  C_25
REMARK                            x       y       z     vdW  Elec       q    Type
REMARK                         _______ _______ _______ _____ _____    ______ ____
ROOT
ATOM      1  C   UNL     1       4.791   4.545  17.611  0.00  0.00    +0.000 A 
ATOM      2  C   UNL     1       4.168   5.721  17.146  0.00  0.00    +0.000 A 
ATOM      3  C   UNL     1       3.348   6.498  17.987  0.00  0.00    +0.000 A 
ATOM      4  C   UNL     1       2.850   7.755  17.601  0.00  0.00    +0.000 A 
ATOM      5  C   UNL     1       2.117   8.517  18.517  0.00  0.00    +0.000 A 
ATOM      6  C   UNL     1       1.810   7.933  19.732  0.00  0.00    +0.000 A 
ATOM      7  N   UNL     1       2.263   6.721  20.131  0.00  0.00    +0.000 NA
ATOM      8  C   UNL     1       3.049   6.037  19.282  0.00  0.00    +0.000 A 
ATOM      9  C   UNL     1       3.615   4.850  19.701  0.00  0.00    +0.000 A 
ATOM     10  C   UNL     1       4.495   4.098  18.903  0.00  0.00    +0.000 A 
ENDROOT
BRANCH   5  11
ATOM     11  C   UNL     1       1.718   9.906  18.189  0.00  0.00    +0.000 C 
ATOM     12  O   UNL     1       2.543  10.642  17.659  0.00  0.00    +0.000 OA
BRANCH  11  13
ATOM     13  C   UNL     1       0.342  10.421  18.479  0.00  0.00    +0.000 A 
ATOM     14  C   UNL     1      -0.723   9.891  17.730  0.00  0.00    +0.000 A 
ATOM     15  C   UNL     1      -2.042  10.316  17.956  0.00  0.00    +0.000 A 
ATOM     16  C   UNL     1      -3.185   9.779  17.145  0.00  0.00    +0.000 C 
ATOM     17  C   UNL     1      -2.292  11.273  18.946  0.00  0.00    +0.000 A 
ATOM     18  C   UNL     1      -1.242  11.822  19.681  0.00  0.00    +0.000 A 
ATOM     19  C   UNL     1       0.067  11.411  19.433  0.00  0.00    +0.000 A 
BRANCH  19  20
ATOM     20  O   UNL     1       1.080  12.019  20.121  0.00  0.00    +0.000 OA
ATOM     21  H   UNL     1       0.955  12.983  20.106  0.00  0.00    +0.000 HD
ENDBRANCH  19  20
ENDBRANCH  11  13
ENDBRANCH   5  11
BRANCH  10  22
ATOM     22  O   UNL     1       4.960   3.010  19.589  0.00  0.00    +0.000 OA
ATOM     23  C   UNL     1       4.146   2.365  20.551  0.00  0.00    +0.000 C 
ENDBRANCH  10  22
BRANCH   1  24
ATOM     24  O   UNL     1       5.686   3.850  16.835  0.00  0.00    +0.000 OA
BRANCH  24  26
ATOM     25  C   UNL     1       6.871   4.613  14.880  0.00  0.00    +0.000 C 
ATOM     26  C   UNL     1       6.832   4.589  16.397  0.00  0.00    +0.000 C 
ENDBRANCH  24  26
ENDBRANCH   1  24
TORSDOF 6
ENDMDL
MODEL 5
REMARK VINA RESULT:      -7.5      3.862      8.403
REMARK  Name = 
REMARK  9 active torsions:
REMARK  status: ('A' for Active; 'I' for Inactive)
REMARK    1  A    between atoms: C_1  and  C_2
REMARK    2  A    between atoms: C_2  and  O_3
REMARK    3  A    between atoms: O_3  and  C_4
REMARK    4  A    between atoms: C_8  and  C_9
REMARK    5  A    between atoms: C_9  and  C_11
REMARK    6  A    between atoms: C_13  and  C_14
REMARK    7  A    between atoms: C_17  and  O_18
REMARK    8  A    between atoms: C_23  and  O_24
REMARK    9  A    between atoms: O_24  and  C_25
REMARK                            x       y       z     vdW  Elec       q    Type
REMARK                         _______ _______ _______ _____ _____    ______ ____
ROOT
ATOM      1  C   UNL     1       4.268   5.649  17.716  0.00  0.00    +0.000 A 
ATOM      2  C   UNL     1       3.516   6.803  17.416  0.00  0.00    +0.000 A 
ATOM      3  C   UNL     1       2.671   7.397  18.373  0.00  0.00    +0.000 A 
ATOM      4  C   UNL     1       2.040   8.634  18.157  0.00  0.00    +0.000 A 
ATOM      5  C   UNL     1       1.287   9.214  19.184  0.00  0.00    +0.000 A 
ATOM      6  C   UNL     1       1.098   8.471  20.334  0.00  0.00    +0.000 A 
ATOM      7  N   UNL     1       1.681   7.272  20.571  0.00  0.00    +0.000 NA
ATOM      8  C   UNL     1       2.483   6.767  19.617  0.00  0.00    +0.000 A 
ATOM      9  C   UNL     1       3.178   5.602  19.873  0.00  0.00    +0.000 A 
ATOM     10  C   UNL     1       4.082   5.034  18.959  0.00  0.00    +0.000 A 
ENDROOT
BRANCH   5  11
ATOM     11  C   UNL     1       0.745  10.585  19.036  0.00  0.00    +0.000 C 
ATOM     12  O   UNL     1       1.491  11.535  19.243  0.00  0.00    +0.000 OA
BRANCH  11  13
ATOM     13  C   UNL     1      -0.676  10.831  18.633  0.00  0.00    +0.000 A 
ATOM     14  C   UNL     1      -1.146  10.189  17.474  0.00  0.00    +0.000 A 
ATOM     15  C   UNL     1      -2.471  10.363  17.043  0.00  0.00    +0.000 A 
ATOM     16  C   UNL     1      -2.978   9.705  15.793  0.00  0.00    +0.000 C 
ATOM     17  C   UNL     1      -3.331  11.180  17.787  0.00  0.00    +0.000 A 
ATOM     18  C   UNL     1      -2.871  11.840  18.925  0.00  0.00    +0.000 A 
ATOM     19  C   UNL     1      -1.547  11.680  19.333  0.00  0.00    +0.000 A 
BRANCH  19  20
ATOM     20  O   UNL     1      -1.108  12.395  20.412  0.00  0.00    +0.000 OA
ATOM     21  H   UNL     1      -1.573  12.100  21.212  0.00  0.00    +0.000 HD
ENDBRANCH  19  20
ENDBRANCH  11  13
ENDBRANCH   5  11
BRANCH  10  22
ATOM     22  O   UNL     1       4.680   3.927  19.495  0.00  0.00    +0.000 OA
ATOM     23  C   UNL     1       4.075   2.653  19.373  0.00  0.00    +0.000 C 
ENDBRANCH  10  22
BRANCH   1  24
ATOM     24  O   UNL     1       5.183   5.136  16.830  0.00  0.00    +0.000 OA
BRANCH  24  26
ATOM     25  C   UNL     1       7.461   4.626  17.433  0.00  0.00    +0.000 C 
ATOM     26  C   UNL     1       6.504   5.684  16.915  0.00  0.00    +0.000 C 
ENDBRANCH  24  26
ENDBRANCH   1  24
TORSDOF 6
ENDMDL
MODEL 6
REMARK VINA RESULT:      -7.4      4.076      8.432
REMARK  Name = 
REMARK  9 active torsions:
REMARK  status: ('A' for Active; 'I' for Inactive)
REMARK    1  A    between atoms: C_1  and  C_2
REMARK    2  A    between atoms: C_2  and  O_3
REMARK    3  A    between atoms: O_3  and  C_4
REMARK    4  A    between atoms: C_8  and  C_9
REMARK    5  A    between atoms: C_9  and  C_11
REMARK    6  A    between atoms: C_13  and  C_14
REMARK    7  A    between atoms: C_17  and  O_18
REMARK    8  A    between atoms: C_23  and  O_24
REMARK    9  A    between atoms: O_24  and  C_25
REMARK                            x       y       z     vdW  Elec       q    Type
REMARK                         _______ _______ _______ _____ _____    ______ ____
ROOT
ATOM      1  C   UNL     1       2.727   5.463  19.875  0.00  0.00    +0.000 A 
ATOM      2  C   UNL     1       2.045   6.604  20.342  0.00  0.00    +0.000 A 
ATOM      3  C   UNL     1       1.931   7.765  19.553  0.00  0.00    +0.000 A 
ATOM      4  C   UNL     1       1.120   8.852  19.924  0.00  0.00    +0.000 A 
ATOM      5  C   UNL     1       0.979   9.937  19.051  0.00  0.00    +0.000 A 
ATOM      6  C   UNL     1       1.752   9.939  17.906  0.00  0.00    +0.000 A 
ATOM      7  N   UNL     1       2.552   8.915  17.523  0.00  0.00    +0.000 NA
ATOM      8  C   UNL     1       2.606   7.834  18.320  0.00  0.00    +0.000 A 
ATOM      9  C   UNL     1       3.324   6.731  17.905  0.00  0.00    +0.000 A 
ATOM     10  C   UNL     1       3.388   5.537  18.644  0.00  0.00    +0.000 A 
ENDROOT
BRANCH   5  11
ATOM     11  C   UNL     1       0.010  11.018  19.348  0.00  0.00    +0.000 C 
ATOM     12  O   UNL     1       0.338  11.896  20.139  0.00  0.00    +0.000 OA
BRANCH  11  13
ATOM     13  C   UNL     1      -1.340  11.067  18.703  0.00  0.00    +0.000 A 
ATOM     14  C   UNL     1      -1.504  10.388  17.483  0.00  0.00    +0.000 A 
ATOM     15  C   UNL     1      -2.745  10.379  16.827  0.00  0.00    +0.000 A 
ATOM     16  C   UNL     1      -2.928   9.681  15.511  0.00  0.00    +0.000 C 
ATOM     17  C   UNL     1      -3.830  11.049  17.406  0.00  0.00    +0.000 A 
ATOM     18  C   UNL     1      -3.675  11.744  18.604  0.00  0.00    +0.000 A 
ATOM     19  C   UNL     1      -2.432  11.767  19.236  0.00  0.00    +0.000 A 
BRANCH  19  20
ATOM     20  O   UNL     1      -2.295  12.515  20.372  0.00  0.00    +0.000 OA
ATOM     21  H   UNL     1      -2.238  13.457  20.140  0.00  0.00    +0.000 HD
ENDBRANCH  19  20
ENDBRANCH  11  13
ENDBRANCH   5  11
BRANCH  10  22
ATOM     22  O   UNL     1       4.106   4.588  17.969  0.00  0.00    +0.000 OA
ATOM     23  C   UNL     1       3.448   3.618  17.175  0.00  0.00    +0.000 C 
ENDBRANCH  10  22
BRANCH   1  24
ATOM     24  O   UNL     1       2.739   4.289  20.588  0.00  0.00    +0.000 OA
BRANCH  24  26
ATOM     25  C   UNL     1       0.862   2.986  19.819  0.00  0.00    +0.000 C 
ATOM     26  C   UNL     1       1.454   3.782  20.968  0.00  0.00    +0.000 C 
ENDBRANCH  24  26
ENDBRANCH   1  24
TORSDOF 6
ENDMDL
MODEL 7
REMARK VINA RESULT:      -7.3      4.225      6.512
REMARK  Name = 
REMARK  9 active torsions:
REMARK  status: ('A' for Active; 'I' for Inactive)
REMARK    1  A    between atoms: C_1  and  C_2
REMARK    2  A    between atoms: C_2  and  O_3
REMARK    3  A    between atoms: O_3  and  C_4
REMARK    4  A    between atoms: C_8  and  C_9
REMARK    5  A    between atoms: C_9  and  C_11
REMARK    6  A    between atoms: C_13  and  C_14
REMARK    7  A    between atoms: C_17  and  O_18
REMARK    8  A    between atoms: C_23  and  O_24
REMARK    9  A    between atoms: O_24  and  C_25
REMARK                            x       y       z     vdW  Elec       q    Type
REMARK                         _______ _______ _______ _____ _____    ______ ____
ROOT
ATOM      1  C   UNL     1       0.754  10.070  21.476  0.00  0.00    +0.000 A 
ATOM      2  C   UNL     1       1.257   8.786  21.185  0.00  0.00    +0.000 A 
ATOM      3  C   UNL     1       1.708   8.450  19.894  0.00  0.00    +0.000 A 
ATOM      4  C   UNL     1       2.363   7.237  19.617  0.00  0.00    +0.000 A 
ATOM      5  C   UNL     1       2.868   7.004  18.333  0.00  0.00    +0.000 A 
ATOM      6  C   UNL     1       2.584   7.939  17.356  0.00  0.00    +0.000 A 
ATOM      7  N   UNL     1       1.946   9.111  17.585  0.00  0.00    +0.000 NA
ATOM      8  C   UNL     1       1.551   9.372  18.843  0.00  0.00    +0.000 A 
ATOM      9  C   UNL     1       0.998  10.604  19.130  0.00  0.00    +0.000 A 
ATOM     10  C   UNL     1       0.610  10.985  20.427  0.00  0.00    +0.000 A 
ENDROOT
BRANCH   5  11
ATOM     11  C   UNL     1       3.697   5.806  18.059  0.00  0.00    +0.000 C 
ATOM     12  O   UNL     1       4.450   5.825  17.092  0.00  0.00    +0.000 OA
BRANCH  11  13
ATOM     13  C   UNL     1       3.642   4.592  18.933  0.00  0.00    +0.000 A 
ATOM     14  C   UNL     1       2.440   4.334  19.615  0.00  0.00    +0.000 A 
ATOM     15  C   UNL     1       2.310   3.207  20.442  0.00  0.00    +0.000 A 
ATOM     16  C   UNL     1       1.042   2.933  21.197  0.00  0.00    +0.000 C 
ATOM     17  C   UNL     1       3.393   2.330  20.578  0.00  0.00    +0.000 A 
ATOM     18  C   UNL     1       4.597   2.586  19.924  0.00  0.00    +0.000 A 
ATOM     19  C   UNL     1       4.725   3.721  19.124  0.00  0.00    +0.000 A 
BRANCH  19  20
ATOM     20  O   UNL     1       5.939   3.982  18.554  0.00  0.00    +0.000 OA
ATOM     21  H   UNL     1       6.572   3.286  18.797  0.00  0.00    +0.000 HD
ENDBRANCH  19  20
ENDBRANCH  11  13
ENDBRANCH   5  11
BRANCH  10  22
ATOM     22  O   UNL     1       0.161  12.277  20.437  0.00  0.00    +0.000 OA
ATOM     23  C   UNL     1      -0.708  12.744  19.422  0.00  0.00    +0.000 C 
ENDBRANCH  10  22
BRANCH   1  24
ATOM     24  O   UNL     1       0.426  10.442  22.756  0.00  0.00    +0.000 OA
BRANCH  24  26
ATOM     25  C   UNL     1      -1.722  11.437  23.211  0.00  0.00    +0.000 C 
ATOM     26  C   UNL     1      -0.917  10.152  23.163  0.00  0.00    +0.000 C 
ENDBRANCH  24  26
ENDBRANCH   1  24
TORSDOF 6
ENDMDL
MODEL 8
REMARK VINA RESULT:      -7.3      3.136      5.949
REMARK  Name = 
REMARK  9 active torsions:
REMARK  status: ('A' for Active; 'I' for Inactive)
REMARK    1  A    between atoms: C_1  and  C_2
REMARK    2  A    between atoms: C_2  and  O_3
REMARK    3  A    between atoms: O_3  and  C_4
REMARK    4  A    between atoms: C_8  and  C_9
REMARK    5  A    between atoms: C_9  and  C_11
REMARK    6  A    between atoms: C_13  and  C_14
REMARK    7  A    between atoms: C_17  and  O_18
REMARK    8  A    between atoms: C_23  and  O_24
REMARK    9  A    between atoms: O_24  and  C_25
REMARK                            x       y       z     vdW  Elec       q    Type
REMARK                         _______ _______ _______ _____ _____    ______ ____
ROOT
ATOM      1  C   UNL     1       0.468  10.402  21.531  0.00  0.00    +0.000 A 
ATOM      2  C   UNL     1       0.939   9.081  21.396  0.00  0.00    +0.000 A 
ATOM      3  C   UNL     1       1.413   8.594  20.162  0.00  0.00    +0.000 A 
ATOM      4  C   UNL     1       2.039   7.341  20.038  0.00  0.00    +0.000 A 
ATOM      5  C   UNL     1       2.570   6.955  18.802  0.00  0.00    +0.000 A 
ATOM      6  C   UNL     1       2.341   7.786  17.721  0.00  0.00    +0.000 A 
ATOM      7  N   UNL     1       1.733   8.993  17.803  0.00  0.00    +0.000 NA
ATOM      8  C   UNL     1       1.313   9.400  19.014  0.00  0.00    +0.000 A 
ATOM      9  C   UNL     1       0.789  10.670  19.149  0.00  0.00    +0.000 A 
ATOM     10  C   UNL     1       0.379  11.201  20.385  0.00  0.00    +0.000 A 
ENDROOT
BRANCH   5  11
ATOM     11  C   UNL     1       3.369   5.713  18.683  0.00  0.00    +0.000 C 
ATOM     12  O   UNL     1       2.977   4.707  19.265  0.00  0.00    +0.000 OA
BRANCH  11  13
ATOM     13  C   UNL     1       4.625   5.658  17.870  0.00  0.00    +0.000 A 
ATOM     14  C   UNL     1       5.566   6.685  18.054  0.00  0.00    +0.000 A 
ATOM     15  C   UNL     1       6.773   6.692  17.336  0.00  0.00    +0.000 A 
ATOM     16  C   UNL     1       7.775   7.797  17.502  0.00  0.00    +0.000 C 
ATOM     17  C   UNL     1       7.037   5.655  16.433  0.00  0.00    +0.000 A 
ATOM     18  C   UNL     1       6.103   4.642  16.225  0.00  0.00    +0.000 A 
ATOM     19  C   UNL     1       4.897   4.656  16.926  0.00  0.00    +0.000 A 
BRANCH  19  20
ATOM     20  O   UNL     1       3.972   3.689  16.648  0.00  0.00    +0.000 OA
ATOM     21  H   UNL     1       3.082   4.015  16.861  0.00  0.00    +0.000 HD
ENDBRANCH  19  20
ENDBRANCH  11  13
ENDBRANCH   5  11
BRANCH  10  22
ATOM     22  O   UNL     1      -0.031  12.498  20.242  0.00  0.00    +0.000 OA
ATOM     23  C   UNL     1      -0.105  13.091  18.959  0.00  0.00    +0.000 C 
ENDBRANCH  10  22
BRANCH   1  24
ATOM     24  O   UNL     1       0.118  10.921  22.753  0.00  0.00    +0.000 OA
BRANCH  24  26
ATOM     25  C   UNL     1      -2.083  11.845  23.088  0.00  0.00    +0.000 C 
ATOM     26  C   UNL     1      -1.207  10.611  23.202  0.00  0.00    +0.000 C 
ENDBRANCH  24  26
ENDBRANCH   1  24
TORSDOF 6
ENDMDL
MODEL 9
REMARK VINA RESULT:      -7.2      3.304      8.416
REMARK  Name = 
REMARK  9 active torsions:
REMARK  status: ('A' for Active; 'I' for Inactive)
REMARK    1  A    between atoms: C_1  and  C_2
REMARK    2  A    between atoms: C_2  and  O_3
REMARK    3  A    between atoms: O_3  and  C_4
REMARK    4  A    between atoms: C_8  and  C_9
REMARK    5  A    between atoms: C_9  and  C_11
REMARK    6  A    between atoms: C_13  and  C_14
REMARK    7  A    between atoms: C_17  and  O_18
REMARK    8  A    between atoms: C_23  and  O_24
REMARK    9  A    between atoms: O_24  and  C_25
REMARK                            x       y       z     vdW  Elec       q    Type
REMARK                         _______ _______ _______ _____ _____    ______ ____
ROOT
ATOM      1  C   UNL     1       5.075   4.976  17.638  0.00  0.00    +0.000 A 
ATOM      2  C   UNL     1       4.416   6.136  17.185  0.00  0.00    +0.000 A 
ATOM      3  C   UNL     1       3.472   6.804  17.990  0.00  0.00    +0.000 A 
ATOM      4  C   UNL     1       2.924   8.048  17.632  0.00  0.00    +0.000 A 
ATOM      5  C   UNL     1       2.061   8.702  18.519  0.00  0.00    +0.000 A 
ATOM      6  C   UNL     1       1.690   8.025  19.665  0.00  0.00    +0.000 A 
ATOM      7  N   UNL     1       2.189   6.821  20.034  0.00  0.00    +0.000 NA
ATOM      8  C   UNL     1       3.092   6.244  19.223  0.00  0.00    +0.000 A 
ATOM      9  C   UNL     1       3.701   5.072  19.625  0.00  0.00    +0.000 A 
ATOM     10  C   UNL     1       4.699   4.430  18.870  0.00  0.00    +0.000 A 
ENDROOT
BRANCH   5  11
ATOM     11  C   UNL     1       1.597  10.081  18.235  0.00  0.00    +0.000 C 
ATOM     12  O   UNL     1       2.239  10.763  17.444  0.00  0.00    +0.000 OA
BRANCH  11  13
ATOM     13  C   UNL     1       0.370  10.648  18.878  0.00  0.00    +0.000 A 
ATOM     14  C   UNL     1       0.501  11.185  20.170  0.00  0.00    +0.000 A 
ATOM     15  C   UNL     1      -0.604  11.746  20.831  0.00  0.00    +0.000 A 
ATOM     16  C   UNL     1      -0.485  12.299  22.222  0.00  0.00    +0.000 C 
ATOM     17  C   UNL     1      -1.845  11.775  20.185  0.00  0.00    +0.000 A 
ATOM     18  C   UNL     1      -1.993  11.226  18.912  0.00  0.00    +0.000 A 
ATOM     19  C   UNL     1      -0.896  10.650  18.273  0.00  0.00    +0.000 A 
BRANCH  19  20
ATOM     20  O   UNL     1      -1.088  10.057  17.056  0.00  0.00    +0.000 OA
ATOM     21  H   UNL     1      -0.860   9.114  17.111  0.00  0.00    +0.000 HD
ENDBRANCH  19  20
ENDBRANCH  11  13
ENDBRANCH   5  11
BRANCH  10  22
ATOM     22  O   UNL     1       5.176   3.333  19.533  0.00  0.00    +0.000 OA
ATOM     23  C   UNL     1       4.306   2.275  19.892  0.00  0.00    +0.000 C 
ENDBRANCH  10  22
BRANCH   1  24
ATOM     24  O   UNL     1       6.082   4.389  16.910  0.00  0.00    +0.000 OA
BRANCH  24  26
ATOM     25  C   UNL     1       6.446   4.357  14.528  0.00  0.00    +0.000 C 
ATOM     26  C   UNL     1       5.678   3.756  15.690  0.00  0.00    +0.000 C 
ENDBRANCH  24  26
ENDBRANCH   1  24
TORSDOF 6
ENDMDL
