MODEL 1
REMARK VINA RESULT:      -8.4      0.000      0.000
REMARK  Name = 
REMARK  9 active torsions:
REMARK  status: ('A' for Active; 'I' for Inactive)
REMARK    1  A    between atoms: C_1  and  C_2
REMARK    2  A    between atoms: C_2  and  C_3
REMARK    3  A    between atoms: C_2  and  C_4
REMARK    4  A    between atoms: C_2  and  C_32
REMARK    5  A    between atoms: C_4  and  N_5
REMARK    6  A    between atoms: C_7  and  C_8
REMARK    7  A    between atoms: C_10  and  C_11
REMARK    8  A    between atoms: C_11  and  C_12
REMARK    9  A    between atoms: C_15  and  C_16
REMARK                            x       y       z     vdW  Elec       q    Type
REMARK                         _______ _______ _______ _____ _____    ______ ____
ROOT
ATOM      1  C   UNL     1       1.825   7.900  19.932  0.00  0.00    +0.000 A 
ATOM      2  N   UNL     1       1.476   8.949  19.207  0.00  0.00    +0.000 NA
ATOM      3  C   UNL     1       0.772   9.720  20.100  0.00  0.00    +0.000 A 
ATOM      4  N   UNL     1       0.681   9.199  21.331  0.00  0.00    +0.000 NA
ATOM      5  O   UNL     1       1.379   7.996  21.225  0.00  0.00    +0.000 OA
ENDROOT
BRANCH   1   8
ATOM      6  N   UNL     1       3.692   5.384  18.092  0.00  0.00    +0.000 N 
ATOM      7  C   UNL     1       3.047   6.588  18.123  0.00  0.00    +0.000 A 
ATOM      8  C   UNL     1       2.586   6.743  19.407  0.00  0.00    +0.000 A 
ATOM      9  C   UNL     1       2.982   5.573  20.076  0.00  0.00    +0.000 A 
ATOM     10  N   UNL     1       3.661   4.739  19.279  0.00  0.00    +0.000 NA
BRANCH   6  11
ATOM     11  C   UNL     1       4.303   4.748  16.932  0.00  0.00    +0.000 C 
BRANCH  11  13
ATOM     12  C   UNL     1       5.818   5.296  14.969  0.00  0.00    +0.000 C 
ATOM     13  C   UNL     1       5.664   5.345  16.498  0.00  0.00    +0.000 C 
ATOM     14  C   UNL     1       5.729   6.818  16.948  0.00  0.00    +0.000 C 
BRANCH  13  15
ATOM     15  C   UNL     1       6.785   4.615  17.242  0.00  0.00    +0.000 C 
ATOM     16  N   UNL     1       6.487   4.048  18.445  0.00  0.00    +0.000 N 
ATOM     17  O   UNL     1       7.888   4.401  16.745  0.00  0.00    +0.000 OA
ATOM     18  H   UNL     1       5.719   4.363  19.020  0.00  0.00    +0.000 HD
ATOM     19  H   UNL     1       7.261   3.602  18.923  0.00  0.00    +0.000 HD
ENDBRANCH  13  15
ENDBRANCH  11  13
ENDBRANCH   6  11
ENDBRANCH   1   8
BRANCH   3  20
ATOM     20  C   UNL     1       0.078  11.033  19.698  0.00  0.00    +0.000 C 
ATOM     21  C   UNL     1      -0.922  10.888  18.495  0.00  0.00    +0.000 C 
ATOM     22  C   UNL     1      -1.851  11.864  19.250  0.00  0.00    +0.000 C 
ATOM     23  C   UNL     1      -1.181  11.389  20.560  0.00  0.00    +0.000 C 
BRANCH  20  24
ATOM     24  C   UNL     1       1.197  12.188  19.546  0.00  0.00    +0.000 A 
ATOM     25  C   UNL     1       1.632  12.967  20.628  0.00  0.00    +0.000 A 
ATOM     26  C   UNL     1       2.662  13.896  20.488  0.00  0.00    +0.000 A 
ATOM     27  C   UNL     1       3.266  14.063  19.246  0.00  0.00    +0.000 A 
ATOM     28  N   UNL     1       2.831  13.387  18.159  0.00  0.00    +0.000 NA
ATOM     29  C   UNL     1       1.825  12.490  18.332  0.00  0.00    +0.000 A 
BRANCH  27  30
ATOM     30  C   UNL     1       4.394  14.971  19.038  0.00  0.00    +0.000 A 
ATOM     31  C   UNL     1       5.450  14.697  18.187  0.00  0.00    +0.000 A 
ATOM     32  N   UNL     1       6.537  15.483  18.023  0.00  0.00    +0.000 NA
ATOM     33  C   UNL     1       6.571  16.602  18.747  0.00  0.00    +0.000 A 
ATOM     34  N   UNL     1       7.691  17.396  18.635  0.00  0.00    +0.000 N 
ATOM     35  N   UNL     1       5.588  17.017  19.550  0.00  0.00    +0.000 NA
ATOM     36  C   UNL     1       4.521  16.191  19.673  0.00  0.00    +0.000 A 
ATOM     37  H   UNL     1       8.146  17.224  17.750  0.00  0.00    +0.000 HD
ATOM     38  H   UNL     1       7.461  18.350  18.870  0.00  0.00    +0.000 HD
ENDBRANCH  27  30
ENDBRANCH  20  24
ENDBRANCH   3  20
TORSDOF 7
ENDMDL
MODEL 2
REMARK VINA RESULT:      -8.2      1.025      1.298
REMARK  Name = 
REMARK  9 active torsions:
REMARK  status: ('A' for Active; 'I' for Inactive)
REMARK    1  A    between atoms: C_1  and  C_2
REMARK    2  A    between atoms: C_2  and  C_3
REMARK    3  A    between atoms: C_2  and  C_4
REMARK    4  A    between atoms: C_2  and  C_32
REMARK    5  A    between atoms: C_4  and  N_5
REMARK    6  A    between atoms: C_7  and  C_8
REMARK    7  A    between atoms: C_10  and  C_11
REMARK    8  A    between atoms: C_11  and  C_12
REMARK    9  A    between atoms: C_15  and  C_16
REMARK                            x       y       z     vdW  Elec       q    Type
REMARK                         _______ _______ _______ _____ _____    ______ ____
ROOT
ATOM      1  C   UNL     1       2.065   7.558  19.752  0.00  0.00    +0.000 A 
ATOM      2  N   UNL     1       1.661   8.577  19.012  0.00  0.00    +0.000 NA
ATOM      3  C   UNL     1       0.953   9.344  19.905  0.00  0.00    +0.000 A 
ATOM      4  N   UNL     1       0.912   8.851  21.150  0.00  0.00    +0.000 NA
ATOM      5  O   UNL     1       1.650   7.671  21.054  0.00  0.00    +0.000 OA
ENDROOT
BRANCH   1   8
ATOM      6  N   UNL     1       3.928   5.039  17.913  0.00  0.00    +0.000 N 
ATOM      7  C   UNL     1       3.209   6.200  17.926  0.00  0.00    +0.000 A 
ATOM      8  C   UNL     1       2.853   6.416  19.235  0.00  0.00    +0.000 A 
ATOM      9  C   UNL     1       3.384   5.323  19.938  0.00  0.00    +0.000 A 
ATOM     10  N   UNL     1       4.045   4.478  19.137  0.00  0.00    +0.000 NA
BRANCH   6  11
ATOM     11  C   UNL     1       4.476   4.361  16.746  0.00  0.00    +0.000 C 
BRANCH  11  13
ATOM     12  C   UNL     1       6.958   4.450  17.279  0.00  0.00    +0.000 C 
ATOM     13  C   UNL     1       5.864   4.870  16.284  0.00  0.00    +0.000 C 
ATOM     14  C   UNL     1       6.190   4.250  14.911  0.00  0.00    +0.000 C 
BRANCH  13  15
ATOM     15  C   UNL     1       5.790   6.384  16.069  0.00  0.00    +0.000 C 
ATOM     16  N   UNL     1       6.575   7.177  16.850  0.00  0.00    +0.000 N 
ATOM     17  O   UNL     1       5.167   6.897  15.142  0.00  0.00    +0.000 OA
ATOM     18  H   UNL     1       6.915   6.884  17.755  0.00  0.00    +0.000 HD
ATOM     19  H   UNL     1       6.475   8.174  16.702  0.00  0.00    +0.000 HD
ENDBRANCH  13  15
ENDBRANCH  11  13
ENDBRANCH   6  11
ENDBRANCH   1   8
BRANCH   3  20
ATOM     20  C   UNL     1       0.203  10.622  19.491  0.00  0.00    +0.000 C 
ATOM     21  C   UNL     1      -0.749  10.434  18.254  0.00  0.00    +0.000 C 
ATOM     22  C   UNL     1      -1.753  11.352  18.986  0.00  0.00    +0.000 C 
ATOM     23  C   UNL     1      -1.101  10.902  20.313  0.00  0.00    +0.000 C 
BRANCH  20  24
ATOM     24  C   UNL     1       1.261  11.837  19.384  0.00  0.00    +0.000 A 
ATOM     25  C   UNL     1       1.540  12.694  20.458  0.00  0.00    +0.000 A 
ATOM     26  C   UNL     1       2.523  13.678  20.368  0.00  0.00    +0.000 A 
ATOM     27  C   UNL     1       3.238  13.822  19.183  0.00  0.00    +0.000 A 
ATOM     28  N   UNL     1       2.954  13.067  18.098  0.00  0.00    +0.000 NA
ATOM     29  C   UNL     1       1.989  12.118  18.222  0.00  0.00    +0.000 A 
BRANCH  27  30
ATOM     30  C   UNL     1       4.326  14.788  19.036  0.00  0.00    +0.000 A 
ATOM     31  C   UNL     1       5.347  14.656  18.112  0.00  0.00    +0.000 A 
ATOM     32  N   UNL     1       6.401  15.495  17.995  0.00  0.00    +0.000 NA
ATOM     33  C   UNL     1       6.434  16.520  18.846  0.00  0.00    +0.000 A 
ATOM     34  N   UNL     1       7.523  17.363  18.781  0.00  0.00    +0.000 N 
ATOM     35  N   UNL     1       5.479  16.801  19.736  0.00  0.00    +0.000 NA
ATOM     36  C   UNL     1       4.445  15.928  19.806  0.00  0.00    +0.000 A 
ATOM     37  H   UNL     1       7.939  17.313  17.862  0.00  0.00    +0.000 HD
ATOM     38  H   UNL     1       7.275  18.273  19.139  0.00  0.00    +0.000 HD
ENDBRANCH  27  30
ENDBRANCH  20  24
ENDBRANCH   3  20
TORSDOF 7
ENDMDL
MODEL 3
REMARK VINA RESULT:      -8.1      1.030      1.365
REMARK  Name = 
REMARK  9 active torsions:
REMARK  status: ('A' for Active; 'I' for Inactive)
REMARK    1  A    between atoms: C_1  and  C_2
REMARK    2  A    between atoms: C_2  and  C_3
REMARK    3  A    between atoms: C_2  and  C_4
REMARK    4  A    between atoms: C_2  and  C_32
REMARK    5  A    between atoms: C_4  and  N_5
REMARK    6  A    between atoms: C_7  and  C_8
REMARK    7  A    between atoms: C_10  and  C_11
REMARK    8  A    between atoms: C_11  and  C_12
REMARK    9  A    between atoms: C_15  and  C_16
REMARK                            x       y       z     vdW  Elec       q    Type
REMARK                         _______ _______ _______ _____ _____    ______ ____
ROOT
ATOM      1  C   UNL     1       1.689   8.271  20.115  0.00  0.00    +0.000 A 
ATOM      2  N   UNL     1       1.292   9.279  19.356  0.00  0.00    +0.000 NA
ATOM      3  C   UNL     1       0.795  10.175  20.270  0.00  0.00    +0.000 A 
ATOM      4  N   UNL     1       0.876   9.771  21.545  0.00  0.00    +0.000 NA
ATOM      5  O   UNL     1       1.470   8.513  21.447  0.00  0.00    +0.000 OA
ENDROOT
BRANCH   1   8
ATOM      6  N   UNL     1       3.318   5.556  18.333  0.00  0.00    +0.000 N 
ATOM      7  C   UNL     1       2.952   6.870  18.403  0.00  0.00    +0.000 A 
ATOM      8  C   UNL     1       2.278   7.018  19.592  0.00  0.00    +0.000 A 
ATOM      9  C   UNL     1       2.271   5.735  20.163  0.00  0.00    +0.000 A 
ATOM     10  N   UNL     1       2.907   4.837  19.401  0.00  0.00    +0.000 NA
BRANCH   6  11
ATOM     11  C   UNL     1       4.006   4.897  17.232  0.00  0.00    +0.000 C 
BRANCH  11  13
ATOM     12  C   UNL     1       6.144   5.009  18.599  0.00  0.00    +0.000 C 
ATOM     13  C   UNL     1       5.538   5.116  17.190  0.00  0.00    +0.000 C 
ATOM     14  C   UNL     1       6.174   4.027  16.303  0.00  0.00    +0.000 C 
BRANCH  13  15
ATOM     15  C   UNL     1       5.828   6.455  16.507  0.00  0.00    +0.000 C 
ATOM     16  N   UNL     1       5.211   6.712  15.320  0.00  0.00    +0.000 N 
ATOM     17  O   UNL     1       6.475   7.352  17.044  0.00  0.00    +0.000 OA
ATOM     18  H   UNL     1       4.875   5.979  14.711  0.00  0.00    +0.000 HD
ATOM     19  H   UNL     1       5.452   7.593  14.882  0.00  0.00    +0.000 HD
ENDBRANCH  13  15
ENDBRANCH  11  13
ENDBRANCH   6  11
ENDBRANCH   1   8
BRANCH   3  20
ATOM     20  C   UNL     1       0.128  11.499  19.857  0.00  0.00    +0.000 C 
ATOM     21  C   UNL     1      -0.933  11.352  18.707  0.00  0.00    +0.000 C 
ATOM     22  C   UNL     1      -1.791  12.384  19.472  0.00  0.00    +0.000 C 
ATOM     23  C   UNL     1      -1.076  11.927  20.764  0.00  0.00    +0.000 C 
BRANCH  20  24
ATOM     24  C   UNL     1       1.277  12.609  19.615  0.00  0.00    +0.000 A 
ATOM     25  C   UNL     1       1.636  13.551  20.589  0.00  0.00    +0.000 A 
ATOM     26  C   UNL     1       2.692  14.439  20.388  0.00  0.00    +0.000 A 
ATOM     27  C   UNL     1       3.399  14.399  19.191  0.00  0.00    +0.000 A 
ATOM     28  N   UNL     1       3.042  13.557  18.196  0.00  0.00    +0.000 NA
ATOM     29  C   UNL     1       2.008  12.705  18.426  0.00  0.00    +0.000 A 
BRANCH  27  30
ATOM     30  C   UNL     1       4.557  15.254  18.935  0.00  0.00    +0.000 A 
ATOM     31  C   UNL     1       5.737  14.799  18.374  0.00  0.00    +0.000 A 
ATOM     32  N   UNL     1       6.846  15.548  18.186  0.00  0.00    +0.000 NA
ATOM     33  C   UNL     1       6.772  16.819  18.578  0.00  0.00    +0.000 A 
ATOM     34  N   UNL     1       7.905  17.592  18.442  0.00  0.00    +0.000 N 
ATOM     35  N   UNL     1       5.674  17.401  19.067  0.00  0.00    +0.000 NA
ATOM     36  C   UNL     1       4.591  16.603  19.231  0.00  0.00    +0.000 A 
ATOM     37  H   UNL     1       8.499  17.204  17.723  0.00  0.00    +0.000 HD
ATOM     38  H   UNL     1       7.651  18.565  18.371  0.00  0.00    +0.000 HD
ENDBRANCH  27  30
ENDBRANCH  20  24
ENDBRANCH   3  20
TORSDOF 7
ENDMDL
MODEL 4
REMARK VINA RESULT:      -8.1      1.677      2.272
REMARK  Name = 
REMARK  9 active torsions:
REMARK  status: ('A' for Active; 'I' for Inactive)
REMARK    1  A    between atoms: C_1  and  C_2
REMARK    2  A    between atoms: C_2  and  C_3
REMARK    3  A    between atoms: C_2  and  C_4
REMARK    4  A    between atoms: C_2  and  C_32
REMARK    5  A    between atoms: C_4  and  N_5
REMARK    6  A    between atoms: C_7  and  C_8
REMARK    7  A    between atoms: C_10  and  C_11
REMARK    8  A    between atoms: C_11  and  C_12
REMARK    9  A    between atoms: C_15  and  C_16
REMARK                            x       y       z     vdW  Elec       q    Type
REMARK                         _______ _______ _______ _____ _____    ______ ____
ROOT
ATOM      1  C   UNL     1       2.004   8.046  19.228  0.00  0.00    +0.000 A 
ATOM      2  N   UNL     1       1.573   9.160  18.660  0.00  0.00    +0.000 NA
ATOM      3  C   UNL     1       1.018   9.847  19.712  0.00  0.00    +0.000 A 
ATOM      4  N   UNL     1       1.096   9.214  20.891  0.00  0.00    +0.000 NA
ATOM      5  O   UNL     1       1.751   8.023  20.575  0.00  0.00    +0.000 OA
ENDROOT
BRANCH   1   8
ATOM      6  N   UNL     1       3.110   4.987  17.610  0.00  0.00    +0.000 N 
ATOM      7  C   UNL     1       2.190   5.657  18.365  0.00  0.00    +0.000 A 
ATOM      8  C   UNL     1       2.662   6.941  18.494  0.00  0.00    +0.000 A 
ATOM      9  C   UNL     1       3.883   6.948  17.801  0.00  0.00    +0.000 A 
ATOM     10  N   UNL     1       4.163   5.758  17.255  0.00  0.00    +0.000 NA
BRANCH   6  11
ATOM     11  C   UNL     1       3.085   3.577  17.246  0.00  0.00    +0.000 C 
BRANCH  11  13
ATOM     12  C   UNL     1       1.583   2.313  18.859  0.00  0.00    +0.000 C 
ATOM     13  C   UNL     1       3.036   2.592  18.441  0.00  0.00    +0.000 C 
ATOM     14  C   UNL     1       3.685   1.260  18.015  0.00  0.00    +0.000 C 
BRANCH  13  15
ATOM     15  C   UNL     1       3.897   3.150  19.577  0.00  0.00    +0.000 C 
ATOM     16  N   UNL     1       5.213   3.391  19.321  0.00  0.00    +0.000 N 
ATOM     17  O   UNL     1       3.427   3.515  20.652  0.00  0.00    +0.000 OA
ATOM     18  H   UNL     1       5.720   2.918  18.587  0.00  0.00    +0.000 HD
ATOM     19  H   UNL     1       5.757   3.728  20.106  0.00  0.00    +0.000 HD
ENDBRANCH  13  15
ENDBRANCH  11  13
ENDBRANCH   6  11
ENDBRANCH   1   8
BRANCH   3  20
ATOM     20  C   UNL     1       0.296  11.194  19.538  0.00  0.00    +0.000 C 
ATOM     21  C   UNL     1      -0.807  11.190  18.419  0.00  0.00    +0.000 C 
ATOM     22  C   UNL     1      -1.663  12.060  19.368  0.00  0.00    +0.000 C 
ATOM     23  C   UNL     1      -0.881  11.433  20.545  0.00  0.00    +0.000 C 
BRANCH  20  24
ATOM     24  C   UNL     1       1.401  12.368  19.431  0.00  0.00    +0.000 A 
ATOM     25  C   UNL     1       1.896  13.045  20.554  0.00  0.00    +0.000 A 
ATOM     26  C   UNL     1       2.914  13.991  20.443  0.00  0.00    +0.000 A 
ATOM     27  C   UNL     1       3.444  14.279  19.189  0.00  0.00    +0.000 A 
ATOM     28  N   UNL     1       2.948  13.704  18.071  0.00  0.00    +0.000 NA
ATOM     29  C   UNL     1       1.956  12.787  18.217  0.00  0.00    +0.000 A 
BRANCH  27  30
ATOM     30  C   UNL     1       4.556  15.211  19.004  0.00  0.00    +0.000 A 
ATOM     31  C   UNL     1       5.824  14.821  18.609  0.00  0.00    +0.000 A 
ATOM     32  N   UNL     1       6.887  15.647  18.492  0.00  0.00    +0.000 NA
ATOM     33  C   UNL     1       6.672  16.930  18.783  0.00  0.00    +0.000 A 
ATOM     34  N   UNL     1       7.751  17.784  18.720  0.00  0.00    +0.000 N 
ATOM     35  N   UNL     1       5.484  17.447  19.106  0.00  0.00    +0.000 NA
ATOM     36  C   UNL     1       4.453  16.573  19.206  0.00  0.00    +0.000 A 
ATOM     37  H   UNL     1       8.452  17.404  18.099  0.00  0.00    +0.000 HD
ATOM     38  H   UNL     1       7.435  18.727  18.553  0.00  0.00    +0.000 HD
ENDBRANCH  27  30
ENDBRANCH  20  24
ENDBRANCH   3  20
TORSDOF 7
ENDMDL
MODEL 5
REMARK VINA RESULT:      -8.1      2.073      2.663
REMARK  Name = 
REMARK  9 active torsions:
REMARK  status: ('A' for Active; 'I' for Inactive)
REMARK    1  A    between atoms: C_1  and  C_2
REMARK    2  A    between atoms: C_2  and  C_3
REMARK    3  A    between atoms: C_2  and  C_4
REMARK    4  A    between atoms: C_2  and  C_32
REMARK    5  A    between atoms: C_4  and  N_5
REMARK    6  A    between atoms: C_7  and  C_8
REMARK    7  A    between atoms: C_10  and  C_11
REMARK    8  A    between atoms: C_11  and  C_12
REMARK    9  A    between atoms: C_15  and  C_16
REMARK                            x       y       z     vdW  Elec       q    Type
REMARK                         _______ _______ _______ _____ _____    ______ ____
ROOT
ATOM      1  C   UNL     1       1.909   8.360  19.004  0.00  0.00    +0.000 A 
ATOM      2  N   UNL     1       1.186   9.244  19.671  0.00  0.00    +0.000 NA
ATOM      3  C   UNL     1       1.200  10.340  18.844  0.00  0.00    +0.000 A 
ATOM      4  N   UNL     1       1.886  10.168  17.706  0.00  0.00    +0.000 NA
ATOM      5  O   UNL     1       2.355   8.857  17.807  0.00  0.00    +0.000 OA
ENDROOT
BRANCH   1   8
ATOM      6  N   UNL     1       3.087   5.000  19.725  0.00  0.00    +0.000 N 
ATOM      7  C   UNL     1       3.116   6.118  18.941  0.00  0.00    +0.000 A 
ATOM      8  C   UNL     1       2.224   7.001  19.500  0.00  0.00    +0.000 A 
ATOM      9  C   UNL     1       1.690   6.321  20.606  0.00  0.00    +0.000 A 
ATOM     10  N   UNL     1       2.214   5.098  20.752  0.00  0.00    +0.000 NA
BRANCH   6  11
ATOM     11  C   UNL     1       3.821   3.760  19.508  0.00  0.00    +0.000 C 
BRANCH  11  13
ATOM     12  C   UNL     1       4.132   3.412  17.012  0.00  0.00    +0.000 C 
ATOM     13  C   UNL     1       3.379   2.945  18.268  0.00  0.00    +0.000 C 
ATOM     14  C   UNL     1       3.706   1.457  18.507  0.00  0.00    +0.000 C 
BRANCH  13  15
ATOM     15  C   UNL     1       1.857   3.037  18.131  0.00  0.00    +0.000 C 
ATOM     16  N   UNL     1       1.094   2.426  19.079  0.00  0.00    +0.000 N 
ATOM     17  O   UNL     1       1.304   3.746  17.293  0.00  0.00    +0.000 OA
ATOM     18  H   UNL     1       1.432   1.655  19.637  0.00  0.00    +0.000 HD
ATOM     19  H   UNL     1       0.092   2.481  18.938  0.00  0.00    +0.000 HD
ENDBRANCH  13  15
ENDBRANCH  11  13
ENDBRANCH   6  11
ENDBRANCH   1   8
BRANCH   3  20
ATOM     20  C   UNL     1       0.549  11.680  19.228  0.00  0.00    +0.000 C 
ATOM     21  C   UNL     1      -0.680  12.076  18.332  0.00  0.00    +0.000 C 
ATOM     22  C   UNL     1      -1.357  12.589  19.623  0.00  0.00    +0.000 C 
ATOM     23  C   UNL     1      -0.479  11.586  20.407  0.00  0.00    +0.000 C 
BRANCH  20  24
ATOM     24  C   UNL     1       1.705  12.800  19.368  0.00  0.00    +0.000 A 
ATOM     25  C   UNL     1       2.213  13.211  20.609  0.00  0.00    +0.000 A 
ATOM     26  C   UNL     1       3.272  14.113  20.698  0.00  0.00    +0.000 A 
ATOM     27  C   UNL     1       3.832  14.626  19.533  0.00  0.00    +0.000 A 
ATOM     28  N   UNL     1       3.328  14.314  18.318  0.00  0.00    +0.000 NA
ATOM     29  C   UNL     1       2.295  13.432  18.268  0.00  0.00    +0.000 A 
BRANCH  27  30
ATOM     30  C   UNL     1       4.986  15.525  19.547  0.00  0.00    +0.000 A 
ATOM     31  C   UNL     1       6.170  15.241  20.203  0.00  0.00    +0.000 A 
ATOM     32  N   UNL     1       7.229  16.077  20.290  0.00  0.00    +0.000 NA
ATOM     33  C   UNL     1       7.097  17.259  19.689  0.00  0.00    +0.000 A 
ATOM     34  N   UNL     1       8.142  18.149  19.805  0.00  0.00    +0.000 N 
ATOM     35  N   UNL     1       6.038  17.629  18.965  0.00  0.00    +0.000 NA
ATOM     36  C   UNL     1       5.008  16.750  18.909  0.00  0.00    +0.000 A 
ATOM     37  H   UNL     1       8.998  17.648  19.994  0.00  0.00    +0.000 HD
ATOM     38  H   UNL     1       8.133  18.793  19.029  0.00  0.00    +0.000 HD
ENDBRANCH  27  30
ENDBRANCH  20  24
ENDBRANCH   3  20
TORSDOF 7
ENDMDL
MODEL 6
REMARK VINA RESULT:      -8.0      2.802      8.974
REMARK  Name = 
REMARK  9 active torsions:
REMARK  status: ('A' for Active; 'I' for Inactive)
REMARK    1  A    between atoms: C_1  and  C_2
REMARK    2  A    between atoms: C_2  and  C_3
REMARK    3  A    between atoms: C_2  and  C_4
REMARK    4  A    between atoms: C_2  and  C_32
REMARK    5  A    between atoms: C_4  and  N_5
REMARK    6  A    between atoms: C_7  and  C_8
REMARK    7  A    between atoms: C_10  and  C_11
REMARK    8  A    between atoms: C_11  and  C_12
REMARK    9  A    between atoms: C_15  and  C_16
REMARK                            x       y       z     vdW  Elec       q    Type
REMARK                         _______ _______ _______ _____ _____    ______ ____
ROOT
ATOM      1  C   UNL     1       2.461  13.566  19.843  0.00  0.00    +0.000 A 
ATOM      2  N   UNL     1       1.751  12.795  19.036  0.00  0.00    +0.000 NA
ATOM      3  C   UNL     1       1.123  11.936  19.906  0.00  0.00    +0.000 A 
ATOM      4  N   UNL     1       1.407  12.149  21.198  0.00  0.00    +0.000 NA
ATOM      5  O   UNL     1       2.290  13.228  21.160  0.00  0.00    +0.000 OA
ENDROOT
BRANCH   1   8
ATOM      6  N   UNL     1       5.050  16.024  19.170  0.00  0.00    +0.000 N 
ATOM      7  C   UNL     1       4.585  14.970  19.905  0.00  0.00    +0.000 A 
ATOM      8  C   UNL     1       3.356  14.650  19.380  0.00  0.00    +0.000 A 
ATOM      9  C   UNL     1       3.154  15.578  18.344  0.00  0.00    +0.000 A 
ATOM     10  N   UNL     1       4.186  16.419  18.209  0.00  0.00    +0.000 NA
BRANCH   6  11
ATOM     11  C   UNL     1       6.291  16.757  19.381  0.00  0.00    +0.000 C 
BRANCH  11  13
ATOM     12  C   UNL     1       7.236  15.109  17.695  0.00  0.00    +0.000 C 
ATOM     13  C   UNL     1       7.568  16.048  18.866  0.00  0.00    +0.000 C 
ATOM     14  C   UNL     1       8.565  17.114  18.369  0.00  0.00    +0.000 C 
BRANCH  13  15
ATOM     15  C   UNL     1       8.245  15.335  20.040  0.00  0.00    +0.000 C 
ATOM     16  N   UNL     1       8.529  14.010  19.903  0.00  0.00    +0.000 N 
ATOM     17  O   UNL     1       8.663  15.931  21.030  0.00  0.00    +0.000 OA
ATOM     18  H   UNL     1       8.031  13.410  19.261  0.00  0.00    +0.000 HD
ATOM     19  H   UNL     1       8.947  13.565  20.711  0.00  0.00    +0.000 HD
ENDBRANCH  13  15
ENDBRANCH  11  13
ENDBRANCH   6  11
ENDBRANCH   1   8
BRANCH   3  20
ATOM     20  C   UNL     1       0.231  10.777  19.430  0.00  0.00    +0.000 C 
ATOM     21  C   UNL     1      -1.209  10.775  20.060  0.00  0.00    +0.000 C 
ATOM     22  C   UNL     1      -1.732  10.348  18.671  0.00  0.00    +0.000 C 
ATOM     23  C   UNL     1      -0.487  11.032  18.061  0.00  0.00    +0.000 C 
BRANCH  20  24
ATOM     24  C   UNL     1       1.057   9.395  19.563  0.00  0.00    +0.000 A 
ATOM     25  C   UNL     1       1.046   8.616  20.729  0.00  0.00    +0.000 A 
ATOM     26  C   UNL     1       1.694   7.383  20.786  0.00  0.00    +0.000 A 
ATOM     27  C   UNL     1       2.376   6.918  19.667  0.00  0.00    +0.000 A 
ATOM     28  N   UNL     1       2.474   7.667  18.546  0.00  0.00    +0.000 NA
ATOM     29  C   UNL     1       1.830   8.863  18.525  0.00  0.00    +0.000 A 
BRANCH  27  30
ATOM     30  C   UNL     1       3.025   5.607  19.632  0.00  0.00    +0.000 A 
ATOM     31  C   UNL     1       2.464   4.462  20.169  0.00  0.00    +0.000 A 
ATOM     32  N   UNL     1       3.064   3.252  20.212  0.00  0.00    +0.000 NA
ATOM     33  C   UNL     1       4.288   3.182  19.690  0.00  0.00    +0.000 A 
ATOM     34  N   UNL     1       4.942   1.972  19.765  0.00  0.00    +0.000 N 
ATOM     35  N   UNL     1       4.912   4.192  19.079  0.00  0.00    +0.000 NA
ATOM     36  C   UNL     1       4.262   5.381  19.063  0.00  0.00    +0.000 A 
ATOM     37  H   UNL     1       4.268   1.224  19.853  0.00  0.00    +0.000 HD
ATOM     38  H   UNL     1       5.628   1.905  19.029  0.00  0.00    +0.000 HD
ENDBRANCH  27  30
ENDBRANCH  20  24
ENDBRANCH   3  20
TORSDOF 7
ENDMDL
MODEL 7
REMARK VINA RESULT:      -8.0      1.008      1.462
REMARK  Name = 
REMARK  9 active torsions:
REMARK  status: ('A' for Active; 'I' for Inactive)
REMARK    1  A    between atoms: C_1  and  C_2
REMARK    2  A    between atoms: C_2  and  C_3
REMARK    3  A    between atoms: C_2  and  C_4
REMARK    4  A    between atoms: C_2  and  C_32
REMARK    5  A    between atoms: C_4  and  N_5
REMARK    6  A    between atoms: C_7  and  C_8
REMARK    7  A    between atoms: C_10  and  C_11
REMARK    8  A    between atoms: C_11  and  C_12
REMARK    9  A    between atoms: C_15  and  C_16
REMARK                            x       y       z     vdW  Elec       q    Type
REMARK                         _______ _______ _______ _____ _____    ______ ____
ROOT
ATOM      1  C   UNL     1       2.057   7.724  19.638  0.00  0.00    +0.000 A 
ATOM      2  N   UNL     1       1.735   8.823  18.976  0.00  0.00    +0.000 NA
ATOM      3  C   UNL     1       0.888   9.468  19.844  0.00  0.00    +0.000 A 
ATOM      4  N   UNL     1       0.684   8.825  21.002  0.00  0.00    +0.000 NA
ATOM      5  O   UNL     1       1.459   7.671  20.871  0.00  0.00    +0.000 OA
ENDROOT
BRANCH   1   8
ATOM      6  N   UNL     1       4.163   5.425  17.773  0.00  0.00    +0.000 N 
ATOM      7  C   UNL     1       3.372   6.539  17.807  0.00  0.00    +0.000 A 
ATOM      8  C   UNL     1       2.940   6.661  19.106  0.00  0.00    +0.000 A 
ATOM      9  C   UNL     1       3.504   5.566  19.779  0.00  0.00    +0.000 A 
ATOM     10  N   UNL     1       4.255   4.807  18.971  0.00  0.00    +0.000 NA
BRANCH   6  11
ATOM     11  C   UNL     1       4.809   4.846  16.603  0.00  0.00    +0.000 C 
BRANCH  11  13
ATOM     12  C   UNL     1       6.502   6.738  16.685  0.00  0.00    +0.000 C 
ATOM     13  C   UNL     1       6.295   5.239  16.412  0.00  0.00    +0.000 C 
ATOM     14  C   UNL     1       7.155   4.439  17.410  0.00  0.00    +0.000 C 
BRANCH  13  15
ATOM     15  C   UNL     1       6.744   4.812  15.012  0.00  0.00    +0.000 C 
ATOM     16  N   UNL     1       7.782   5.485  14.443  0.00  0.00    +0.000 N 
ATOM     17  O   UNL     1       6.306   3.812  14.447  0.00  0.00    +0.000 OA
ATOM     18  H   UNL     1       8.031   6.427  14.708  0.00  0.00    +0.000 HD
ATOM     19  H   UNL     1       8.030   5.196  13.504  0.00  0.00    +0.000 HD
ENDBRANCH  13  15
ENDBRANCH  11  13
ENDBRANCH   6  11
ENDBRANCH   1   8
BRANCH   3  20
ATOM     20  C   UNL     1       0.171  10.780  19.484  0.00  0.00    +0.000 C 
ATOM     21  C   UNL     1      -0.780  10.670  18.238  0.00  0.00    +0.000 C 
ATOM     22  C   UNL     1      -1.765  11.580  19.006  0.00  0.00    +0.000 C 
ATOM     23  C   UNL     1      -1.129  11.056  20.314  0.00  0.00    +0.000 C 
BRANCH  20  24
ATOM     24  C   UNL     1       1.259  11.973  19.434  0.00  0.00    +0.000 A 
ATOM     25  C   UNL     1       1.581  12.751  20.554  0.00  0.00    +0.000 A 
ATOM     26  C   UNL     1       2.588  13.714  20.507  0.00  0.00    +0.000 A 
ATOM     27  C   UNL     1       3.283  13.916  19.319  0.00  0.00    +0.000 A 
ATOM     28  N   UNL     1       2.958  13.240  18.195  0.00  0.00    +0.000 NA
ATOM     29  C   UNL     1       1.971  12.310  18.277  0.00  0.00    +0.000 A 
BRANCH  27  30
ATOM     30  C   UNL     1       4.393  14.862  19.212  0.00  0.00    +0.000 A 
ATOM     31  C   UNL     1       4.454  16.054  19.913  0.00  0.00    +0.000 A 
ATOM     32  N   UNL     1       5.432  16.978  19.787  0.00  0.00    +0.000 NA
ATOM     33  C   UNL     1       6.401  16.697  18.916  0.00  0.00    +0.000 A 
ATOM     34  N   UNL     1       7.384  17.644  18.732  0.00  0.00    +0.000 N 
ATOM     35  N   UNL     1       6.498  15.555  18.231  0.00  0.00    +0.000 NA
ATOM     36  C   UNL     1       5.492  14.663  18.398  0.00  0.00    +0.000 A 
ATOM     37  H   UNL     1       7.444  18.237  19.549  0.00  0.00    +0.000 HD
ATOM     38  H   UNL     1       8.230  17.204  18.405  0.00  0.00    +0.000 HD
ENDBRANCH  27  30
ENDBRANCH  20  24
ENDBRANCH   3  20
TORSDOF 7
ENDMDL
MODEL 8
REMARK VINA RESULT:      -7.9      2.170      2.748
REMARK  Name = 
REMARK  9 active torsions:
REMARK  status: ('A' for Active; 'I' for Inactive)
REMARK    1  A    between atoms: C_1  and  C_2
REMARK    2  A    between atoms: C_2  and  C_3
REMARK    3  A    between atoms: C_2  and  C_4
REMARK    4  A    between atoms: C_2  and  C_32
REMARK    5  A    between atoms: C_4  and  N_5
REMARK    6  A    between atoms: C_7  and  C_8
REMARK    7  A    between atoms: C_10  and  C_11
REMARK    8  A    between atoms: C_11  and  C_12
REMARK    9  A    between atoms: C_15  and  C_16
REMARK                            x       y       z     vdW  Elec       q    Type
REMARK                         _______ _______ _______ _____ _____    ______ ____
ROOT
ATOM      1  C   UNL     1       1.129   9.440  19.645  0.00  0.00    +0.000 A 
ATOM      2  N   UNL     1       1.424  10.711  19.430  0.00  0.00    +0.000 NA
ATOM      3  C   UNL     1       0.384  11.375  20.032  0.00  0.00    +0.000 A 
ATOM      4  N   UNL     1      -0.524  10.576  20.610  0.00  0.00    +0.000 NA
ATOM      5  O   UNL     1      -0.033   9.295  20.358  0.00  0.00    +0.000 OA
ENDROOT
BRANCH   1   8
ATOM      6  N   UNL     1       3.009   6.395  19.016  0.00  0.00    +0.000 N 
ATOM      7  C   UNL     1       2.250   7.163  19.854  0.00  0.00    +0.000 A 
ATOM      8  C   UNL     1       1.942   8.304  19.154  0.00  0.00    +0.000 A 
ATOM      9  C   UNL     1       2.573   8.146  17.910  0.00  0.00    +0.000 A 
ATOM     10  N   UNL     1       3.225   6.980  17.817  0.00  0.00    +0.000 NA
BRANCH   6  11
ATOM     11  C   UNL     1       3.627   5.113  19.323  0.00  0.00    +0.000 C 
BRANCH  11  13
ATOM     12  C   UNL     1       1.789   3.639  20.272  0.00  0.00    +0.000 C 
ATOM     13  C   UNL     1       2.729   3.876  19.078  0.00  0.00    +0.000 C 
ATOM     14  C   UNL     1       1.869   4.124  17.823  0.00  0.00    +0.000 C 
BRANCH  13  15
ATOM     15  C   UNL     1       3.620   2.672  18.762  0.00  0.00    +0.000 C 
ATOM     16  N   UNL     1       4.803   2.562  19.427  0.00  0.00    +0.000 N 
ATOM     17  O   UNL     1       3.255   1.741  18.047  0.00  0.00    +0.000 OA
ATOM     18  H   UNL     1       5.278   3.359  19.828  0.00  0.00    +0.000 HD
ATOM     19  H   UNL     1       5.380   1.771  19.168  0.00  0.00    +0.000 HD
ENDBRANCH  13  15
ENDBRANCH  11  13
ENDBRANCH   6  11
ENDBRANCH   1   8
BRANCH   3  20
ATOM     20  C   UNL     1       0.232  12.905  19.980  0.00  0.00    +0.000 C 
ATOM     21  C   UNL     1      -1.003  13.398  19.142  0.00  0.00    +0.000 C 
ATOM     22  C   UNL     1      -1.212  14.476  20.229  0.00  0.00    +0.000 C 
ATOM     23  C   UNL     1      -0.500  13.526  21.219  0.00  0.00    +0.000 C 
BRANCH  20  24
ATOM     24  C   UNL     1       1.655  13.557  19.584  0.00  0.00    +0.000 A 
ATOM     25  C   UNL     1       2.005  13.864  18.261  0.00  0.00    +0.000 A 
ATOM     26  C   UNL     1       3.203  14.509  17.956  0.00  0.00    +0.000 A 
ATOM     27  C   UNL     1       4.077  14.847  18.984  0.00  0.00    +0.000 A 
ATOM     28  N   UNL     1       3.815  14.507  20.266  0.00  0.00    +0.000 NA
ATOM     29  C   UNL     1       2.638  13.879  20.527  0.00  0.00    +0.000 A 
BRANCH  27  30
ATOM     30  C   UNL     1       5.320  15.581  18.747  0.00  0.00    +0.000 A 
ATOM     31  C   UNL     1       6.428  15.030  18.130  0.00  0.00    +0.000 A 
ATOM     32  N   UNL     1       7.612  15.659  17.955  0.00  0.00    +0.000 NA
ATOM     33  C   UNL     1       7.691  16.905  18.421  0.00  0.00    +0.000 A 
ATOM     34  N   UNL     1       8.901  17.552  18.299  0.00  0.00    +0.000 N 
ATOM     35  N   UNL     1       6.676  17.577  18.971  0.00  0.00    +0.000 NA
ATOM     36  C   UNL     1       5.513  16.898  19.118  0.00  0.00    +0.000 A 
ATOM     37  H   UNL     1       9.433  17.143  17.544  0.00  0.00    +0.000 HD
ATOM     38  H   UNL     1       8.759  18.550  18.290  0.00  0.00    +0.000 HD
ENDBRANCH  27  30
ENDBRANCH  20  24
ENDBRANCH   3  20
TORSDOF 7
ENDMDL
MODEL 9
REMARK VINA RESULT:      -7.9      2.296      2.968
REMARK  Name = 
REMARK  9 active torsions:
REMARK  status: ('A' for Active; 'I' for Inactive)
REMARK    1  A    between atoms: C_1  and  C_2
REMARK    2  A    between atoms: C_2  and  C_3
REMARK    3  A    between atoms: C_2  and  C_4
REMARK    4  A    between atoms: C_2  and  C_32
REMARK    5  A    between atoms: C_4  and  N_5
REMARK    6  A    between atoms: C_7  and  C_8
REMARK    7  A    between atoms: C_10  and  C_11
REMARK    8  A    between atoms: C_11  and  C_12
REMARK    9  A    between atoms: C_15  and  C_16
REMARK                            x       y       z     vdW  Elec       q    Type
REMARK                         _______ _______ _______ _____ _____    ______ ____
ROOT
ATOM      1  C   UNL     1       1.312   9.105  18.626  0.00  0.00    +0.000 A 
ATOM      2  N   UNL     1       1.366  10.079  19.519  0.00  0.00    +0.000 NA
ATOM      3  C   UNL     1       0.329  10.897  19.144  0.00  0.00    +0.000 A 
ATOM      4  N   UNL     1      -0.359  10.469  18.076  0.00  0.00    +0.000 NA
ATOM      5  O   UNL     1       0.288   9.282  17.732  0.00  0.00    +0.000 OA
ENDROOT
BRANCH   1   8
ATOM      6  N   UNL     1       3.322   6.104  19.022  0.00  0.00    +0.000 N 
ATOM      7  C   UNL     1       2.299   6.904  19.446  0.00  0.00    +0.000 A 
ATOM      8  C   UNL     1       2.260   7.968  18.577  0.00  0.00    +0.000 A 
ATOM      9  C   UNL     1       3.309   7.734  17.673  0.00  0.00    +0.000 A 
ATOM     10  N   UNL     1       3.961   6.595  17.937  0.00  0.00    +0.000 NA
BRANCH   6  11
ATOM     11  C   UNL     1       3.795   4.880  19.654  0.00  0.00    +0.000 C 
BRANCH  11  13
ATOM     12  C   UNL     1       2.096   3.709  18.174  0.00  0.00    +0.000 C 
ATOM     13  C   UNL     1       2.852   3.660  19.511  0.00  0.00    +0.000 C 
ATOM     14  C   UNL     1       3.695   2.371  19.547  0.00  0.00    +0.000 C 
BRANCH  13  15
ATOM     15  C   UNL     1       1.925   3.606  20.729  0.00  0.00    +0.000 C 
ATOM     16  N   UNL     1       0.582   3.573  20.506  0.00  0.00    +0.000 N 
ATOM     17  O   UNL     1       2.339   3.452  21.876  0.00  0.00    +0.000 OA
ATOM     18  H   UNL     1       0.162   3.926  19.658  0.00  0.00    +0.000 HD
ATOM     19  H   UNL     1       0.000   3.571  21.336  0.00  0.00    +0.000 HD
ENDBRANCH  13  15
ENDBRANCH  11  13
ENDBRANCH   6  11
ENDBRANCH   1   8
BRANCH   3  20
ATOM     20  C   UNL     1       0.030  12.234  19.844  0.00  0.00    +0.000 C 
ATOM     21  C   UNL     1      -1.363  12.857  19.469  0.00  0.00    +0.000 C 
ATOM     22  C   UNL     1      -1.493  13.265  20.953  0.00  0.00    +0.000 C 
ATOM     23  C   UNL     1      -0.547  12.091  21.294  0.00  0.00    +0.000 C 
BRANCH  20  24
ATOM     24  C   UNL     1       1.305  13.210  19.671  0.00  0.00    +0.000 A 
ATOM     25  C   UNL     1       2.147  13.552  20.738  0.00  0.00    +0.000 A 
ATOM     26  C   UNL     1       3.292  14.323  20.544  0.00  0.00    +0.000 A 
ATOM     27  C   UNL     1       3.603  14.773  19.265  0.00  0.00    +0.000 A 
ATOM     28  N   UNL     1       2.783  14.529  18.219  0.00  0.00    +0.000 NA
ATOM     29  C   UNL     1       1.675  13.774  18.445  0.00  0.00    +0.000 A 
BRANCH  27  30
ATOM     30  C   UNL     1       4.820  15.531  18.975  0.00  0.00    +0.000 A 
ATOM     31  C   UNL     1       5.960  14.969  18.428  0.00  0.00    +0.000 A 
ATOM     32  N   UNL     1       7.120  15.626  18.209  0.00  0.00    +0.000 NA
ATOM     33  C   UNL     1       7.143  16.913  18.554  0.00  0.00    +0.000 A 
ATOM     34  N   UNL     1       8.329  17.594  18.387  0.00  0.00    +0.000 N 
ATOM     35  N   UNL     1       6.093  17.592  19.024  0.00  0.00    +0.000 NA
ATOM     36  C   UNL     1       4.955  16.883  19.220  0.00  0.00    +0.000 A 
ATOM     37  H   UNL     1       8.889  17.137  17.681  0.00  0.00    +0.000 HD
ATOM     38  H   UNL     1       8.147  18.580  18.280  0.00  0.00    +0.000 HD
ENDBRANCH  27  30
ENDBRANCH  20  24
ENDBRANCH   3  20
TORSDOF 7
ENDMDL
