MODEL 1
REMARK VINA RESULT:      -6.6      0.000      0.000
REMARK  Name = 
REMARK  8 active torsions:
REMARK  status: ('A' for Active; 'I' for Inactive)
REMARK    1  A    between atoms: C_1  and  C_2
REMARK    2  A    between atoms: N_4  and  O_5
REMARK    3  A    between atoms: N_4  and  C_6
REMARK    4  A    between atoms: C_6  and  C_7
REMARK    5  A    between atoms: C_8  and  C_9
REMARK    6  A    between atoms: C_8  and  P_14
REMARK    7  A    between atoms: P_14  and  O_16
REMARK    8  A    between atoms: P_14  and  O_17
REMARK                            x       y       z     vdW  Elec       q    Type
REMARK                         _______ _______ _______ _____ _____    ______ ____
ROOT
ATOM      1  C   UNL     1       4.669   5.235  16.572  0.00  0.00    +0.000 C 
ATOM      2  C   UNL     1       4.208   5.167  17.850  0.00  0.00    +0.000 C 
ENDROOT
BRANCH   2   3
ATOM      3  C   UNL     1       3.397   6.211  18.426  0.00  0.00    +0.000 A 
ATOM      4  C   UNL     1       3.062   7.447  17.779  0.00  0.00    +0.000 A 
ATOM      5  C   UNL     1       2.235   8.240  18.544  0.00  0.00    +0.000 A 
ATOM      6  S   UNL     1       1.868   7.515  20.045  0.00  0.00    +0.000 S 
ATOM      7  C   UNL     1       2.803   6.127  19.671  0.00  0.00    +0.000 A 
ENDBRANCH   2   3
BRANCH   2   8
ATOM      8  P   UNL     1       4.624   3.769  18.955  0.00  0.00    +0.000 P 
ATOM      9  O   UNL     1       4.059   2.697  18.005  0.00  0.00    +0.000 OA
BRANCH   8  10
ATOM     10  O   UNL     1       6.228   3.861  18.655  0.00  0.00    +0.000 OA
ATOM     11  H   UNL     1       6.656   3.004  18.461  0.00  0.00    +0.000 HD
ENDBRANCH   8  10
BRANCH   8  12
ATOM     12  O   UNL     1       5.017   2.447  20.000  0.00  0.00    +0.000 OA
ATOM     13  H   UNL     1       4.251   2.428  20.610  0.00  0.00    +0.000 HD
ENDBRANCH   8  12
ENDBRANCH   2   8
BRANCH   1  14
ATOM     14  C   UNL     1       5.427   4.176  15.815  0.00  0.00    +0.000 C 
BRANCH  14  18
ATOM     15  C   UNL     1       6.363   3.964  13.016  0.00  0.00    +0.000 C 
ATOM     16  C   UNL     1       7.117   4.774  14.037  0.00  0.00    +0.000 C 
ATOM     17  O   UNL     1       8.056   5.515  13.726  0.00  0.00    +0.000 OA
ATOM     18  N   UNL     1       6.741   4.624  15.362  0.00  0.00    +0.000 N 
BRANCH  18  19
ATOM     19  O   UNL     1       7.405   5.517  16.250  0.00  0.00    +0.000 OA
ATOM     20  H   UNL     1       8.205   4.998  16.486  0.00  0.00    +0.000 HD
ENDBRANCH  18  19
ENDBRANCH  14  18
ENDBRANCH   1  14
TORSDOF 7
ENDMDL
MODEL 2
REMARK VINA RESULT:      -6.5      0.642      1.022
REMARK  Name = 
REMARK  8 active torsions:
REMARK  status: ('A' for Active; 'I' for Inactive)
REMARK    1  A    between atoms: C_1  and  C_2
REMARK    2  A    between atoms: N_4  and  O_5
REMARK    3  A    between atoms: N_4  and  C_6
REMARK    4  A    between atoms: C_6  and  C_7
REMARK    5  A    between atoms: C_8  and  C_9
REMARK    6  A    between atoms: C_8  and  P_14
REMARK    7  A    between atoms: P_14  and  O_16
REMARK    8  A    between atoms: P_14  and  O_17
REMARK                            x       y       z     vdW  Elec       q    Type
REMARK                         _______ _______ _______ _____ _____    ______ ____
ROOT
ATOM      1  C   UNL     1       4.747   5.284  16.361  0.00  0.00    +0.000 C 
ATOM      2  C   UNL     1       4.283   5.247  17.639  0.00  0.00    +0.000 C 
ENDROOT
BRANCH   2   3
ATOM      3  C   UNL     1       3.446   6.289  18.179  0.00  0.00    +0.000 A 
ATOM      4  C   UNL     1       2.820   6.259  19.470  0.00  0.00    +0.000 A 
ATOM      5  C   UNL     1       2.114   7.409  19.745  0.00  0.00    +0.000 A 
ATOM      6  S   UNL     1       2.184   8.523  18.454  0.00  0.00    +0.000 S 
ATOM      7  C   UNL     1       3.176   7.476  17.525  0.00  0.00    +0.000 A 
ENDBRANCH   2   3
BRANCH   2   8
ATOM      8  P   UNL     1       4.729   3.896  18.790  0.00  0.00    +0.000 P 
ATOM      9  O   UNL     1       4.100   2.790  17.922  0.00  0.00    +0.000 OA
BRANCH   8  10
ATOM     10  O   UNL     1       6.317   3.942  18.410  0.00  0.00    +0.000 OA
ATOM     11  H   UNL     1       6.526   4.427  17.588  0.00  0.00    +0.000 HD
ENDBRANCH   8  10
BRANCH   8  12
ATOM     12  O   UNL     1       5.150   2.618  19.879  0.00  0.00    +0.000 OA
ATOM     13  H   UNL     1       5.038   1.823  19.320  0.00  0.00    +0.000 HD
ENDBRANCH   8  12
ENDBRANCH   2   8
BRANCH   1  14
ATOM     14  C   UNL     1       5.533   4.219  15.641  0.00  0.00    +0.000 C 
BRANCH  14  18
ATOM     15  C   UNL     1       6.355   3.803  12.829  0.00  0.00    +0.000 C 
ATOM     16  C   UNL     1       7.091   4.760  13.729  0.00  0.00    +0.000 C 
ATOM     17  O   UNL     1       7.956   5.532  13.301  0.00  0.00    +0.000 OA
ATOM     18  N   UNL     1       6.787   4.713  15.079  0.00  0.00    +0.000 N 
BRANCH  18  19
ATOM     19  O   UNL     1       7.422   5.733  15.844  0.00  0.00    +0.000 OA
ATOM     20  H   UNL     1       8.287   5.315  16.047  0.00  0.00    +0.000 HD
ENDBRANCH  18  19
ENDBRANCH  14  18
ENDBRANCH   1  14
TORSDOF 7
ENDMDL
MODEL 3
REMARK VINA RESULT:      -6.3      1.318      1.811
REMARK  Name = 
REMARK  8 active torsions:
REMARK  status: ('A' for Active; 'I' for Inactive)
REMARK    1  A    between atoms: C_1  and  C_2
REMARK    2  A    between atoms: N_4  and  O_5
REMARK    3  A    between atoms: N_4  and  C_6
REMARK    4  A    between atoms: C_6  and  C_7
REMARK    5  A    between atoms: C_8  and  C_9
REMARK    6  A    between atoms: C_8  and  P_14
REMARK    7  A    between atoms: P_14  and  O_16
REMARK    8  A    between atoms: P_14  and  O_17
REMARK                            x       y       z     vdW  Elec       q    Type
REMARK                         _______ _______ _______ _____ _____    ______ ____
ROOT
ATOM      1  C   UNL     1       4.889   5.092  17.330  0.00  0.00    +0.000 C 
ATOM      2  C   UNL     1       3.622   5.022  17.820  0.00  0.00    +0.000 C 
ENDROOT
BRANCH   2   3
ATOM      3  C   UNL     1       2.987   6.147  18.461  0.00  0.00    +0.000 A 
ATOM      4  C   UNL     1       2.642   7.379  17.811  0.00  0.00    +0.000 A 
ATOM      5  C   UNL     1       2.003   8.262  18.654  0.00  0.00    +0.000 A 
ATOM      6  S   UNL     1       1.826   7.627  20.228  0.00  0.00    +0.000 S 
ATOM      7  C   UNL     1       2.591   6.157  19.784  0.00  0.00    +0.000 A 
ENDBRANCH   2   3
BRANCH   2   8
ATOM      8  P   UNL     1       2.642   3.478  17.750  0.00  0.00    +0.000 P 
ATOM      9  O   UNL     1       2.710   3.227  19.268  0.00  0.00    +0.000 OA
BRANCH   8  10
ATOM     10  O   UNL     1       1.231   4.251  17.467  0.00  0.00    +0.000 OA
ATOM     11  H   UNL     1       0.866   4.118  16.571  0.00  0.00    +0.000 HD
ENDBRANCH   8  10
BRANCH   8  12
ATOM     12  O   UNL     1       1.717   2.017  17.684  0.00  0.00    +0.000 OA
ATOM     13  H   UNL     1       1.068   2.148  18.405  0.00  0.00    +0.000 HD
ENDBRANCH   8  12
ENDBRANCH   2   8
BRANCH   1  14
ATOM     14  C   UNL     1       5.627   4.038  16.548  0.00  0.00    +0.000 C 
BRANCH  14  18
ATOM     15  C   UNL     1       6.128   3.928  13.633  0.00  0.00    +0.000 C 
ATOM     16  C   UNL     1       7.007   4.737  14.551  0.00  0.00    +0.000 C 
ATOM     17  O   UNL     1       7.865   5.516  14.123  0.00  0.00    +0.000 OA
ATOM     18  N   UNL     1       6.843   4.541  15.912  0.00  0.00    +0.000 N 
BRANCH  18  19
ATOM     19  O   UNL     1       7.609   5.433  16.715  0.00  0.00    +0.000 OA
ATOM     20  H   UNL     1       8.429   4.910  16.859  0.00  0.00    +0.000 HD
ENDBRANCH  18  19
ENDBRANCH  14  18
ENDBRANCH   1  14
TORSDOF 7
ENDMDL
MODEL 4
REMARK VINA RESULT:      -6.3      1.358      1.995
REMARK  Name = 
REMARK  8 active torsions:
REMARK  status: ('A' for Active; 'I' for Inactive)
REMARK    1  A    between atoms: C_1  and  C_2
REMARK    2  A    between atoms: N_4  and  O_5
REMARK    3  A    between atoms: N_4  and  C_6
REMARK    4  A    between atoms: C_6  and  C_7
REMARK    5  A    between atoms: C_8  and  C_9
REMARK    6  A    between atoms: C_8  and  P_14
REMARK    7  A    between atoms: P_14  and  O_16
REMARK    8  A    between atoms: P_14  and  O_17
REMARK                            x       y       z     vdW  Elec       q    Type
REMARK                         _______ _______ _______ _____ _____    ______ ____
ROOT
ATOM      1  C   UNL     1       4.843   5.341  16.962  0.00  0.00    +0.000 C 
ATOM      2  C   UNL     1       3.627   5.201  17.555  0.00  0.00    +0.000 C 
ENDROOT
BRANCH   2   3
ATOM      3  C   UNL     1       2.968   6.300  18.216  0.00  0.00    +0.000 A 
ATOM      4  C   UNL     1       2.623   6.337  19.609  0.00  0.00    +0.000 A 
ATOM      5  C   UNL     1       2.043   7.530  19.980  0.00  0.00    +0.000 A 
ATOM      6  S   UNL     1       1.894   8.604  18.661  0.00  0.00    +0.000 S 
ATOM      7  C   UNL     1       2.623   7.481  17.588  0.00  0.00    +0.000 A 
ENDBRANCH   2   3
BRANCH   2   8
ATOM      8  P   UNL     1       2.756   3.593  17.605  0.00  0.00    +0.000 P 
ATOM      9  O   UNL     1       2.992   3.378  19.111  0.00  0.00    +0.000 OA
BRANCH   8  10
ATOM     10  O   UNL     1       1.273   4.262  17.455  0.00  0.00    +0.000 OA
ATOM     11  H   UNL     1       0.654   3.760  16.891  0.00  0.00    +0.000 HD
ENDBRANCH   8  10
BRANCH   8  12
ATOM     12  O   UNL     1       1.932   2.071  17.652  0.00  0.00    +0.000 OA
ATOM     13  H   UNL     1       2.673   1.434  17.695  0.00  0.00    +0.000 HD
ENDBRANCH   8  12
ENDBRANCH   2   8
BRANCH   1  14
ATOM     14  C   UNL     1       5.589   4.315  16.150  0.00  0.00    +0.000 C 
BRANCH  14  18
ATOM     15  C   UNL     1       6.359   3.827  13.335  0.00  0.00    +0.000 C 
ATOM     16  C   UNL     1       7.073   4.850  14.178  0.00  0.00    +0.000 C 
ATOM     17  O   UNL     1       7.892   5.643  13.699  0.00  0.00    +0.000 OA
ATOM     18  N   UNL     1       6.806   4.842  15.537  0.00  0.00    +0.000 N 
BRANCH  18  19
ATOM     19  O   UNL     1       7.412   5.918  16.246  0.00  0.00    +0.000 OA
ATOM     20  H   UNL     1       7.030   6.696  15.784  0.00  0.00    +0.000 HD
ENDBRANCH  18  19
ENDBRANCH  14  18
ENDBRANCH   1  14
TORSDOF 7
ENDMDL
MODEL 5
REMARK VINA RESULT:      -6.3      3.412      5.638
REMARK  Name = 
REMARK  8 active torsions:
REMARK  status: ('A' for Active; 'I' for Inactive)
REMARK    1  A    between atoms: C_1  and  C_2
REMARK    2  A    between atoms: N_4  and  O_5
REMARK    3  A    between atoms: N_4  and  C_6
REMARK    4  A    between atoms: C_6  and  C_7
REMARK    5  A    between atoms: C_8  and  C_9
REMARK    6  A    between atoms: C_8  and  P_14
REMARK    7  A    between atoms: P_14  and  O_16
REMARK    8  A    between atoms: P_14  and  O_17
REMARK                            x       y       z     vdW  Elec       q    Type
REMARK                         _______ _______ _______ _____ _____    ______ ____
ROOT
ATOM      1  C   UNL     1       3.143   5.808  18.944  0.00  0.00    +0.000 C 
ATOM      2  C   UNL     1       4.240   5.120  18.526  0.00  0.00    +0.000 C 
ENDROOT
BRANCH   2   3
ATOM      3  C   UNL     1       5.528   5.750  18.379  0.00  0.00    +0.000 A 
ATOM      4  C   UNL     1       6.674   5.486  19.202  0.00  0.00    +0.000 A 
ATOM      5  C   UNL     1       7.785   6.198  18.808  0.00  0.00    +0.000 A 
ATOM      6  S   UNL     1       7.460   7.194  17.461  0.00  0.00    +0.000 S 
ATOM      7  C   UNL     1       5.829   6.665  17.389  0.00  0.00    +0.000 A 
ENDBRANCH   2   3
BRANCH   2   8
ATOM      8  P   UNL     1       4.153   3.350  18.067  0.00  0.00    +0.000 P 
ATOM      9  O   UNL     1       5.030   3.512  16.811  0.00  0.00    +0.000 OA
BRANCH   8  10
ATOM     10  O   UNL     1       5.147   2.871  19.272  0.00  0.00    +0.000 OA
ATOM     11  H   UNL     1       4.976   3.297  20.135  0.00  0.00    +0.000 HD
ENDBRANCH   8  10
BRANCH   8  12
ATOM     12  O   UNL     1       4.071   1.677  17.632  0.00  0.00    +0.000 OA
ATOM     13  H   UNL     1       5.005   1.470  17.424  0.00  0.00    +0.000 HD
ENDBRANCH   8  12
ENDBRANCH   2   8
BRANCH   1  14
ATOM     14  C   UNL     1       1.774   5.255  19.242  0.00  0.00    +0.000 C 
BRANCH  14  18
ATOM     15  C   UNL     1       0.745   2.531  19.770  0.00  0.00    +0.000 C 
ATOM     16  C   UNL     1       1.437   3.331  20.843  0.00  0.00    +0.000 C 
ATOM     17  O   UNL     1       1.754   2.837  21.930  0.00  0.00    +0.000 OA
ATOM     18  N   UNL     1       1.670   4.670  20.577  0.00  0.00    +0.000 N 
BRANCH  18  19
ATOM     19  O   UNL     1       2.443   5.325  21.577  0.00  0.00    +0.000 OA
ATOM     20  H   UNL     1       3.277   4.806  21.551  0.00  0.00    +0.000 HD
ENDBRANCH  18  19
ENDBRANCH  14  18
ENDBRANCH   1  14
TORSDOF 7
ENDMDL
MODEL 6
REMARK VINA RESULT:      -6.2      3.130      3.712
REMARK  Name = 
REMARK  8 active torsions:
REMARK  status: ('A' for Active; 'I' for Inactive)
REMARK    1  A    between atoms: C_1  and  C_2
REMARK    2  A    between atoms: N_4  and  O_5
REMARK    3  A    between atoms: N_4  and  C_6
REMARK    4  A    between atoms: C_6  and  C_7
REMARK    5  A    between atoms: C_8  and  C_9
REMARK    6  A    between atoms: C_8  and  P_14
REMARK    7  A    between atoms: P_14  and  O_16
REMARK    8  A    between atoms: P_14  and  O_17
REMARK                            x       y       z     vdW  Elec       q    Type
REMARK                         _______ _______ _______ _____ _____    ______ ____
ROOT
ATOM      1  C   UNL     1       5.148   4.400  19.036  0.00  0.00    +0.000 C 
ATOM      2  C   UNL     1       3.849   4.771  19.193  0.00  0.00    +0.000 C 
ENDROOT
BRANCH   2   3
ATOM      3  C   UNL     1       2.875   3.901  19.805  0.00  0.00    +0.000 A 
ATOM      4  C   UNL     1       2.150   2.866  19.123  0.00  0.00    +0.000 A 
ATOM      5  C   UNL     1       1.318   2.160  19.964  0.00  0.00    +0.000 A 
ATOM      6  S   UNL     1       1.389   2.741  21.567  0.00  0.00    +0.000 S 
ATOM      7  C   UNL     1       2.549   3.933  21.147  0.00  0.00    +0.000 A 
ENDBRANCH   2   3
BRANCH   2   8
ATOM      8  P   UNL     1       3.225   6.383  18.595  0.00  0.00    +0.000 P 
ATOM      9  O   UNL     1       2.025   5.773  17.846  0.00  0.00    +0.000 OA
BRANCH   8  10
ATOM     10  O   UNL     1       2.674   6.844  20.062  0.00  0.00    +0.000 OA
ATOM     11  H   UNL     1       2.693   7.808  20.221  0.00  0.00    +0.000 HD
ENDBRANCH   8  10
BRANCH   8  12
ATOM     12  O   UNL     1       2.634   7.908  18.028  0.00  0.00    +0.000 OA
ATOM     13  H   UNL     1       1.952   8.129  18.695  0.00  0.00    +0.000 HD
ENDBRANCH   8  12
ENDBRANCH   2   8
BRANCH   1  14
ATOM     14  C   UNL     1       6.284   5.243  18.518  0.00  0.00    +0.000 C 
BRANCH  14  18
ATOM     15  C   UNL     1       5.565   5.818  15.706  0.00  0.00    +0.000 C 
ATOM     16  C   UNL     1       6.828   5.076  16.058  0.00  0.00    +0.000 C 
ATOM     17  O   UNL     1       7.697   4.821  15.217  0.00  0.00    +0.000 OA
ATOM     18  N   UNL     1       6.962   4.649  17.368  0.00  0.00    +0.000 N 
BRANCH  18  19
ATOM     19  O   UNL     1       8.233   4.076  17.656  0.00  0.00    +0.000 OA
ATOM     20  H   UNL     1       8.100   3.148  17.362  0.00  0.00    +0.000 HD
ENDBRANCH  18  19
ENDBRANCH  14  18
ENDBRANCH   1  14
TORSDOF 7
ENDMDL
MODEL 7
REMARK VINA RESULT:      -6.2      3.733      5.973
REMARK  Name = 
REMARK  8 active torsions:
REMARK  status: ('A' for Active; 'I' for Inactive)
REMARK    1  A    between atoms: C_1  and  C_2
REMARK    2  A    between atoms: N_4  and  O_5
REMARK    3  A    between atoms: N_4  and  C_6
REMARK    4  A    between atoms: C_6  and  C_7
REMARK    5  A    between atoms: C_8  and  C_9
REMARK    6  A    between atoms: C_8  and  P_14
REMARK    7  A    between atoms: P_14  and  O_16
REMARK    8  A    between atoms: P_14  and  O_17
REMARK                            x       y       z     vdW  Elec       q    Type
REMARK                         _______ _______ _______ _____ _____    ______ ____
ROOT
ATOM      1  C   UNL     1       4.588   3.212  18.742  0.00  0.00    +0.000 C 
ATOM      2  C   UNL     1       4.627   4.359  18.010  0.00  0.00    +0.000 C 
ENDROOT
BRANCH   2   3
ATOM      3  C   UNL     1       5.477   4.500  16.854  0.00  0.00    +0.000 A 
ATOM      4  C   UNL     1       6.864   4.864  16.891  0.00  0.00    +0.000 A 
ATOM      5  C   UNL     1       7.442   4.878  15.640  0.00  0.00    +0.000 A 
ATOM      6  S   UNL     1       6.323   4.471  14.417  0.00  0.00    +0.000 S 
ATOM      7  C   UNL     1       5.062   4.257  15.559  0.00  0.00    +0.000 A 
ENDBRANCH   2   3
BRANCH   2   8
ATOM      8  P   UNL     1       3.640   5.830  18.468  0.00  0.00    +0.000 P 
ATOM      9  O   UNL     1       4.391   6.776  17.513  0.00  0.00    +0.000 OA
BRANCH   8  10
ATOM     10  O   UNL     1       2.306   5.325  17.670  0.00  0.00    +0.000 OA
ATOM     11  H   UNL     1       1.969   4.452  17.951  0.00  0.00    +0.000 HD
ENDBRANCH   8  10
BRANCH   8  12
ATOM     12  O   UNL     1       2.706   7.222  18.900  0.00  0.00    +0.000 OA
ATOM     13  H   UNL     1       3.296   7.679  19.535  0.00  0.00    +0.000 HD
ENDBRANCH   8  12
ENDBRANCH   2   8
BRANCH   1  14
ATOM     14  C   UNL     1       3.675   2.893  19.897  0.00  0.00    +0.000 C 
BRANCH  14  18
ATOM     15  C   UNL     1       0.947   3.834  20.548  0.00  0.00    +0.000 C 
ATOM     16  C   UNL     1       1.179   2.728  19.554  0.00  0.00    +0.000 C 
ATOM     17  O   UNL     1       0.271   2.277  18.846  0.00  0.00    +0.000 OA
ATOM     18  N   UNL     1       2.457   2.198  19.490  0.00  0.00    +0.000 N 
BRANCH  18  19
ATOM     19  O   UNL     1       2.633   1.253  18.439  0.00  0.00    +0.000 OA
ATOM     20  H   UNL     1       1.908   1.506  17.826  0.00  0.00    +0.000 HD
ENDBRANCH  18  19
ENDBRANCH  14  18
ENDBRANCH   1  14
TORSDOF 7
ENDMDL
MODEL 8
REMARK VINA RESULT:      -6.2      0.840      1.313
REMARK  Name = 
REMARK  8 active torsions:
REMARK  status: ('A' for Active; 'I' for Inactive)
REMARK    1  A    between atoms: C_1  and  C_2
REMARK    2  A    between atoms: N_4  and  O_5
REMARK    3  A    between atoms: N_4  and  C_6
REMARK    4  A    between atoms: C_6  and  C_7
REMARK    5  A    between atoms: C_8  and  C_9
REMARK    6  A    between atoms: C_8  and  P_14
REMARK    7  A    between atoms: P_14  and  O_16
REMARK    8  A    between atoms: P_14  and  O_17
REMARK                            x       y       z     vdW  Elec       q    Type
REMARK                         _______ _______ _______ _____ _____    ______ ____
ROOT
ATOM      1  C   UNL     1       4.135   4.949  17.094  0.00  0.00    +0.000 C 
ATOM      2  C   UNL     1       3.797   4.717  18.391  0.00  0.00    +0.000 C 
ENDROOT
BRANCH   2   3
ATOM      3  C   UNL     1       2.957   5.623  19.136  0.00  0.00    +0.000 A 
ATOM      4  C   UNL     1       2.159   5.262  20.272  0.00  0.00    +0.000 A 
ATOM      5  C   UNL     1       1.492   6.338  20.816  0.00  0.00    +0.000 A 
ATOM      6  S   UNL     1       1.807   7.781  19.961  0.00  0.00    +0.000 S 
ATOM      7  C   UNL     1       2.853   6.974  18.866  0.00  0.00    +0.000 A 
ENDBRANCH   2   3
BRANCH   2   8
ATOM      8  P   UNL     1       4.423   3.263  19.308  0.00  0.00    +0.000 P 
ATOM      9  O   UNL     1       4.000   2.252  18.227  0.00  0.00    +0.000 OA
BRANCH   8  10
ATOM     10  O   UNL     1       5.993   3.618  19.027  0.00  0.00    +0.000 OA
ATOM     11  H   UNL     1       6.454   4.047  19.774  0.00  0.00    +0.000 HD
ENDBRANCH   8  10
BRANCH   8  12
ATOM     12  O   UNL     1       5.015   1.887  20.176  0.00  0.00    +0.000 OA
ATOM     13  H   UNL     1       5.480   2.302  20.932  0.00  0.00    +0.000 HD
ENDBRANCH   8  12
ENDBRANCH   2   8
BRANCH   1  14
ATOM     14  C   UNL     1       4.907   4.041  16.173  0.00  0.00    +0.000 C 
BRANCH  14  18
ATOM     15  C   UNL     1       6.154   3.980  13.490  0.00  0.00    +0.000 C 
ATOM     16  C   UNL     1       6.779   4.742  14.630  0.00  0.00    +0.000 C 
ATOM     17  O   UNL     1       7.737   5.504  14.464  0.00  0.00    +0.000 OA
ATOM     18  N   UNL     1       6.258   4.521  15.894  0.00  0.00    +0.000 N 
BRANCH  18  19
ATOM     19  O   UNL     1       6.808   5.371  16.895  0.00  0.00    +0.000 OA
ATOM     20  H   UNL     1       6.336   6.214  16.716  0.00  0.00    +0.000 HD
ENDBRANCH  18  19
ENDBRANCH  14  18
ENDBRANCH   1  14
TORSDOF 7
ENDMDL
MODEL 9
REMARK VINA RESULT:      -6.1      1.786      2.528
REMARK  Name = 
REMARK  8 active torsions:
REMARK  status: ('A' for Active; 'I' for Inactive)
REMARK    1  A    between atoms: C_1  and  C_2
REMARK    2  A    between atoms: N_4  and  O_5
REMARK    3  A    between atoms: N_4  and  C_6
REMARK    4  A    between atoms: C_6  and  C_7
REMARK    5  A    between atoms: C_8  and  C_9
REMARK    6  A    between atoms: C_8  and  P_14
REMARK    7  A    between atoms: P_14  and  O_16
REMARK    8  A    between atoms: P_14  and  O_17
REMARK                            x       y       z     vdW  Elec       q    Type
REMARK                         _______ _______ _______ _____ _____    ______ ____
ROOT
ATOM      1  C   UNL     1       3.949   5.538  17.356  0.00  0.00    +0.000 C 
ATOM      2  C   UNL     1       2.826   5.645  18.117  0.00  0.00    +0.000 C 
ENDROOT
BRANCH   2   3
ATOM      3  C   UNL     1       2.332   6.919  18.576  0.00  0.00    +0.000 A 
ATOM      4  C   UNL     1       2.003   7.235  19.937  0.00  0.00    +0.000 A 
ATOM      5  C   UNL     1       1.598   8.542  20.095  0.00  0.00    +0.000 A 
ATOM      6  S   UNL     1       1.595   9.392  18.614  0.00  0.00    +0.000 S 
ATOM      7  C   UNL     1       2.153   8.016  17.755  0.00  0.00    +0.000 A 
ENDBRANCH   2   3
BRANCH   2   8
ATOM      8  P   UNL     1       1.885   4.173  18.662  0.00  0.00    +0.000 P 
ATOM      9  O   UNL     1       1.650   3.649  17.233  0.00  0.00    +0.000 OA
BRANCH   8  10
ATOM     10  O   UNL     1       3.205   3.398  19.233  0.00  0.00    +0.000 OA
ATOM     11  H   UNL     1       3.668   2.843  18.576  0.00  0.00    +0.000 HD
ENDBRANCH   8  10
BRANCH   8  12
ATOM     12  O   UNL     1       0.993   2.782  19.177  0.00  0.00    +0.000 OA
ATOM     13  H   UNL     1       1.416   2.062  18.665  0.00  0.00    +0.000 HD
ENDBRANCH   8  12
ENDBRANCH   2   8
BRANCH   1  14
ATOM     14  C   UNL     1       4.511   4.292  16.724  0.00  0.00    +0.000 C 
BRANCH  14  18
ATOM     15  C   UNL     1       6.911   4.663  15.033  0.00  0.00    +0.000 C 
ATOM     16  C   UNL     1       7.025   4.378  16.507  0.00  0.00    +0.000 C 
ATOM     17  O   UNL     1       8.102   4.450  17.109  0.00  0.00    +0.000 OA
ATOM     18  N   UNL     1       5.870   3.988  17.164  0.00  0.00    +0.000 N 
BRANCH  18  19
ATOM     19  O   UNL     1       6.027   3.867  18.574  0.00  0.00    +0.000 OA
ATOM     20  H   UNL     1       6.823   4.420  18.730  0.00  0.00    +0.000 HD
ENDBRANCH  18  19
ENDBRANCH  14  18
ENDBRANCH   1  14
TORSDOF 7
ENDMDL
