MODEL 1
REMARK VINA RESULT:      -6.8      0.000      0.000
REMARK  Name = 
REMARK  9 active torsions:
REMARK  status: ('A' for Active; 'I' for Inactive)
REMARK    1  A    between atoms: C_1  and  C_2
REMARK    2  A    between atoms: C_2  and  O_3
REMARK    3  A    between atoms: O_3  and  C_4
REMARK    4  A    between atoms: C_4  and  C_6
REMARK    5  A    between atoms: C_10  and  C_12
REMARK    6  A    between atoms: C_12  and  S_13
REMARK    7  A    between atoms: S_13  and  C_14
REMARK    8  A    between atoms: C_18  and  C_19
REMARK    9  A    between atoms: C_22  and  C_23
REMARK                            x       y       z     vdW  Elec       q    Type
REMARK                         _______ _______ _______ _____ _____    ______ ____
ROOT
ATOM      1  C   UNL     1       3.502   4.808  19.453  0.00  0.00    +0.000 A 
ATOM      2  S   UNL     1       3.522   6.301  18.612  0.00  0.00    +0.000 S 
ATOM      3  C   UNL     1       2.286   6.894  19.610  0.00  0.00    +0.000 A 
ATOM      4  N   UNL     1       1.764   8.153  19.455  0.00  0.00    +0.000 N 
ATOM      5  C   UNL     1       1.969   8.994  18.382  0.00  0.00    +0.000 C 
ATOM      6  O   UNL     1       2.504   8.683  17.319  0.00  0.00    +0.000 OA
ATOM      7  N   UNL     1       1.901   6.094  20.575  0.00  0.00    +0.000 NA
ATOM      8  C   UNL     1       2.569   4.874  20.479  0.00  0.00    +0.000 A 
ATOM      9  C   UNL     1       2.202   3.804  21.447  0.00  0.00    +0.000 C 
ATOM     10  H   UNL     1       1.148   8.443  20.206  0.00  0.00    +0.000 HD
ENDROOT
BRANCH   1  11
ATOM     11  C   UNL     1       4.352   3.744  18.975  0.00  0.00    +0.000 C 
ATOM     12  O   UNL     1       5.279   3.227  19.589  0.00  0.00    +0.000 OA
BRANCH  11  13
ATOM     13  O   UNL     1       4.044   3.445  17.680  0.00  0.00    +0.000 OA
BRANCH  13  15
ATOM     14  C   UNL     1       2.775   1.571  18.434  0.00  0.00    +0.000 C 
ATOM     15  C   UNL     1       2.799   2.762  17.493  0.00  0.00    +0.000 C 
ENDBRANCH  13  15
ENDBRANCH  11  13
ENDBRANCH   1  11
BRANCH   5  16
ATOM     16  C   UNL     1       1.346  10.375  18.509  0.00  0.00    +0.000 C 
BRANCH  16  17
ATOM     17  S   UNL     1      -0.456  10.385  18.700  0.00  0.00    +0.000 S 
BRANCH  17  18
ATOM     18  C   UNL     1      -0.588  10.445  20.469  0.00  0.00    +0.000 A 
ATOM     19  N   UNL     1      -0.326   9.294  21.107  0.00  0.00    +0.000 NA
ATOM     20  C   UNL     1      -0.419   9.318  22.449  0.00  0.00    +0.000 A 
ATOM     21  C   UNL     1      -0.753  10.442  23.161  0.00  0.00    +0.000 A 
ATOM     22  C   UNL     1      -1.003  11.581  22.421  0.00  0.00    +0.000 A 
ATOM     23  C   UNL     1      -1.373  12.865  23.102  0.00  0.00    +0.000 C 
ATOM     24  N   UNL     1      -0.924  11.598  21.070  0.00  0.00    +0.000 NA
ENDBRANCH  17  18
ENDBRANCH  16  17
ENDBRANCH   5  16
TORSDOF 6
ENDMDL
MODEL 2
REMARK VINA RESULT:      -6.8      4.180      6.288
REMARK  Name = 
REMARK  9 active torsions:
REMARK  status: ('A' for Active; 'I' for Inactive)
REMARK    1  A    between atoms: C_1  and  C_2
REMARK    2  A    between atoms: C_2  and  O_3
REMARK    3  A    between atoms: O_3  and  C_4
REMARK    4  A    between atoms: C_4  and  C_6
REMARK    5  A    between atoms: C_10  and  C_12
REMARK    6  A    between atoms: C_12  and  S_13
REMARK    7  A    between atoms: S_13  and  C_14
REMARK    8  A    between atoms: C_18  and  C_19
REMARK    9  A    between atoms: C_22  and  C_23
REMARK                            x       y       z     vdW  Elec       q    Type
REMARK                         _______ _______ _______ _____ _____    ______ ____
ROOT
ATOM      1  C   UNL     1       6.450   4.853  16.865  0.00  0.00    +0.000 A 
ATOM      2  S   UNL     1       5.351   3.653  17.405  0.00  0.00    +0.000 S 
ATOM      3  C   UNL     1       5.406   4.291  18.975  0.00  0.00    +0.000 A 
ATOM      4  N   UNL     1       4.696   3.741  20.011  0.00  0.00    +0.000 N 
ATOM      5  C   UNL     1       4.062   2.517  20.004  0.00  0.00    +0.000 C 
ATOM      6  O   UNL     1       4.180   1.652  19.138  0.00  0.00    +0.000 OA
ATOM      7  N   UNL     1       6.124   5.379  19.122  0.00  0.00    +0.000 NA
ATOM      8  C   UNL     1       6.759   5.698  17.923  0.00  0.00    +0.000 A 
ATOM      9  C   UNL     1       7.686   6.863  17.918  0.00  0.00    +0.000 C 
ATOM     10  H   UNL     1       4.688   4.302  20.854  0.00  0.00    +0.000 HD
ENDROOT
BRANCH   1  11
ATOM     11  C   UNL     1       6.915   4.789  15.500  0.00  0.00    +0.000 C 
ATOM     12  O   UNL     1       7.649   5.600  14.947  0.00  0.00    +0.000 OA
BRANCH  11  13
ATOM     13  O   UNL     1       6.339   3.732  14.860  0.00  0.00    +0.000 OA
BRANCH  13  15
ATOM     14  C   UNL     1       6.284   3.427  12.494  0.00  0.00    +0.000 C 
ATOM     15  C   UNL     1       5.592   4.067  13.684  0.00  0.00    +0.000 C 
ENDBRANCH  13  15
ENDBRANCH  11  13
ENDBRANCH   1  11
BRANCH   5  16
ATOM     16  C   UNL     1       3.265   2.190  21.258  0.00  0.00    +0.000 C 
BRANCH  16  17
ATOM     17  S   UNL     1       1.587   2.873  21.295  0.00  0.00    +0.000 S 
BRANCH  17  18
ATOM     18  C   UNL     1       1.686   4.033  19.956  0.00  0.00    +0.000 A 
ATOM     19  N   UNL     1       1.457   3.526  18.735  0.00  0.00    +0.000 NA
ATOM     20  C   UNL     1       1.526   4.390  17.705  0.00  0.00    +0.000 A 
ATOM     21  C   UNL     1       1.804   5.724  17.859  0.00  0.00    +0.000 A 
ATOM     22  C   UNL     1       2.023   6.157  19.152  0.00  0.00    +0.000 A 
ATOM     23  C   UNL     1       2.333   7.599  19.429  0.00  0.00    +0.000 C 
ATOM     24  N   UNL     1       1.968   5.321  20.214  0.00  0.00    +0.000 NA
ENDBRANCH  17  18
ENDBRANCH  16  17
ENDBRANCH   5  16
TORSDOF 6
ENDMDL
MODEL 3
REMARK VINA RESULT:      -6.8      4.404      9.091
REMARK  Name = 
REMARK  9 active torsions:
REMARK  status: ('A' for Active; 'I' for Inactive)
REMARK    1  A    between atoms: C_1  and  C_2
REMARK    2  A    between atoms: C_2  and  O_3
REMARK    3  A    between atoms: O_3  and  C_4
REMARK    4  A    between atoms: C_4  and  C_6
REMARK    5  A    between atoms: C_10  and  C_12
REMARK    6  A    between atoms: C_12  and  S_13
REMARK    7  A    between atoms: S_13  and  C_14
REMARK    8  A    between atoms: C_18  and  C_19
REMARK    9  A    between atoms: C_22  and  C_23
REMARK                            x       y       z     vdW  Elec       q    Type
REMARK                         _______ _______ _______ _____ _____    ______ ____
ROOT
ATOM      1  C   UNL     1       1.527   8.951  19.185  0.00  0.00    +0.000 A 
ATOM      2  S   UNL     1       2.373   8.299  17.845  0.00  0.00    +0.000 S 
ATOM      3  C   UNL     1       2.829   6.953  18.772  0.00  0.00    +0.000 A 
ATOM      4  N   UNL     1       3.608   5.946  18.263  0.00  0.00    +0.000 N 
ATOM      5  C   UNL     1       4.307   5.980  17.074  0.00  0.00    +0.000 C 
ATOM      6  O   UNL     1       4.486   6.975  16.374  0.00  0.00    +0.000 OA
ATOM      7  N   UNL     1       2.340   6.909  19.989  0.00  0.00    +0.000 NA
ATOM      8  C   UNL     1       1.615   8.069  20.254  0.00  0.00    +0.000 A 
ATOM      9  C   UNL     1       1.048   8.235  21.621  0.00  0.00    +0.000 C 
ATOM     10  H   UNL     1       3.678   5.132  18.860  0.00  0.00    +0.000 HD
ENDROOT
BRANCH   1  11
ATOM     11  C   UNL     1       0.933  10.260  19.046  0.00  0.00    +0.000 C 
ATOM     12  O   UNL     1       1.144  11.230  19.766  0.00  0.00    +0.000 OA
BRANCH  11  13
ATOM     13  O   UNL     1       0.010  10.250  18.042  0.00  0.00    +0.000 OA
BRANCH  13  15
ATOM     14  C   UNL     1      -2.307   9.898  17.597  0.00  0.00    +0.000 C 
ATOM     15  C   UNL     1      -1.302  10.685  18.419  0.00  0.00    +0.000 C 
ENDBRANCH  13  15
ENDBRANCH  11  13
ENDBRANCH   1  11
BRANCH   5  16
ATOM     16  C   UNL     1       5.018   4.688  16.702  0.00  0.00    +0.000 C 
BRANCH  16  17
ATOM     17  S   UNL     1       6.814   4.832  16.513  0.00  0.00    +0.000 S 
BRANCH  17  18
ATOM     18  C   UNL     1       6.962   4.686  14.751  0.00  0.00    +0.000 A 
ATOM     19  N   UNL     1       7.894   5.467  14.184  0.00  0.00    +0.000 NA
ATOM     20  C   UNL     1       8.024   5.371  12.848  0.00  0.00    +0.000 A 
ATOM     21  C   UNL     1       7.267   4.525  12.076  0.00  0.00    +0.000 A 
ATOM     22  C   UNL     1       6.335   3.758  12.746  0.00  0.00    +0.000 A 
ATOM     23  C   UNL     1       5.457   2.800  11.997  0.00  0.00    +0.000 C 
ATOM     24  N   UNL     1       6.170   3.828  14.088  0.00  0.00    +0.000 NA
ENDBRANCH  17  18
ENDBRANCH  16  17
ENDBRANCH   5  16
TORSDOF 6
ENDMDL
MODEL 4
REMARK VINA RESULT:      -6.7      1.051      1.778
REMARK  Name = 
REMARK  9 active torsions:
REMARK  status: ('A' for Active; 'I' for Inactive)
REMARK    1  A    between atoms: C_1  and  C_2
REMARK    2  A    between atoms: C_2  and  O_3
REMARK    3  A    between atoms: O_3  and  C_4
REMARK    4  A    between atoms: C_4  and  C_6
REMARK    5  A    between atoms: C_10  and  C_12
REMARK    6  A    between atoms: C_12  and  S_13
REMARK    7  A    between atoms: S_13  and  C_14
REMARK    8  A    between atoms: C_18  and  C_19
REMARK    9  A    between atoms: C_22  and  C_23
REMARK                            x       y       z     vdW  Elec       q    Type
REMARK                         _______ _______ _______ _____ _____    ______ ____
ROOT
ATOM      1  C   UNL     1       3.609   5.090  18.975  0.00  0.00    +0.000 A 
ATOM      2  S   UNL     1       3.514   6.631  18.230  0.00  0.00    +0.000 S 
ATOM      3  C   UNL     1       2.337   7.114  19.352  0.00  0.00    +0.000 A 
ATOM      4  N   UNL     1       1.762   8.358  19.316  0.00  0.00    +0.000 N 
ATOM      5  C   UNL     1       1.856   9.269  18.285  0.00  0.00    +0.000 C 
ATOM      6  O   UNL     1       2.320   9.044  17.169  0.00  0.00    +0.000 OA
ATOM      7  N   UNL     1       2.054   6.242  20.291  0.00  0.00    +0.000 NA
ATOM      8  C   UNL     1       2.754   5.058  20.069  0.00  0.00    +0.000 A 
ATOM      9  C   UNL     1       2.499   3.917  20.992  0.00  0.00    +0.000 C 
ATOM     10  H   UNL     1       1.195   8.578  20.126  0.00  0.00    +0.000 HD
ENDROOT
BRANCH   1  11
ATOM     11  C   UNL     1       4.457   4.090  18.369  0.00  0.00    +0.000 C 
ATOM     12  O   UNL     1       4.114   3.258  17.538  0.00  0.00    +0.000 OA
BRANCH  11  13
ATOM     13  O   UNL     1       5.700   4.132  18.929  0.00  0.00    +0.000 OA
BRANCH  13  15
ATOM     14  C   UNL     1       7.514   5.673  19.087  0.00  0.00    +0.000 C 
ATOM     15  C   UNL     1       6.696   4.804  18.149  0.00  0.00    +0.000 C 
ENDBRANCH  13  15
ENDBRANCH  11  13
ENDBRANCH   1  11
BRANCH   5  16
ATOM     16  C   UNL     1       1.197  10.615  18.545  0.00  0.00    +0.000 C 
BRANCH  16  17
ATOM     17  S   UNL     1      -0.604  10.559  18.738  0.00  0.00    +0.000 S 
BRANCH  17  18
ATOM     18  C   UNL     1      -0.735  10.590  20.508  0.00  0.00    +0.000 A 
ATOM     19  N   UNL     1      -0.321   9.480  21.137  0.00  0.00    +0.000 NA
ATOM     20  C   UNL     1      -0.410   9.484  22.479  0.00  0.00    +0.000 A 
ATOM     21  C   UNL     1      -0.887  10.550  23.200  0.00  0.00    +0.000 A 
ATOM     22  C   UNL     1      -1.289  11.650  22.468  0.00  0.00    +0.000 A 
ATOM     23  C   UNL     1      -1.824  12.869  23.159  0.00  0.00    +0.000 C 
ATOM     24  N   UNL     1      -1.219  11.685  21.117  0.00  0.00    +0.000 NA
ENDBRANCH  17  18
ENDBRANCH  16  17
ENDBRANCH   5  16
TORSDOF 6
ENDMDL
MODEL 5
REMARK VINA RESULT:      -6.7      2.522      7.128
REMARK  Name = 
REMARK  9 active torsions:
REMARK  status: ('A' for Active; 'I' for Inactive)
REMARK    1  A    between atoms: C_1  and  C_2
REMARK    2  A    between atoms: C_2  and  O_3
REMARK    3  A    between atoms: O_3  and  C_4
REMARK    4  A    between atoms: C_4  and  C_6
REMARK    5  A    between atoms: C_10  and  C_12
REMARK    6  A    between atoms: C_12  and  S_13
REMARK    7  A    between atoms: S_13  and  C_14
REMARK    8  A    between atoms: C_18  and  C_19
REMARK    9  A    between atoms: C_22  and  C_23
REMARK                            x       y       z     vdW  Elec       q    Type
REMARK                         _______ _______ _______ _____ _____    ______ ____
ROOT
ATOM      1  C   UNL     1       0.792   9.514  19.351  0.00  0.00    +0.000 A 
ATOM      2  S   UNL     1       1.784   8.705  18.211  0.00  0.00    +0.000 S 
ATOM      3  C   UNL     1       2.298   7.621  19.410  0.00  0.00    +0.000 A 
ATOM      4  N   UNL     1       3.201   6.621  19.151  0.00  0.00    +0.000 N 
ATOM      5  C   UNL     1       3.973   6.496  18.016  0.00  0.00    +0.000 C 
ATOM      6  O   UNL     1       4.106   7.349  17.140  0.00  0.00    +0.000 OA
ATOM      7  N   UNL     1       1.734   7.764  20.586  0.00  0.00    +0.000 NA
ATOM      8  C   UNL     1       0.888   8.871  20.578  0.00  0.00    +0.000 A 
ATOM      9  C   UNL     1       0.217   9.240  21.855  0.00  0.00    +0.000 C 
ATOM     10  H   UNL     1       3.305   5.951  19.902  0.00  0.00    +0.000 HD
ENDROOT
BRANCH   1  11
ATOM     11  C   UNL     1       0.090  10.702  18.924  0.00  0.00    +0.000 C 
ATOM     12  O   UNL     1       0.575  11.820  18.792  0.00  0.00    +0.000 OA
BRANCH  11  13
ATOM     13  O   UNL     1      -1.238  10.432  18.776  0.00  0.00    +0.000 OA
BRANCH  13  15
ATOM     14  C   UNL     1      -3.166   9.987  17.443  0.00  0.00    +0.000 C 
ATOM     15  C   UNL     1      -1.659  10.168  17.432  0.00  0.00    +0.000 C 
ENDBRANCH  13  15
ENDBRANCH  11  13
ENDBRANCH   1  11
BRANCH   5  16
ATOM     16  C   UNL     1       4.824   5.237  17.944  0.00  0.00    +0.000 C 
BRANCH  16  17
ATOM     17  S   UNL     1       4.055   3.844  17.078  0.00  0.00    +0.000 S 
BRANCH  17  18
ATOM     18  C   UNL     1       2.804   3.389  18.253  0.00  0.00    +0.000 A 
ATOM     19  N   UNL     1       1.697   2.840  17.732  0.00  0.00    +0.000 NA
ATOM     20  C   UNL     1       0.736   2.486  18.606  0.00  0.00    +0.000 A 
ATOM     21  C   UNL     1       0.852   2.656  19.962  0.00  0.00    +0.000 A 
ATOM     22  C   UNL     1       2.028   3.228  20.407  0.00  0.00    +0.000 A 
ATOM     23  C   UNL     1       2.256   3.456  21.872  0.00  0.00    +0.000 C 
ATOM     24  N   UNL     1       3.016   3.602  19.562  0.00  0.00    +0.000 NA
ENDBRANCH  17  18
ENDBRANCH  16  17
ENDBRANCH   5  16
TORSDOF 6
ENDMDL
MODEL 6
REMARK VINA RESULT:      -6.6      1.140      1.845
REMARK  Name = 
REMARK  9 active torsions:
REMARK  status: ('A' for Active; 'I' for Inactive)
REMARK    1  A    between atoms: C_1  and  C_2
REMARK    2  A    between atoms: C_2  and  O_3
REMARK    3  A    between atoms: O_3  and  C_4
REMARK    4  A    between atoms: C_4  and  C_6
REMARK    5  A    between atoms: C_10  and  C_12
REMARK    6  A    between atoms: C_12  and  S_13
REMARK    7  A    between atoms: S_13  and  C_14
REMARK    8  A    between atoms: C_18  and  C_19
REMARK    9  A    between atoms: C_22  and  C_23
REMARK                            x       y       z     vdW  Elec       q    Type
REMARK                         _______ _______ _______ _____ _____    ______ ____
ROOT
ATOM      1  C   UNL     1       3.468   5.157  19.147  0.00  0.00    +0.000 A 
ATOM      2  S   UNL     1       3.414   6.678  18.357  0.00  0.00    +0.000 S 
ATOM      3  C   UNL     1       2.237   7.219  19.452  0.00  0.00    +0.000 A 
ATOM      4  N   UNL     1       1.690   8.474  19.373  0.00  0.00    +0.000 N 
ATOM      5  C   UNL     1       1.814   9.352  18.317  0.00  0.00    +0.000 C 
ATOM      6  O   UNL     1       2.284   9.084  17.212  0.00  0.00    +0.000 OA
ATOM      7  N   UNL     1       1.927   6.381  20.413  0.00  0.00    +0.000 NA
ATOM      8  C   UNL     1       2.603   5.176  20.233  0.00  0.00    +0.000 A 
ATOM      9  C   UNL     1       2.314   4.069  21.187  0.00  0.00    +0.000 C 
ATOM     10  H   UNL     1       1.121   8.729  20.171  0.00  0.00    +0.000 HD
ENDROOT
BRANCH   1  11
ATOM     11  C   UNL     1       4.300   4.122  18.580  0.00  0.00    +0.000 C 
ATOM     12  O   UNL     1       5.181   3.502  19.164  0.00  0.00    +0.000 OA
BRANCH  11  13
ATOM     13  O   UNL     1       4.036   3.988  17.249  0.00  0.00    +0.000 OA
BRANCH  13  15
ATOM     14  C   UNL     1       5.411   5.139  15.674  0.00  0.00    +0.000 C 
ATOM     15  C   UNL     1       5.190   3.831  16.414  0.00  0.00    +0.000 C 
ENDBRANCH  13  15
ENDBRANCH  11  13
ENDBRANCH   1  11
BRANCH   5  16
ATOM     16  C   UNL     1       1.183  10.719  18.530  0.00  0.00    +0.000 C 
BRANCH  16  17
ATOM     17  S   UNL     1      -0.629  10.724  18.572  0.00  0.00    +0.000 S 
BRANCH  17  18
ATOM     18  C   UNL     1      -0.906  10.980  20.307  0.00  0.00    +0.000 A 
ATOM     19  N   UNL     1      -1.694  12.021  20.617  0.00  0.00    +0.000 NA
ATOM     20  C   UNL     1      -1.919  12.232  21.927  0.00  0.00    +0.000 A 
ATOM     21  C   UNL     1      -1.393  11.442  22.919  0.00  0.00    +0.000 A 
ATOM     22  C   UNL     1      -0.596  10.393  22.505  0.00  0.00    +0.000 A 
ATOM     23  C   UNL     1       0.026   9.468  23.509  0.00  0.00    +0.000 C 
ATOM     24  N   UNL     1      -0.342  10.149  21.198  0.00  0.00    +0.000 NA
ENDBRANCH  17  18
ENDBRANCH  16  17
ENDBRANCH   5  16
TORSDOF 6
ENDMDL
MODEL 7
REMARK VINA RESULT:      -6.6      3.105      8.397
REMARK  Name = 
REMARK  9 active torsions:
REMARK  status: ('A' for Active; 'I' for Inactive)
REMARK    1  A    between atoms: C_1  and  C_2
REMARK    2  A    between atoms: C_2  and  O_3
REMARK    3  A    between atoms: O_3  and  C_4
REMARK    4  A    between atoms: C_4  and  C_6
REMARK    5  A    between atoms: C_10  and  C_12
REMARK    6  A    between atoms: C_12  and  S_13
REMARK    7  A    between atoms: S_13  and  C_14
REMARK    8  A    between atoms: C_18  and  C_19
REMARK    9  A    between atoms: C_22  and  C_23
REMARK                            x       y       z     vdW  Elec       q    Type
REMARK                         _______ _______ _______ _____ _____    ______ ____
ROOT
ATOM      1  C   UNL     1       0.015  10.358  20.383  0.00  0.00    +0.000 A 
ATOM      2  S   UNL     1       0.870   9.262  19.379  0.00  0.00    +0.000 S 
ATOM      3  C   UNL     1       1.219   8.285  20.721  0.00  0.00    +0.000 A 
ATOM      4  N   UNL     1       1.958   7.135  20.614  0.00  0.00    +0.000 N 
ATOM      5  C   UNL     1       2.699   6.742  19.519  0.00  0.00    +0.000 C 
ATOM      6  O   UNL     1       2.955   7.439  18.538  0.00  0.00    +0.000 OA
ATOM      7  N   UNL     1       0.687   8.669  21.857  0.00  0.00    +0.000 NA
ATOM      8  C   UNL     1       0.018   9.879  21.686  0.00  0.00    +0.000 A 
ATOM      9  C   UNL     1      -0.585  10.515  22.891  0.00  0.00    +0.000 C 
ATOM     10  H   UNL     1       1.962   6.564  21.450  0.00  0.00    +0.000 HD
ENDROOT
BRANCH   1  11
ATOM     11  C   UNL     1      -0.500  11.568  19.789  0.00  0.00    +0.000 C 
ATOM     12  O   UNL     1       0.079  12.647  19.727  0.00  0.00    +0.000 OA
BRANCH  11  13
ATOM     13  O   UNL     1      -1.787  11.377  19.380  0.00  0.00    +0.000 OA
BRANCH  13  15
ATOM     14  C   UNL     1      -2.200  10.235  17.326  0.00  0.00    +0.000 C 
ATOM     15  C   UNL     1      -2.019  11.592  17.983  0.00  0.00    +0.000 C 
ENDBRANCH  13  15
ENDBRANCH  11  13
ENDBRANCH   1  11
BRANCH   5  16
ATOM     16  C   UNL     1       3.349   5.372  19.631  0.00  0.00    +0.000 C 
BRANCH  16  17
ATOM     17  S   UNL     1       3.098   4.288  18.201  0.00  0.00    +0.000 S 
BRANCH  17  18
ATOM     18  C   UNL     1       4.709   4.364  17.459  0.00  0.00    +0.000 A 
ATOM     19  N   UNL     1       5.719   4.639  18.298  0.00  0.00    +0.000 NA
ATOM     20  C   UNL     1       6.949   4.699  17.756  0.00  0.00    +0.000 A 
ATOM     21  C   UNL     1       7.196   4.488  16.423  0.00  0.00    +0.000 A 
ATOM     22  C   UNL     1       6.096   4.209  15.636  0.00  0.00    +0.000 A 
ATOM     23  C   UNL     1       6.257   3.960  14.165  0.00  0.00    +0.000 C 
ATOM     24  N   UNL     1       4.842   4.144  16.141  0.00  0.00    +0.000 NA
ENDBRANCH  17  18
ENDBRANCH  16  17
ENDBRANCH   5  16
TORSDOF 6
ENDMDL
MODEL 8
REMARK VINA RESULT:      -6.5      2.582      3.580
REMARK  Name = 
REMARK  9 active torsions:
REMARK  status: ('A' for Active; 'I' for Inactive)
REMARK    1  A    between atoms: C_1  and  C_2
REMARK    2  A    between atoms: C_2  and  O_3
REMARK    3  A    between atoms: O_3  and  C_4
REMARK    4  A    between atoms: C_4  and  C_6
REMARK    5  A    between atoms: C_10  and  C_12
REMARK    6  A    between atoms: C_12  and  S_13
REMARK    7  A    between atoms: S_13  and  C_14
REMARK    8  A    between atoms: C_18  and  C_19
REMARK    9  A    between atoms: C_22  and  C_23
REMARK                            x       y       z     vdW  Elec       q    Type
REMARK                         _______ _______ _______ _____ _____    ______ ____
ROOT
ATOM      1  C   UNL     1       3.645   4.856  18.667  0.00  0.00    +0.000 A 
ATOM      2  S   UNL     1       2.574   5.664  19.735  0.00  0.00    +0.000 S 
ATOM      3  C   UNL     1       2.679   7.072  18.795  0.00  0.00    +0.000 A 
ATOM      4  N   UNL     1       2.010   8.222  19.127  0.00  0.00    +0.000 N 
ATOM      5  C   UNL     1       1.385   8.483  20.328  0.00  0.00    +0.000 C 
ATOM      6  O   UNL     1       1.479   7.803  21.348  0.00  0.00    +0.000 OA
ATOM      7  N   UNL     1       3.394   6.972  17.700  0.00  0.00    +0.000 NA
ATOM      8  C   UNL     1       3.984   5.712  17.628  0.00  0.00    +0.000 A 
ATOM      9  C   UNL     1       4.903   5.440  16.487  0.00  0.00    +0.000 C 
ATOM     10  H   UNL     1       2.028   8.935  18.408  0.00  0.00    +0.000 HD
ENDROOT
BRANCH   1  11
ATOM     11  C   UNL     1       4.062   3.516  19.004  0.00  0.00    +0.000 C 
ATOM     12  O   UNL     1       5.067   3.208  19.635  0.00  0.00    +0.000 OA
BRANCH  11  13
ATOM     13  O   UNL     1       3.222   2.607  18.430  0.00  0.00    +0.000 OA
BRANCH  13  15
ATOM     14  C   UNL     1       0.874   2.305  18.730  0.00  0.00    +0.000 C 
ATOM     15  C   UNL     1       2.250   2.036  19.314  0.00  0.00    +0.000 C 
ENDBRANCH  13  15
ENDBRANCH  11  13
ENDBRANCH   1  11
BRANCH   5  16
ATOM     16  C   UNL     1       0.635   9.804  20.397  0.00  0.00    +0.000 C 
BRANCH  16  17
ATOM     17  S   UNL     1       0.797  10.852  18.927  0.00  0.00    +0.000 S 
BRANCH  17  18
ATOM     18  C   UNL     1      -0.903  10.964  18.427  0.00  0.00    +0.000 A 
ATOM     19  N   UNL     1      -1.696  11.679  19.239  0.00  0.00    +0.000 NA
ATOM     20  C   UNL     1      -2.989  11.778  18.878  0.00  0.00    +0.000 A 
ATOM     21  C   UNL     1      -3.501  11.199  17.745  0.00  0.00    +0.000 A 
ATOM     22  C   UNL     1      -2.610  10.483  16.969  0.00  0.00    +0.000 A 
ATOM     23  C   UNL     1      -3.067   9.812  15.708  0.00  0.00    +0.000 C 
ATOM     24  N   UNL     1      -1.304  10.356  17.299  0.00  0.00    +0.000 NA
ENDBRANCH  17  18
ENDBRANCH  16  17
ENDBRANCH   5  16
TORSDOF 6
ENDMDL
MODEL 9
REMARK VINA RESULT:      -6.5      2.698      7.335
REMARK  Name = 
REMARK  9 active torsions:
REMARK  status: ('A' for Active; 'I' for Inactive)
REMARK    1  A    between atoms: C_1  and  C_2
REMARK    2  A    between atoms: C_2  and  O_3
REMARK    3  A    between atoms: O_3  and  C_4
REMARK    4  A    between atoms: C_4  and  C_6
REMARK    5  A    between atoms: C_10  and  C_12
REMARK    6  A    between atoms: C_12  and  S_13
REMARK    7  A    between atoms: S_13  and  C_14
REMARK    8  A    between atoms: C_18  and  C_19
REMARK    9  A    between atoms: C_22  and  C_23
REMARK                            x       y       z     vdW  Elec       q    Type
REMARK                         _______ _______ _______ _____ _____    ______ ____
ROOT
ATOM      1  C   UNL     1       1.027   9.220  19.161  0.00  0.00    +0.000 A 
ATOM      2  S   UNL     1       1.975   8.528  17.911  0.00  0.00    +0.000 S 
ATOM      3  C   UNL     1       2.598   7.386  18.998  0.00  0.00    +0.000 A 
ATOM      4  N   UNL     1       3.516   6.441  18.618  0.00  0.00    +0.000 N 
ATOM      5  C   UNL     1       4.221   6.421  17.433  0.00  0.00    +0.000 C 
ATOM      6  O   UNL     1       4.271   7.336  16.612  0.00  0.00    +0.000 OA
ATOM      7  N   UNL     1       2.102   7.427  20.213  0.00  0.00    +0.000 NA
ATOM      8  C   UNL     1       1.220   8.499  20.332  0.00  0.00    +0.000 A 
ATOM      9  C   UNL     1       0.617   8.756  21.669  0.00  0.00    +0.000 C 
ATOM     10  H   UNL     1       3.688   5.725  19.313  0.00  0.00    +0.000 HD
ENDROOT
BRANCH   1  11
ATOM     11  C   UNL     1       0.261  10.406  18.860  0.00  0.00    +0.000 C 
ATOM     12  O   UNL     1       0.268  11.453  19.498  0.00  0.00    +0.000 OA
BRANCH  11  13
ATOM     13  O   UNL     1      -0.565  10.172  17.800  0.00  0.00    +0.000 OA
BRANCH  13  15
ATOM     14  C   UNL     1      -2.644  10.401  16.653  0.00  0.00    +0.000 C 
ATOM     15  C   UNL     1      -1.897  10.680  17.945  0.00  0.00    +0.000 C 
ENDBRANCH  13  15
ENDBRANCH  11  13
ENDBRANCH   1  11
BRANCH   5  16
ATOM     16  C   UNL     1       5.108   5.204  17.224  0.00  0.00    +0.000 C 
BRANCH  16  17
ATOM     17  S   UNL     1       5.480   4.263  18.728  0.00  0.00    +0.000 S 
BRANCH  17  18
ATOM     18  C   UNL     1       3.951   3.388  18.942  0.00  0.00    +0.000 A 
ATOM     19  N   UNL     1       3.536   2.683  17.879  0.00  0.00    +0.000 NA
ATOM     20  C   UNL     1       2.379   2.010  18.021  0.00  0.00    +0.000 A 
ATOM     21  C   UNL     1       1.641   2.016  19.177  0.00  0.00    +0.000 A 
ATOM     22  C   UNL     1       2.146   2.769  20.219  0.00  0.00    +0.000 A 
ATOM     23  C   UNL     1       1.417   2.842  21.529  0.00  0.00    +0.000 C 
ATOM     24  N   UNL     1       3.303   3.463  20.116  0.00  0.00    +0.000 NA
ENDBRANCH  17  18
ENDBRANCH  16  17
ENDBRANCH   5  16
TORSDOF 6
ENDMDL
