MODEL 1
REMARK VINA RESULT:      -6.8      0.000      0.000
REMARK  Name = 
REMARK  2 active torsions:
REMARK  status: ('A' for Active; 'I' for Inactive)
REMARK    1  A    between atoms: C_9  and  O_10
REMARK    2  A    between atoms: C_18  and  O_19
REMARK                            x       y       z     vdW  Elec       q    Type
REMARK                         _______ _______ _______ _____ _____    ______ ____
ROOT
ATOM      1  O   UNL     1       6.527  17.905  19.105  0.00  0.00    +0.000 OA
ATOM      2  C   UNL     1       7.404  17.055  18.960  0.00  0.00    +0.000 C 
ATOM      3  N   UNL     1       7.245  15.990  18.081  0.00  0.00    +0.000 N 
ATOM      4  CA  UNL     1       8.251  14.930  18.140  0.00  0.00    +0.000 C 
ATOM      5  C   UNL     1       8.015  13.590  17.426  0.00  0.00    +0.000 C 
ATOM      6  C   UNL     1       9.009  12.609  18.040  0.00  0.00    +0.000 A 
ATOM      7  C   UNL     1      10.244  12.345  17.449  0.00  0.00    +0.000 A 
ATOM      8  C   UNL     1      11.334  11.940  18.235  0.00  0.00    +0.000 A 
ATOM      9  C   UNL     1      11.217  11.860  19.621  0.00  0.00    +0.000 A 
ATOM     10  C   UNL     1       9.981  12.095  20.247  0.00  0.00    +0.000 A 
ATOM     11  C   UNL     1       8.863  12.294  19.404  0.00  0.00    +0.000 A 
ATOM     12  C   UNL     1       9.839  12.580  21.652  0.00  0.00    +0.000 A 
ATOM     13  C   UNL     1       9.981  13.980  21.743  0.00  0.00    +0.000 A 
ATOM     14  C   UNL     1       8.818  14.767  21.770  0.00  0.00    +0.000 A 
ATOM     15  C   UNL     1       7.704  14.176  22.378  0.00  0.00    +0.000 A 
ATOM     16  C   UNL     1       7.745  12.818  22.801  0.00  0.00    +0.000 A 
ATOM     17  C   UNL     1       8.812  12.017  22.399  0.00  0.00    +0.000 A 
ATOM     18  C   UNL     1       8.817  16.249  21.188  0.00  0.00    +0.000 C 
ATOM     19  CA  UNL     1       8.768  17.059  19.740  0.00  0.00    +0.000 C 
ATOM     20  N   UNL     1       9.798  16.693  18.739  0.00  0.00    +0.000 N 
ATOM     21  C   UNL     1       9.590  15.635  17.866  0.00  0.00    +0.000 C 
ATOM     22  O   UNL     1      10.401  15.352  16.997  0.00  0.00    +0.000 OA
ATOM     23  H   UNL     1       6.428  15.955  17.480  0.00  0.00    +0.000 HD
ATOM     24  H   UNL     1      10.647  17.234  18.619  0.00  0.00    +0.000 HD
ENDROOT
BRANCH   9  25
ATOM     25  O   UNL     1      12.333  11.680  20.409  0.00  0.00    +0.000 OA
ATOM     26  H   UNL     1      12.937  11.093  19.928  0.00  0.00    +0.000 HD
ENDBRANCH   9  25
BRANCH  17  27
ATOM     27  O   UNL     1       8.742  10.655  22.609  0.00  0.00    +0.000 OA
ATOM     28  H   UNL     1       9.251  10.253  21.877  0.00  0.00    +0.000 HD
ENDBRANCH  17  27
TORSDOF 2
ENDMDL
MODEL 2
REMARK VINA RESULT:      -6.6      1.826      4.240
REMARK  Name = 
REMARK  2 active torsions:
REMARK  status: ('A' for Active; 'I' for Inactive)
REMARK    1  A    between atoms: C_9  and  O_10
REMARK    2  A    between atoms: C_18  and  O_19
REMARK                            x       y       z     vdW  Elec       q    Type
REMARK                         _______ _______ _______ _____ _____    ______ ____
ROOT
ATOM      1  O   UNL     1       7.431  18.347  20.455  0.00  0.00    +0.000 OA
ATOM      2  C   UNL     1       7.545  17.125  20.546  0.00  0.00    +0.000 C 
ATOM      3  N   UNL     1       8.333  16.541  21.531  0.00  0.00    +0.000 N 
ATOM      4  CA  UNL     1       8.566  15.101  21.421  0.00  0.00    +0.000 C 
ATOM      5  C   UNL     1       9.641  14.418  22.280  0.00  0.00    +0.000 C 
ATOM      6  C   UNL     1       9.909  13.070  21.618  0.00  0.00    +0.000 A 
ATOM      7  C   UNL     1       9.278  11.902  22.044  0.00  0.00    +0.000 A 
ATOM      8  C   UNL     1       9.065  10.843  21.146  0.00  0.00    +0.000 A 
ATOM      9  C   UNL     1       9.420  10.970  19.806  0.00  0.00    +0.000 A 
ATOM     10  C   UNL     1      10.081  12.122  19.349  0.00  0.00    +0.000 A 
ATOM     11  C   UNL     1      10.463  13.073  20.324  0.00  0.00    +0.000 A 
ATOM     12  C   UNL     1      10.012  12.617  17.941  0.00  0.00    +0.000 A 
ATOM     13  C   UNL     1       8.847  13.374  17.704  0.00  0.00    +0.000 A 
ATOM     14  C   UNL     1       8.935  14.775  17.777  0.00  0.00    +0.000 A 
ATOM     15  C   UNL     1      10.166  15.321  17.394  0.00  0.00    +0.000 A 
ATOM     16  C   UNL     1      11.272  14.477  17.093  0.00  0.00    +0.000 A 
ATOM     17  C   UNL     1      11.192  13.122  17.406  0.00  0.00    +0.000 A 
ATOM     18  C   UNL     1       7.684  15.653  18.218  0.00  0.00    +0.000 C 
ATOM     19  CA  UNL     1       6.846  16.104  19.578  0.00  0.00    +0.000 C 
ATOM     20  N   UNL     1       6.352  15.009  20.447  0.00  0.00    +0.000 N 
ATOM     21  C   UNL     1       7.165  14.468  21.432  0.00  0.00    +0.000 C 
ATOM     22  O   UNL     1       6.759  13.605  22.196  0.00  0.00    +0.000 OA
ATOM     23  H   UNL     1       8.755  17.125  22.246  0.00  0.00    +0.000 HD
ATOM     24  H   UNL     1       5.399  14.668  20.393  0.00  0.00    +0.000 HD
ENDROOT
BRANCH   9  25
ATOM     25  O   UNL     1       9.016  10.029  18.882  0.00  0.00    +0.000 OA
ATOM     26  H   UNL     1       8.049  10.070  18.830  0.00  0.00    +0.000 HD
ENDBRANCH   9  25
BRANCH  17  27
ATOM     27  O   UNL     1      12.333  12.350  17.332  0.00  0.00    +0.000 OA
ATOM     28  H   UNL     1      12.238  11.825  16.512  0.00  0.00    +0.000 HD
ENDBRANCH  17  27
TORSDOF 2
ENDMDL
MODEL 3
REMARK VINA RESULT:      -6.5      2.056      4.034
REMARK  Name = 
REMARK  2 active torsions:
REMARK  status: ('A' for Active; 'I' for Inactive)
REMARK    1  A    between atoms: C_9  and  O_10
REMARK    2  A    between atoms: C_18  and  O_19
REMARK                            x       y       z     vdW  Elec       q    Type
REMARK                         _______ _______ _______ _____ _____    ______ ____
ROOT
ATOM      1  O   UNL     1       5.663  13.159  23.313  0.00  0.00    +0.000 OA
ATOM      2  C   UNL     1       6.429  13.770  22.569  0.00  0.00    +0.000 C 
ATOM      3  N   UNL     1       6.002  14.282  21.350  0.00  0.00    +0.000 N 
ATOM      4  CA  UNL     1       7.035  14.804  20.456  0.00  0.00    +0.000 C 
ATOM      5  C   UNL     1       6.708  15.123  18.988  0.00  0.00    +0.000 C 
ATOM      6  C   UNL     1       8.051  15.212  18.271  0.00  0.00    +0.000 A 
ATOM      7  C   UNL     1       8.695  16.431  18.062  0.00  0.00    +0.000 A 
ATOM      8  C   UNL     1      10.094  16.484  17.950  0.00  0.00    +0.000 A 
ATOM      9  C   UNL     1      10.861  15.332  18.111  0.00  0.00    +0.000 A 
ATOM     10  C   UNL     1      10.244  14.085  18.297  0.00  0.00    +0.000 A 
ATOM     11  C   UNL     1       8.833  14.045  18.195  0.00  0.00    +0.000 A 
ATOM     12  C   UNL     1      10.883  12.938  19.010  0.00  0.00    +0.000 A 
ATOM     13  C   UNL     1      10.748  13.045  20.409  0.00  0.00    +0.000 A 
ATOM     14  C   UNL     1       9.705  12.341  21.034  0.00  0.00    +0.000 A 
ATOM     15  C   UNL     1       9.346  11.132  20.427  0.00  0.00    +0.000 A 
ATOM     16  C   UNL     1       9.925  10.744  19.186  0.00  0.00    +0.000 A 
ATOM     17  C   UNL     1      10.669  11.677  18.467  0.00  0.00    +0.000 A 
ATOM     18  C   UNL     1       9.034  12.885  22.371  0.00  0.00    +0.000 C 
ATOM     19  CA  UNL     1       7.946  14.026  22.890  0.00  0.00    +0.000 C 
ATOM     20  N   UNL     1       8.206  15.427  22.480  0.00  0.00    +0.000 N 
ATOM     21  C   UNL     1       7.744  15.904  21.263  0.00  0.00    +0.000 C 
ATOM     22  O   UNL     1       7.898  17.070  20.930  0.00  0.00    +0.000 OA
ATOM     23  H   UNL     1       5.020  14.231  21.102  0.00  0.00    +0.000 HD
ATOM     24  H   UNL     1       8.668  16.089  23.093  0.00  0.00    +0.000 HD
ENDROOT
BRANCH   9  25
ATOM     25  O   UNL     1      12.233  15.415  18.222  0.00  0.00    +0.000 OA
ATOM     26  H   UNL     1      12.475  16.350  18.146  0.00  0.00    +0.000 HD
ENDBRANCH   9  25
BRANCH  17  27
ATOM     27  O   UNL     1      11.034  11.384  17.169  0.00  0.00    +0.000 OA
ATOM     28  H   UNL     1      10.889  10.422  17.069  0.00  0.00    +0.000 HD
ENDBRANCH  17  27
TORSDOF 2
ENDMDL
MODEL 4
REMARK VINA RESULT:      -6.3      2.080      4.829
REMARK  Name = 
REMARK  2 active torsions:
REMARK  status: ('A' for Active; 'I' for Inactive)
REMARK    1  A    between atoms: C_9  and  O_10
REMARK    2  A    between atoms: C_18  and  O_19
REMARK                            x       y       z     vdW  Elec       q    Type
REMARK                         _______ _______ _______ _____ _____    ______ ____
ROOT
ATOM      1  O   UNL     1       7.224  12.490  22.723  0.00  0.00    +0.000 OA
ATOM      2  C   UNL     1       7.743  13.408  22.090  0.00  0.00    +0.000 C 
ATOM      3  N   UNL     1       7.026  14.138  21.149  0.00  0.00    +0.000 N 
ATOM      4  CA  UNL     1       7.789  15.061  20.309  0.00  0.00    +0.000 C 
ATOM      5  C   UNL     1       7.148  15.693  19.064  0.00  0.00    +0.000 C 
ATOM      6  C   UNL     1       8.306  16.217  18.220  0.00  0.00    +0.000 A 
ATOM      7  C   UNL     1       8.725  17.545  18.288  0.00  0.00    +0.000 A 
ATOM      8  C   UNL     1      10.056  17.884  17.997  0.00  0.00    +0.000 A 
ATOM      9  C   UNL     1      10.990  16.894  17.701  0.00  0.00    +0.000 A 
ATOM     10  C   UNL     1      10.596  15.550  17.598  0.00  0.00    +0.000 A 
ATOM     11  C   UNL     1       9.211  15.278  17.692  0.00  0.00    +0.000 A 
ATOM     12  C   UNL     1      11.510  14.394  17.843  0.00  0.00    +0.000 A 
ATOM     13  C   UNL     1      11.630  14.098  19.216  0.00  0.00    +0.000 A 
ATOM     14  C   UNL     1      10.831  13.072  19.749  0.00  0.00    +0.000 A 
ATOM     15  C   UNL     1      10.533  12.023  18.871  0.00  0.00    +0.000 A 
ATOM     16  C   UNL     1      10.912  12.094  17.501  0.00  0.00    +0.000 A 
ATOM     17  C   UNL     1      11.371  13.306  16.989  0.00  0.00    +0.000 A 
ATOM     18  C   UNL     1      10.359  13.106  21.268  0.00  0.00    +0.000 C 
ATOM     19  CA  UNL     1       9.244  13.846  22.250  0.00  0.00    +0.000 C 
ATOM     20  N   UNL     1       9.227  15.328  22.237  0.00  0.00    +0.000 N 
ATOM     21  C   UNL     1       8.481  16.018  21.294  0.00  0.00    +0.000 C 
ATOM     22  O   UNL     1       8.409  17.238  21.301  0.00  0.00    +0.000 OA
ATOM     23  H   UNL     1       6.031  13.973  21.041  0.00  0.00    +0.000 HD
ATOM     24  H   UNL     1       9.703  15.877  22.945  0.00  0.00    +0.000 HD
ENDROOT
BRANCH   9  25
ATOM     25  O   UNL     1      12.333  17.196  17.632  0.00  0.00    +0.000 OA
ATOM     26  H   UNL     1      12.516  17.510  16.733  0.00  0.00    +0.000 HD
ENDBRANCH   9  25
BRANCH  17  27
ATOM     27  O   UNL     1      11.519  13.443  15.624  0.00  0.00    +0.000 OA
ATOM     28  H   UNL     1      11.344  14.387  15.437  0.00  0.00    +0.000 HD
ENDBRANCH  17  27
TORSDOF 2
ENDMDL
MODEL 5
REMARK VINA RESULT:      -6.3      8.914     10.293
REMARK  Name = 
REMARK  2 active torsions:
REMARK  status: ('A' for Active; 'I' for Inactive)
REMARK    1  A    between atoms: C_9  and  O_10
REMARK    2  A    between atoms: C_18  and  O_19
REMARK                            x       y       z     vdW  Elec       q    Type
REMARK                         _______ _______ _______ _____ _____    ______ ____
ROOT
ATOM      1  O   UNL     1      -0.146  17.239  18.526  0.00  0.00    +0.000 OA
ATOM      2  C   UNL     1       0.028  16.110  18.981  0.00  0.00    +0.000 C 
ATOM      3  N   UNL     1      -0.451  14.981  18.326  0.00  0.00    +0.000 N 
ATOM      4  CA  UNL     1      -0.374  13.714  19.053  0.00  0.00    +0.000 C 
ATOM      5  C   UNL     1      -1.128  12.476  18.543  0.00  0.00    +0.000 C 
ATOM      6  C   UNL     1      -1.188  11.510  19.722  0.00  0.00    +0.000 A 
ATOM      7  C   UNL     1      -0.257  10.485  19.883  0.00  0.00    +0.000 A 
ATOM      8  C   UNL     1       0.045   9.997  21.165  0.00  0.00    +0.000 A 
ATOM      9  C   UNL     1      -0.530  10.573  22.296  0.00  0.00    +0.000 A 
ATOM     10  C   UNL     1      -1.491  11.589  22.168  0.00  0.00    +0.000 A 
ATOM     11  C   UNL     1      -1.920  11.906  20.858  0.00  0.00    +0.000 A 
ATOM     12  C   UNL     1      -1.749  12.626  23.212  0.00  0.00    +0.000 A 
ATOM     13  C   UNL     1      -0.830  13.692  23.135  0.00  0.00    +0.000 A 
ATOM     14  C   UNL     1      -1.213  14.855  22.446  0.00  0.00    +0.000 A 
ATOM     15  C   UNL     1      -2.578  15.163  22.498  0.00  0.00    +0.000 A 
ATOM     16  C   UNL     1      -3.502  14.262  23.097  0.00  0.00    +0.000 A 
ATOM     17  C   UNL     1      -3.078  12.975  23.420  0.00  0.00    +0.000 A 
ATOM     18  C   UNL     1      -0.135  15.767  21.712  0.00  0.00    +0.000 C 
ATOM     19  CA  UNL     1       0.780  15.812  20.328  0.00  0.00    +0.000 C 
ATOM     20  N   UNL     1       1.630  14.629  20.054  0.00  0.00    +0.000 N 
ATOM     21  C   UNL     1       1.117  13.532  19.379  0.00  0.00    +0.000 C 
ATOM     22  O   UNL     1       1.816  12.571  19.094  0.00  0.00    +0.000 OA
ATOM     23  H   UNL     1      -0.878  15.078  17.410  0.00  0.00    +0.000 HD
ATOM     24  H   UNL     1       2.616  14.610  20.292  0.00  0.00    +0.000 HD
ENDROOT
BRANCH   9  25
ATOM     25  O   UNL     1      -0.073  10.249  23.556  0.00  0.00    +0.000 OA
ATOM     26  H   UNL     1       0.698   9.673  23.446  0.00  0.00    +0.000 HD
ENDBRANCH   9  25
BRANCH  17  27
ATOM     27  O   UNL     1      -4.018  12.032  23.783  0.00  0.00    +0.000 OA
ATOM     28  H   UNL     1      -3.807  11.238  23.252  0.00  0.00    +0.000 HD
ENDBRANCH  17  27
TORSDOF 2
ENDMDL
MODEL 6
REMARK VINA RESULT:      -6.1     11.369     13.204
REMARK  Name = 
REMARK  2 active torsions:
REMARK  status: ('A' for Active; 'I' for Inactive)
REMARK    1  A    between atoms: C_9  and  O_10
REMARK    2  A    between atoms: C_18  and  O_19
REMARK                            x       y       z     vdW  Elec       q    Type
REMARK                         _______ _______ _______ _____ _____    ______ ____
ROOT
ATOM      1  O   UNL     1      -6.153  13.004  16.700  0.00  0.00    +0.000 OA
ATOM      2  C   UNL     1      -5.725  12.751  17.825  0.00  0.00    +0.000 C 
ATOM      3  N   UNL     1      -5.734  13.705  18.836  0.00  0.00    +0.000 N 
ATOM      4  CA  UNL     1      -5.015  13.370  20.065  0.00  0.00    +0.000 C 
ATOM      5  C   UNL     1      -4.723  14.451  21.117  0.00  0.00    +0.000 C 
ATOM      6  C   UNL     1      -3.624  13.880  22.008  0.00  0.00    +0.000 A 
ATOM      7  C   UNL     1      -3.911  13.237  23.211  0.00  0.00    +0.000 A 
ATOM      8  C   UNL     1      -3.042  12.256  23.715  0.00  0.00    +0.000 A 
ATOM      9  C   UNL     1      -1.918  11.866  22.990  0.00  0.00    +0.000 A 
ATOM     10  C   UNL     1      -1.585  12.512  21.788  0.00  0.00    +0.000 A 
ATOM     11  C   UNL     1      -2.369  13.632  21.423  0.00  0.00    +0.000 A 
ATOM     12  C   UNL     1      -0.803  11.871  20.688  0.00  0.00    +0.000 A 
ATOM     13  C   UNL     1      -1.616  11.072  19.859  0.00  0.00    +0.000 A 
ATOM     14  C   UNL     1      -2.097  11.627  18.662  0.00  0.00    +0.000 A 
ATOM     15  C   UNL     1      -1.256  12.567  18.053  0.00  0.00    +0.000 A 
ATOM     16  C   UNL     1      -0.070  13.007  18.705  0.00  0.00    +0.000 A 
ATOM     17  C   UNL     1       0.128  12.676  20.043  0.00  0.00    +0.000 A 
ATOM     18  C   UNL     1      -3.484  11.158  18.039  0.00  0.00    +0.000 C 
ATOM     19  CA  UNL     1      -5.119  11.363  18.243  0.00  0.00    +0.000 C 
ATOM     20  N   UNL     1      -5.660  11.085  19.594  0.00  0.00    +0.000 N 
ATOM     21  C   UNL     1      -5.669  12.072  20.568  0.00  0.00    +0.000 C 
ATOM     22  O   UNL     1      -6.160  11.881  21.670  0.00  0.00    +0.000 OA
ATOM     23  H   UNL     1      -6.181  14.601  18.674  0.00  0.00    +0.000 HD
ATOM     24  H   UNL     1      -6.091  10.198  19.828  0.00  0.00    +0.000 HD
ENDROOT
BRANCH   9  25
ATOM     25  O   UNL     1      -1.189  10.759  23.370  0.00  0.00    +0.000 OA
ATOM     26  H   UNL     1      -1.433  10.033  22.776  0.00  0.00    +0.000 HD
ENDBRANCH   9  25
BRANCH  17  27
ATOM     27  O   UNL     1       1.151  13.287  20.739  0.00  0.00    +0.000 OA
ATOM     28  H   UNL     1       1.911  13.303  20.123  0.00  0.00    +0.000 HD
ENDBRANCH  17  27
TORSDOF 2
ENDMDL
MODEL 7
REMARK VINA RESULT:      -6.0      2.424      4.699
REMARK  Name = 
REMARK  2 active torsions:
REMARK  status: ('A' for Active; 'I' for Inactive)
REMARK    1  A    between atoms: C_9  and  O_10
REMARK    2  A    between atoms: C_18  and  O_19
REMARK                            x       y       z     vdW  Elec       q    Type
REMARK                         _______ _______ _______ _____ _____    ______ ____
ROOT
ATOM      1  O   UNL     1       5.822  11.751  23.558  0.00  0.00    +0.000 OA
ATOM      2  C   UNL     1       6.598  12.572  23.072  0.00  0.00    +0.000 C 
ATOM      3  N   UNL     1       6.161  13.546  22.181  0.00  0.00    +0.000 N 
ATOM      4  CA  UNL     1       7.193  14.332  21.505  0.00  0.00    +0.000 C 
ATOM      5  C   UNL     1       6.833  15.223  20.306  0.00  0.00    +0.000 C 
ATOM      6  C   UNL     1       8.152  15.529  19.603  0.00  0.00    +0.000 A 
ATOM      7  C   UNL     1       8.866  16.699  19.854  0.00  0.00    +0.000 A 
ATOM      8  C   UNL     1      10.260  16.728  19.688  0.00  0.00    +0.000 A 
ATOM      9  C   UNL     1      10.956  15.574  19.336  0.00  0.00    +0.000 A 
ATOM     10  C   UNL     1      10.265  14.384  19.050  0.00  0.00    +0.000 A 
ATOM     11  C   UNL     1       8.852  14.453  19.026  0.00  0.00    +0.000 A 
ATOM     12  C   UNL     1      10.853  13.021  19.213  0.00  0.00    +0.000 A 
ATOM     13  C   UNL     1      10.777  12.569  20.546  0.00  0.00    +0.000 A 
ATOM     14  C   UNL     1       9.714  11.723  20.903  0.00  0.00    +0.000 A 
ATOM     15  C   UNL     1       9.254  10.872  19.891  0.00  0.00    +0.000 A 
ATOM     16  C   UNL     1       9.760  10.985  18.565  0.00  0.00    +0.000 A 
ATOM     17  C   UNL     1      10.537  12.091  18.230  0.00  0.00    +0.000 A 
ATOM     18  C   UNL     1       9.130  11.721  22.384  0.00  0.00    +0.000 C 
ATOM     19  CA  UNL     1       8.139  12.610  23.376  0.00  0.00    +0.000 C 
ATOM     20  N   UNL     1       8.476  14.044  23.537  0.00  0.00    +0.000 N 
ATOM     21  C   UNL     1       8.001  14.987  22.637  0.00  0.00    +0.000 C 
ATOM     22  O   UNL     1       8.220  16.180  22.784  0.00  0.00    +0.000 OA
ATOM     23  H   UNL     1       5.169  13.642  21.993  0.00  0.00    +0.000 HD
ATOM     24  H   UNL     1       9.003  14.386  24.333  0.00  0.00    +0.000 HD
ENDROOT
BRANCH   9  25
ATOM     25  O   UNL     1      12.333  15.542  19.387  0.00  0.00    +0.000 OA
ATOM     26  H   UNL     1      12.586  15.365  20.306  0.00  0.00    +0.000 HD
ENDBRANCH   9  25
BRANCH  17  27
ATOM     27  O   UNL     1      10.834  12.323  16.902  0.00  0.00    +0.000 OA
ATOM     28  H   UNL     1      11.444  11.603  16.644  0.00  0.00    +0.000 HD
ENDBRANCH  17  27
TORSDOF 2
ENDMDL
MODEL 8
REMARK VINA RESULT:      -5.9      2.079      3.630
REMARK  Name = 
REMARK  2 active torsions:
REMARK  status: ('A' for Active; 'I' for Inactive)
REMARK    1  A    between atoms: C_9  and  O_10
REMARK    2  A    between atoms: C_18  and  O_19
REMARK                            x       y       z     vdW  Elec       q    Type
REMARK                         _______ _______ _______ _____ _____    ______ ____
ROOT
ATOM      1  O   UNL     1       4.603  13.873  22.497  0.00  0.00    +0.000 OA
ATOM      2  C   UNL     1       5.542  14.409  21.911  0.00  0.00    +0.000 C 
ATOM      3  N   UNL     1       5.481  14.695  20.552  0.00  0.00    +0.000 N 
ATOM      4  CA  UNL     1       6.721  15.136  19.914  0.00  0.00    +0.000 C 
ATOM      5  C   UNL     1       6.830  15.200  18.382  0.00  0.00    +0.000 C 
ATOM      6  C   UNL     1       8.323  15.262  18.073  0.00  0.00    +0.000 A 
ATOM      7  C   UNL     1       8.980  16.472  17.854  0.00  0.00    +0.000 A 
ATOM      8  C   UNL     1      10.349  16.597  18.137  0.00  0.00    +0.000 A 
ATOM      9  C   UNL     1      11.055  15.537  18.702  0.00  0.00    +0.000 A 
ATOM     10  C   UNL     1      10.431  14.296  18.912  0.00  0.00    +0.000 A 
ATOM     11  C   UNL     1       9.112  14.150  18.421  0.00  0.00    +0.000 A 
ATOM     12  C   UNL     1      10.853  13.319  19.960  0.00  0.00    +0.000 A 
ATOM     13  C   UNL     1      10.314  13.635  21.224  0.00  0.00    +0.000 A 
ATOM     14  C   UNL     1       9.146  12.972  21.635  0.00  0.00    +0.000 A 
ATOM     15  C   UNL     1       9.000  11.661  21.164  0.00  0.00    +0.000 A 
ATOM     16  C   UNL     1       9.921  11.123  20.223  0.00  0.00    +0.000 A 
ATOM     17  C   UNL     1      10.827  11.977  19.599  0.00  0.00    +0.000 A 
ATOM     18  C   UNL     1       8.106  13.674  22.614  0.00  0.00    +0.000 C 
ATOM     19  CA  UNL     1       6.895  14.809  22.601  0.00  0.00    +0.000 C 
ATOM     20  N   UNL     1       7.241  16.142  22.053  0.00  0.00    +0.000 N 
ATOM     21  C   UNL     1       7.146  16.392  20.692  0.00  0.00    +0.000 C 
ATOM     22  O   UNL     1       7.372  17.499  20.226  0.00  0.00    +0.000 OA
ATOM     23  H   UNL     1       4.614  14.542  20.047  0.00  0.00    +0.000 HD
ATOM     24  H   UNL     1       7.493  16.921  22.652  0.00  0.00    +0.000 HD
ENDROOT
BRANCH   9  25
ATOM     25  O   UNL     1      12.333  15.723  19.183  0.00  0.00    +0.000 OA
ATOM     26  H   UNL     1      12.947  15.551  18.452  0.00  0.00    +0.000 HD
ENDBRANCH   9  25
BRANCH  17  27
ATOM     27  O   UNL     1      11.560  11.509  18.527  0.00  0.00    +0.000 OA
ATOM     28  H   UNL     1      12.493  11.538  18.818  0.00  0.00    +0.000 HD
ENDBRANCH  17  27
TORSDOF 2
ENDMDL
MODEL 9
REMARK VINA RESULT:      -5.9      1.419      4.084
REMARK  Name = 
REMARK  2 active torsions:
REMARK  status: ('A' for Active; 'I' for Inactive)
REMARK    1  A    between atoms: C_9  and  O_10
REMARK    2  A    between atoms: C_18  and  O_19
REMARK                            x       y       z     vdW  Elec       q    Type
REMARK                         _______ _______ _______ _____ _____    ______ ____
ROOT
ATOM      1  O   UNL     1       8.068  18.193  17.828  0.00  0.00    +0.000 OA
ATOM      2  C   UNL     1       8.031  17.215  18.573  0.00  0.00    +0.000 C 
ATOM      3  N   UNL     1       8.709  17.200  19.787  0.00  0.00    +0.000 N 
ATOM      4  CA  UNL     1       8.770  15.921  20.493  0.00  0.00    +0.000 C 
ATOM      5  C   UNL     1       9.726  15.732  21.681  0.00  0.00    +0.000 C 
ATOM      6  C   UNL     1       9.851  14.224  21.879  0.00  0.00    +0.000 A 
ATOM      7  C   UNL     1       9.070  13.536  22.806  0.00  0.00    +0.000 A 
ATOM      8  C   UNL     1       8.762  12.181  22.605  0.00  0.00    +0.000 A 
ATOM      9  C   UNL     1       9.175  11.524  21.448  0.00  0.00    +0.000 A 
ATOM     10  C   UNL     1       9.985  12.180  20.507  0.00  0.00    +0.000 A 
ATOM     11  C   UNL     1      10.445  13.474  20.847  0.00  0.00    +0.000 A 
ATOM     12  C   UNL     1      10.024  11.830  19.055  0.00  0.00    +0.000 A 
ATOM     13  C   UNL     1       8.966  12.428  18.339  0.00  0.00    +0.000 A 
ATOM     14  C   UNL     1       9.220  13.628  17.654  0.00  0.00    +0.000 A 
ATOM     15  C   UNL     1      10.520  13.773  17.154  0.00  0.00    +0.000 A 
ATOM     16  C   UNL     1      11.525  12.813  17.461  0.00  0.00    +0.000 A 
ATOM     17  C   UNL     1      11.272  11.861  18.446  0.00  0.00    +0.000 A 
ATOM     18  C   UNL     1       8.069  14.704  17.431  0.00  0.00    +0.000 C 
ATOM     19  CA  UNL     1       7.247  15.893  18.248  0.00  0.00    +0.000 C 
ATOM     20  N   UNL     1       6.596  15.495  19.519  0.00  0.00    +0.000 N 
ATOM     21  C   UNL     1       7.304  15.516  20.712  0.00  0.00    +0.000 C 
ATOM     22  O   UNL     1       6.771  15.246  21.778  0.00  0.00    +0.000 OA
ATOM     23  H   UNL     1       9.174  18.043  20.109  0.00  0.00    +0.000 HD
ATOM     24  H   UNL     1       5.610  15.260  19.568  0.00  0.00    +0.000 HD
ENDROOT
BRANCH   9  25
ATOM     25  O   UNL     1       8.692  10.269  21.144  0.00  0.00    +0.000 OA
ATOM     26  H   UNL     1       9.133   9.976  20.333  0.00  0.00    +0.000 HD
ENDBRANCH   9  25
BRANCH  17  27
ATOM     27  O   UNL     1      12.314  11.083  18.907  0.00  0.00    +0.000 OA
ATOM     28  H   UNL     1      12.317  11.202  19.878  0.00  0.00    +0.000 HD
ENDBRANCH  17  27
TORSDOF 2
ENDMDL
