MODEL 1
REMARK VINA RESULT:      -6.5      0.000      0.000
REMARK  Name = 
REMARK  7 active torsions:
REMARK  status: ('A' for Active; 'I' for Inactive)
REMARK    1  A    between atoms: C_1  and  C_2
REMARK    2  A    between atoms: C_2  and  C_3
REMARK    3  A    between atoms: C_5  and  C_6
REMARK    4  A    between atoms: N_8  and  C_9
REMARK    5  A    between atoms: C_9  and  C_10
REMARK    6  A    between atoms: N_13  and  S_14
REMARK    7  A    between atoms: S_14  and  N_15
REMARK                            x       y       z     vdW  Elec       q    Type
REMARK                         _______ _______ _______ _____ _____    ______ ____
ROOT
ATOM      1  C   UNL     1       6.180   5.415  19.209  0.00  0.00    +0.000 C 
ATOM      2  C   UNL     1       7.358   6.116  18.523  0.00  0.00    +0.000 C 
ATOM      3  C   UNL     1       7.202   6.207  17.009  0.00  0.00    +0.000 C 
ATOM      4  N   UNL     1       6.948   4.875  16.392  0.00  0.00    +0.000 NA
ATOM      5  C   UNL     1       5.863   4.086  17.048  0.00  0.00    +0.000 C 
ATOM      6  C   UNL     1       6.028   4.031  18.565  0.00  0.00    +0.000 C 
ENDROOT
BRANCH   4   7
ATOM      7  S   UNL     1       6.766   4.925  14.696  0.00  0.00    +0.000 S 
ATOM      8  O   UNL     1       7.921   5.564  14.119  0.00  0.00    +0.000 OA
ATOM      9  O   UNL     1       6.264   3.648  14.258  0.00  0.00    +0.000 OA
BRANCH   7  10
ATOM     10  N   UNL     1       5.530   6.021  14.617  0.00  0.00    +0.000 NA
ATOM     11  H   UNL     1       5.685   6.827  15.215  0.00  0.00    +0.000 HD
ATOM     12  H   UNL     1       4.600   5.617  14.588  0.00  0.00    +0.000 HD
ENDBRANCH   7  10
ENDBRANCH   4   7
BRANCH   1  13
ATOM     13  C   UNL     1       4.865   6.218  19.166  0.00  0.00    +0.000 C 
BRANCH  13  16
ATOM     14  C   UNL     1       2.621   5.153  19.185  0.00  0.00    +0.000 C 
ATOM     15  O   UNL     1       2.405   5.338  17.996  0.00  0.00    +0.000 OA
ATOM     16  N   UNL     1       3.772   5.536  19.835  0.00  0.00    +0.000 N 
ATOM     17  H   UNL     1       3.855   5.345  20.824  0.00  0.00    +0.000 HD
BRANCH  14  22
ATOM     18  C   UNL     1       1.369   2.566  21.825  0.00  0.00    +0.000 C 
ATOM     19  C   UNL     1       1.739   2.986  20.425  0.00  0.00    +0.000 C 
ATOM     20  C   UNL     1       2.853   2.172  19.816  0.00  0.00    +0.000 C 
ATOM     21  C   UNL     1       0.632   3.476  19.517  0.00  0.00    +0.000 C 
ATOM     22  C   UNL     1       1.625   4.470  20.076  0.00  0.00    +0.000 C 
ENDBRANCH  14  22
ENDBRANCH  13  16
ENDBRANCH   1  13
TORSDOF 5
ENDMDL
MODEL 2
REMARK VINA RESULT:      -6.4      0.799      1.009
REMARK  Name = 
REMARK  7 active torsions:
REMARK  status: ('A' for Active; 'I' for Inactive)
REMARK    1  A    between atoms: C_1  and  C_2
REMARK    2  A    between atoms: C_2  and  C_3
REMARK    3  A    between atoms: C_5  and  C_6
REMARK    4  A    between atoms: N_8  and  C_9
REMARK    5  A    between atoms: C_9  and  C_10
REMARK    6  A    between atoms: N_13  and  S_14
REMARK    7  A    between atoms: S_14  and  N_15
REMARK                            x       y       z     vdW  Elec       q    Type
REMARK                         _______ _______ _______ _____ _____    ______ ____
ROOT
ATOM      1  C   UNL     1       6.145   5.383  19.198  0.00  0.00    +0.000 C 
ATOM      2  C   UNL     1       7.327   6.104  18.540  0.00  0.00    +0.000 C 
ATOM      3  C   UNL     1       7.160   6.277  17.034  0.00  0.00    +0.000 C 
ATOM      4  N   UNL     1       6.882   4.985  16.349  0.00  0.00    +0.000 NA
ATOM      5  C   UNL     1       5.792   4.176  16.972  0.00  0.00    +0.000 C 
ATOM      6  C   UNL     1       5.968   4.038  18.482  0.00  0.00    +0.000 C 
ENDROOT
BRANCH   4   7
ATOM      7  S   UNL     1       6.687   5.128  14.660  0.00  0.00    +0.000 S 
ATOM      8  O   UNL     1       5.481   5.868  14.389  0.00  0.00    +0.000 OA
ATOM      9  O   UNL     1       7.966   5.457  14.084  0.00  0.00    +0.000 OA
BRANCH   7  10
ATOM     10  N   UNL     1       6.358   3.544  14.319  0.00  0.00    +0.000 NA
ATOM     11  H   UNL     1       5.404   3.405  13.997  0.00  0.00    +0.000 HD
ATOM     12  H   UNL     1       6.745   2.875  14.975  0.00  0.00    +0.000 HD
ENDBRANCH   7  10
ENDBRANCH   4   7
BRANCH   1  13
ATOM     13  C   UNL     1       4.841   6.205  19.210  0.00  0.00    +0.000 C 
BRANCH  13  16
ATOM     14  C   UNL     1       2.592   5.151  19.227  0.00  0.00    +0.000 C 
ATOM     15  O   UNL     1       2.365   5.364  18.045  0.00  0.00    +0.000 OA
ATOM     16  N   UNL     1       3.751   5.514  19.875  0.00  0.00    +0.000 N 
ATOM     17  H   UNL     1       3.843   5.300  20.857  0.00  0.00    +0.000 HD
BRANCH  14  22
ATOM     18  C   UNL     1       1.358   2.528  21.840  0.00  0.00    +0.000 C 
ATOM     19  C   UNL     1       1.722   2.967  20.444  0.00  0.00    +0.000 C 
ATOM     20  C   UNL     1       2.839   2.164  19.824  0.00  0.00    +0.000 C 
ATOM     21  C   UNL     1       0.612   3.461  19.544  0.00  0.00    +0.000 C 
ATOM     22  C   UNL     1       1.601   4.453  20.113  0.00  0.00    +0.000 C 
ENDBRANCH  14  22
ENDBRANCH  13  16
ENDBRANCH   1  13
TORSDOF 5
ENDMDL
MODEL 3
REMARK VINA RESULT:      -6.3      3.501      6.699
REMARK  Name = 
REMARK  7 active torsions:
REMARK  status: ('A' for Active; 'I' for Inactive)
REMARK    1  A    between atoms: C_1  and  C_2
REMARK    2  A    between atoms: C_2  and  C_3
REMARK    3  A    between atoms: C_5  and  C_6
REMARK    4  A    between atoms: N_8  and  C_9
REMARK    5  A    between atoms: C_9  and  C_10
REMARK    6  A    between atoms: N_13  and  S_14
REMARK    7  A    between atoms: S_14  and  N_15
REMARK                            x       y       z     vdW  Elec       q    Type
REMARK                         _______ _______ _______ _____ _____    ______ ____
ROOT
ATOM      1  C   UNL     1       5.510   5.774  17.342  0.00  0.00    +0.000 C 
ATOM      2  C   UNL     1       5.544   4.259  17.574  0.00  0.00    +0.000 C 
ATOM      3  C   UNL     1       4.172   3.604  17.456  0.00  0.00    +0.000 C 
ATOM      4  N   UNL     1       3.164   4.253  18.340  0.00  0.00    +0.000 NA
ATOM      5  C   UNL     1       3.116   5.742  18.235  0.00  0.00    +0.000 C 
ATOM      6  C   UNL     1       4.503   6.371  18.332  0.00  0.00    +0.000 C 
ENDROOT
BRANCH   4   7
ATOM      7  S   UNL     1       1.611   3.554  18.242  0.00  0.00    +0.000 S 
ATOM      8  O   UNL     1       1.073   3.418  19.572  0.00  0.00    +0.000 OA
ATOM      9  O   UNL     1       0.899   4.184  17.159  0.00  0.00    +0.000 OA
BRANCH   7  10
ATOM     10  N   UNL     1       2.058   2.039  17.754  0.00  0.00    +0.000 NA
ATOM     11  H   UNL     1       3.037   1.842  17.940  0.00  0.00    +0.000 HD
ATOM     12  H   UNL     1       1.669   1.742  16.865  0.00  0.00    +0.000 HD
ENDBRANCH   7  10
ENDBRANCH   4   7
BRANCH   1  13
ATOM     13  C   UNL     1       5.195   6.175  15.887  0.00  0.00    +0.000 C 
BRANCH  13  16
ATOM     14  C   UNL     1       6.477   4.648  14.407  0.00  0.00    +0.000 C 
ATOM     15  O   UNL     1       7.560   5.171  14.626  0.00  0.00    +0.000 OA
ATOM     16  N   UNL     1       5.288   5.057  14.967  0.00  0.00    +0.000 N 
ATOM     17  H   UNL     1       4.442   4.564  14.718  0.00  0.00    +0.000 HD
BRANCH  14  22
ATOM     18  C   UNL     1       7.368   2.356  11.376  0.00  0.00    +0.000 C 
ATOM     19  C   UNL     1       6.718   3.564  12.004  0.00  0.00    +0.000 C 
ATOM     20  C   UNL     1       7.206   4.879  11.449  0.00  0.00    +0.000 C 
ATOM     21  C   UNL     1       5.265   3.455  12.410  0.00  0.00    +0.000 C 
ATOM     22  C   UNL     1       6.334   3.476  13.480  0.00  0.00    +0.000 C 
ENDBRANCH  14  22
ENDBRANCH  13  16
ENDBRANCH   1  13
TORSDOF 5
ENDMDL
MODEL 4
REMARK VINA RESULT:      -6.2      1.719      2.137
REMARK  Name = 
REMARK  7 active torsions:
REMARK  status: ('A' for Active; 'I' for Inactive)
REMARK    1  A    between atoms: C_1  and  C_2
REMARK    2  A    between atoms: C_2  and  C_3
REMARK    3  A    between atoms: C_5  and  C_6
REMARK    4  A    between atoms: N_8  and  C_9
REMARK    5  A    between atoms: C_9  and  C_10
REMARK    6  A    between atoms: N_13  and  S_14
REMARK    7  A    between atoms: S_14  and  N_15
REMARK                            x       y       z     vdW  Elec       q    Type
REMARK                         _______ _______ _______ _____ _____    ______ ____
ROOT
ATOM      1  C   UNL     1       3.596   6.977  18.173  0.00  0.00    +0.000 C 
ATOM      2  C   UNL     1       4.477   7.622  17.097  0.00  0.00    +0.000 C 
ATOM      3  C   UNL     1       5.242   6.604  16.259  0.00  0.00    +0.000 C 
ATOM      4  N   UNL     1       6.038   5.669  17.103  0.00  0.00    +0.000 NA
ATOM      5  C   UNL     1       5.276   5.051  18.229  0.00  0.00    +0.000 C 
ATOM      6  C   UNL     1       4.499   6.088  19.036  0.00  0.00    +0.000 C 
ENDROOT
BRANCH   4   7
ATOM      7  S   UNL     1       6.913   4.509  16.209  0.00  0.00    +0.000 S 
ATOM      8  O   UNL     1       8.102   4.153  16.941  0.00  0.00    +0.000 OA
ATOM      9  O   UNL     1       5.980   3.540  15.691  0.00  0.00    +0.000 OA
BRANCH   7  10
ATOM     10  N   UNL     1       7.397   5.479  14.961  0.00  0.00    +0.000 NA
ATOM     11  H   UNL     1       8.239   5.139  14.506  0.00  0.00    +0.000 HD
ATOM     12  H   UNL     1       7.315   6.475  15.136  0.00  0.00    +0.000 HD
ENDBRANCH   7  10
ENDBRANCH   4   7
BRANCH   1  13
ATOM     13  C   UNL     1       2.391   6.199  17.609  0.00  0.00    +0.000 C 
BRANCH  13  16
ATOM     14  C   UNL     1       1.597   3.933  18.246  0.00  0.00    +0.000 C 
ATOM     15  O   UNL     1       1.815   3.433  17.152  0.00  0.00    +0.000 OA
ATOM     16  N   UNL     1       1.843   5.250  18.561  0.00  0.00    +0.000 N 
ATOM     17  H   UNL     1       1.622   5.574  19.492  0.00  0.00    +0.000 HD
BRANCH  14  22
ATOM     18  C   UNL     1       1.409   2.506  21.873  0.00  0.00    +0.000 C 
ATOM     19  C   UNL     1       1.912   2.503  20.451  0.00  0.00    +0.000 C 
ATOM     20  C   UNL     1       3.410   2.633  20.333  0.00  0.00    +0.000 C 
ATOM     21  C   UNL     1       1.188   1.637  19.445  0.00  0.00    +0.000 C 
ATOM     22  C   UNL     1       1.024   3.139  19.383  0.00  0.00    +0.000 C 
ENDBRANCH  14  22
ENDBRANCH  13  16
ENDBRANCH   1  13
TORSDOF 5
ENDMDL
MODEL 5
REMARK VINA RESULT:      -6.2      3.063      6.560
REMARK  Name = 
REMARK  7 active torsions:
REMARK  status: ('A' for Active; 'I' for Inactive)
REMARK    1  A    between atoms: C_1  and  C_2
REMARK    2  A    between atoms: C_2  and  C_3
REMARK    3  A    between atoms: C_5  and  C_6
REMARK    4  A    between atoms: N_8  and  C_9
REMARK    5  A    between atoms: C_9  and  C_10
REMARK    6  A    between atoms: N_13  and  S_14
REMARK    7  A    between atoms: S_14  and  N_15
REMARK                            x       y       z     vdW  Elec       q    Type
REMARK                         _______ _______ _______ _____ _____    ______ ____
ROOT
ATOM      1  C   UNL     1       2.854   3.288  16.955  0.00  0.00    +0.000 C 
ATOM      2  C   UNL     1       2.183   4.442  17.710  0.00  0.00    +0.000 C 
ATOM      3  C   UNL     1       2.419   4.388  19.216  0.00  0.00    +0.000 C 
ATOM      4  N   UNL     1       2.026   3.075  19.798  0.00  0.00    +0.000 NA
ATOM      5  C   UNL     1       2.573   1.889  19.075  0.00  0.00    +0.000 C 
ATOM      6  C   UNL     1       2.346   1.977  17.567  0.00  0.00    +0.000 C 
ENDROOT
BRANCH   4   7
ATOM      7  S   UNL     1       2.272   2.967  21.483  0.00  0.00    +0.000 S 
ATOM      8  O   UNL     1       1.028   2.610  22.116  0.00  0.00    +0.000 OA
ATOM      9  O   UNL     1       3.510   2.266  21.714  0.00  0.00    +0.000 OA
BRANCH   7  10
ATOM     10  N   UNL     1       2.520   4.571  21.795  0.00  0.00    +0.000 NA
ATOM     11  H   UNL     1       3.437   4.754  22.191  0.00  0.00    +0.000 HD
ATOM     12  H   UNL     1       1.722   5.060  22.187  0.00  0.00    +0.000 HD
ENDBRANCH   7  10
ENDBRANCH   4   7
BRANCH   1  13
ATOM     13  C   UNL     1       4.393   3.361  16.943  0.00  0.00    +0.000 C 
BRANCH  13  16
ATOM     14  C   UNL     1       6.080   5.108  16.420  0.00  0.00    +0.000 C 
ATOM     15  O   UNL     1       6.830   4.354  15.817  0.00  0.00    +0.000 OA
ATOM     16  N   UNL     1       4.888   4.725  16.993  0.00  0.00    +0.000 N 
ATOM     17  H   UNL     1       4.339   5.420  17.479  0.00  0.00    +0.000 HD
BRANCH  14  22
ATOM     18  C   UNL     1       8.161   8.201  17.575  0.00  0.00    +0.000 C 
ATOM     19  C   UNL     1       7.184   7.076  17.805  0.00  0.00    +0.000 C 
ATOM     20  C   UNL     1       7.617   6.097  18.868  0.00  0.00    +0.000 C 
ATOM     21  C   UNL     1       5.708   7.381  17.674  0.00  0.00    +0.000 C 
ATOM     22  C   UNL     1       6.393   6.564  16.601  0.00  0.00    +0.000 C 
ENDBRANCH  14  22
ENDBRANCH  13  16
ENDBRANCH   1  13
TORSDOF 5
ENDMDL
MODEL 6
REMARK VINA RESULT:      -6.1      3.698      4.809
REMARK  Name = 
REMARK  7 active torsions:
REMARK  status: ('A' for Active; 'I' for Inactive)
REMARK    1  A    between atoms: C_1  and  C_2
REMARK    2  A    between atoms: C_2  and  C_3
REMARK    3  A    between atoms: C_5  and  C_6
REMARK    4  A    between atoms: N_8  and  C_9
REMARK    5  A    between atoms: C_9  and  C_10
REMARK    6  A    between atoms: N_13  and  S_14
REMARK    7  A    between atoms: S_14  and  N_15
REMARK                            x       y       z     vdW  Elec       q    Type
REMARK                         _______ _______ _______ _____ _____    ______ ____
ROOT
ATOM      1  C   UNL     1       2.973   5.450  18.602  0.00  0.00    +0.000 C 
ATOM      2  C   UNL     1       4.245   5.521  19.455  0.00  0.00    +0.000 C 
ATOM      3  C   UNL     1       5.513   5.697  18.626  0.00  0.00    +0.000 C 
ATOM      4  N   UNL     1       5.641   4.653  17.571  0.00  0.00    +0.000 NA
ATOM      5  C   UNL     1       4.416   4.461  16.739  0.00  0.00    +0.000 C 
ATOM      6  C   UNL     1       3.158   4.312  17.590  0.00  0.00    +0.000 C 
ENDROOT
BRANCH   4   7
ATOM      7  S   UNL     1       7.046   4.809  16.616  0.00  0.00    +0.000 S 
ATOM      8  O   UNL     1       6.938   3.932  15.477  0.00  0.00    +0.000 OA
ATOM      9  O   UNL     1       7.368   6.209  16.511  0.00  0.00    +0.000 OA
BRANCH   7  10
ATOM     10  N   UNL     1       8.124   4.107  17.654  0.00  0.00    +0.000 NA
ATOM     11  H   UNL     1       8.985   4.638  17.740  0.00  0.00    +0.000 HD
ATOM     12  H   UNL     1       8.188   3.097  17.587  0.00  0.00    +0.000 HD
ENDBRANCH   7  10
ENDBRANCH   4   7
BRANCH   1  13
ATOM     13  C   UNL     1       2.608   6.780  17.914  0.00  0.00    +0.000 C 
BRANCH  13  16
ATOM     14  C   UNL     1       1.828   9.070  18.475  0.00  0.00    +0.000 C 
ATOM     15  O   UNL     1       1.934   9.501  17.336  0.00  0.00    +0.000 OA
ATOM     16  N   UNL     1       2.125   7.779  18.849  0.00  0.00    +0.000 N 
ATOM     17  H   UNL     1       2.013   7.518  19.819  0.00  0.00    +0.000 HD
BRANCH  14  22
ATOM     18  C   UNL     1      -0.760  10.582  20.974  0.00  0.00    +0.000 C 
ATOM     19  C   UNL     1      -0.059  10.516  19.641  0.00  0.00    +0.000 C 
ATOM     20  C   UNL     1      -0.984  10.265  18.475  0.00  0.00    +0.000 C 
ATOM     21  C   UNL     1       1.137  11.416  19.423  0.00  0.00    +0.000 C 
ATOM     22  C   UNL     1       1.352   9.930  19.610  0.00  0.00    +0.000 C 
ENDBRANCH  14  22
ENDBRANCH  13  16
ENDBRANCH   1  13
TORSDOF 5
ENDMDL
MODEL 7
REMARK VINA RESULT:      -6.0      3.445      6.459
REMARK  Name = 
REMARK  7 active torsions:
REMARK  status: ('A' for Active; 'I' for Inactive)
REMARK    1  A    between atoms: C_1  and  C_2
REMARK    2  A    between atoms: C_2  and  C_3
REMARK    3  A    between atoms: C_5  and  C_6
REMARK    4  A    between atoms: N_8  and  C_9
REMARK    5  A    between atoms: C_9  and  C_10
REMARK    6  A    between atoms: N_13  and  S_14
REMARK    7  A    between atoms: S_14  and  N_15
REMARK                            x       y       z     vdW  Elec       q    Type
REMARK                         _______ _______ _______ _____ _____    ______ ____
ROOT
ATOM      1  C   UNL     1       5.881   5.599  17.855  0.00  0.00    +0.000 C 
ATOM      2  C   UNL     1       5.517   5.263  19.306  0.00  0.00    +0.000 C 
ATOM      3  C   UNL     1       4.795   3.927  19.448  0.00  0.00    +0.000 C 
ATOM      4  N   UNL     1       3.596   3.842  18.569  0.00  0.00    +0.000 NA
ATOM      5  C   UNL     1       3.842   4.229  17.148  0.00  0.00    +0.000 C 
ATOM      6  C   UNL     1       4.587   5.556  17.032  0.00  0.00    +0.000 C 
ENDROOT
BRANCH   4   7
ATOM      7  S   UNL     1       2.754   2.364  18.694  0.00  0.00    +0.000 S 
ATOM      8  O   UNL     1       2.222   2.238  20.026  0.00  0.00    +0.000 OA
ATOM      9  O   UNL     1       1.960   2.194  17.503  0.00  0.00    +0.000 OA
BRANCH   7  10
ATOM     10  N   UNL     1       4.048   1.339  18.602  0.00  0.00    +0.000 NA
ATOM     11  H   UNL     1       4.195   0.819  19.461  0.00  0.00    +0.000 HD
ATOM     12  H   UNL     1       4.860   1.716  18.125  0.00  0.00    +0.000 HD
ENDBRANCH   7  10
ENDBRANCH   4   7
BRANCH   1  13
ATOM     13  C   UNL     1       6.973   4.689  17.258  0.00  0.00    +0.000 C 
BRANCH  13  16
ATOM     14  C   UNL     1       6.755   4.377  14.804  0.00  0.00    +0.000 C 
ATOM     15  O   UNL     1       7.373   5.390  14.512  0.00  0.00    +0.000 OA
ATOM     16  N   UNL     1       6.514   3.956  16.092  0.00  0.00    +0.000 N 
ATOM     17  H   UNL     1       5.986   3.107  16.233  0.00  0.00    +0.000 HD
BRANCH  14  22
ATOM     18  C   UNL     1       6.704   2.342  11.474  0.00  0.00    +0.000 C 
ATOM     19  C   UNL     1       6.545   3.607  12.280  0.00  0.00    +0.000 C 
ATOM     20  C   UNL     1       7.467   4.723  11.853  0.00  0.00    +0.000 C 
ATOM     21  C   UNL     1       5.159   3.970  12.763  0.00  0.00    +0.000 C 
ATOM     22  C   UNL     1       6.182   3.467  13.757  0.00  0.00    +0.000 C 
ENDBRANCH  14  22
ENDBRANCH  13  16
ENDBRANCH   1  13
TORSDOF 5
ENDMDL
MODEL 8
REMARK VINA RESULT:      -6.0      1.510      2.058
REMARK  Name = 
REMARK  7 active torsions:
REMARK  status: ('A' for Active; 'I' for Inactive)
REMARK    1  A    between atoms: C_1  and  C_2
REMARK    2  A    between atoms: C_2  and  C_3
REMARK    3  A    between atoms: C_5  and  C_6
REMARK    4  A    between atoms: N_8  and  C_9
REMARK    5  A    between atoms: C_9  and  C_10
REMARK    6  A    between atoms: N_13  and  S_14
REMARK    7  A    between atoms: S_14  and  N_15
REMARK                            x       y       z     vdW  Elec       q    Type
REMARK                         _______ _______ _______ _____ _____    ______ ____
ROOT
ATOM      1  C   UNL     1       3.941   6.793  18.192  0.00  0.00    +0.000 C 
ATOM      2  C   UNL     1       4.658   7.614  17.114  0.00  0.00    +0.000 C 
ATOM      3  C   UNL     1       5.038   6.790  15.888  0.00  0.00    +0.000 C 
ATOM      4  N   UNL     1       5.832   5.583  16.249  0.00  0.00    +0.000 NA
ATOM      5  C   UNL     1       5.244   4.763  17.350  0.00  0.00    +0.000 C 
ATOM      6  C   UNL     1       4.850   5.613  18.555  0.00  0.00    +0.000 C 
ENDROOT
BRANCH   4   7
ATOM      7  S   UNL     1       6.281   4.628  14.908  0.00  0.00    +0.000 S 
ATOM      8  O   UNL     1       5.158   4.521  14.012  0.00  0.00    +0.000 OA
ATOM      9  O   UNL     1       7.598   5.033  14.486  0.00  0.00    +0.000 OA
BRANCH   7  10
ATOM     10  N   UNL     1       6.411   3.172  15.681  0.00  0.00    +0.000 NA
ATOM     11  H   UNL     1       5.666   2.529  15.428  0.00  0.00    +0.000 HD
ATOM     12  H   UNL     1       6.687   3.227  16.655  0.00  0.00    +0.000 HD
ENDBRANCH   7  10
ENDBRANCH   4   7
BRANCH   1  13
ATOM     13  C   UNL     1       2.528   6.330  17.786  0.00  0.00    +0.000 C 
BRANCH  13  16
ATOM     14  C   UNL     1       1.580   4.098  18.324  0.00  0.00    +0.000 C 
ATOM     15  O   UNL     1       1.662   3.669  17.183  0.00  0.00    +0.000 OA
ATOM     16  N   UNL     1       1.972   5.359  18.712  0.00  0.00    +0.000 N 
ATOM     17  H   UNL     1       1.857   5.626  19.679  0.00  0.00    +0.000 HD
BRANCH  14  22
ATOM     18  C   UNL     1       1.499   2.495  21.882  0.00  0.00    +0.000 C 
ATOM     19  C   UNL     1       1.937   2.547  20.440  0.00  0.00    +0.000 C 
ATOM     20  C   UNL     1       3.433   2.628  20.258  0.00  0.00    +0.000 C 
ATOM     21  C   UNL     1       1.136   1.760  19.427  0.00  0.00    +0.000 C 
ATOM     22  C   UNL     1       1.027   3.269  19.447  0.00  0.00    +0.000 C 
ENDBRANCH  14  22
ENDBRANCH  13  16
ENDBRANCH   1  13
TORSDOF 5
ENDMDL
MODEL 9
REMARK VINA RESULT:      -6.0      3.838      4.963
REMARK  Name = 
REMARK  7 active torsions:
REMARK  status: ('A' for Active; 'I' for Inactive)
REMARK    1  A    between atoms: C_1  and  C_2
REMARK    2  A    between atoms: C_2  and  C_3
REMARK    3  A    between atoms: C_5  and  C_6
REMARK    4  A    between atoms: N_8  and  C_9
REMARK    5  A    between atoms: C_9  and  C_10
REMARK    6  A    between atoms: N_13  and  S_14
REMARK    7  A    between atoms: S_14  and  N_15
REMARK                            x       y       z     vdW  Elec       q    Type
REMARK                         _______ _______ _______ _____ _____    ______ ____
ROOT
ATOM      1  C   UNL     1       3.208   5.899  18.778  0.00  0.00    +0.000 C 
ATOM      2  C   UNL     1       4.456   5.490  19.569  0.00  0.00    +0.000 C 
ATOM      3  C   UNL     1       5.735   5.546  18.740  0.00  0.00    +0.000 C 
ATOM      4  N   UNL     1       5.622   4.756  17.482  0.00  0.00    +0.000 NA
ATOM      5  C   UNL     1       4.391   5.035  16.684  0.00  0.00    +0.000 C 
ATOM      6  C   UNL     1       3.128   4.997  17.541  0.00  0.00    +0.000 C 
ENDROOT
BRANCH   4   7
ATOM      7  S   UNL     1       7.030   4.789  16.519  0.00  0.00    +0.000 S 
ATOM      8  O   UNL     1       6.879   3.853  15.435  0.00  0.00    +0.000 OA
ATOM      9  O   UNL     1       7.417   6.165  16.332  0.00  0.00    +0.000 OA
BRANCH   7  10
ATOM     10  N   UNL     1       8.077   4.100  17.598  0.00  0.00    +0.000 NA
ATOM     11  H   UNL     1       7.658   3.330  18.110  0.00  0.00    +0.000 HD
ATOM     12  H   UNL     1       8.660   4.755  18.108  0.00  0.00    +0.000 HD
ENDBRANCH   7  10
ENDBRANCH   4   7
BRANCH   1  13
ATOM     13  C   UNL     1       3.168   7.394  18.406  0.00  0.00    +0.000 C 
BRANCH  13  16
ATOM     14  C   UNL     1       1.486   9.217  18.281  0.00  0.00    +0.000 C 
ATOM     15  O   UNL     1       2.048   9.820  17.378  0.00  0.00    +0.000 OA
ATOM     16  N   UNL     1       1.944   8.044  18.837  0.00  0.00    +0.000 N 
ATOM     17  H   UNL     1       1.412   7.624  19.586  0.00  0.00    +0.000 HD
BRANCH  14  22
ATOM     18  C   UNL     1      -1.103  11.869  19.502  0.00  0.00    +0.000 C 
ATOM     19  C   UNL     1       0.134  11.023  19.666  0.00  0.00    +0.000 C 
ATOM     20  C   UNL     1       1.397  11.822  19.875  0.00  0.00    +0.000 C 
ATOM     21  C   UNL     1      -0.002   9.700  20.386  0.00  0.00    +0.000 C 
ATOM     22  C   UNL     1       0.205   9.710  18.888  0.00  0.00    +0.000 C 
ENDBRANCH  14  22
ENDBRANCH  13  16
ENDBRANCH   1  13
TORSDOF 5
ENDMDL
