MODEL 1
REMARK VINA RESULT:      -8.4      0.000      0.000
REMARK  Name = 
REMARK  6 active torsions:
REMARK  status: ('A' for Active; 'I' for Inactive)
REMARK    1  A    between atoms: C_1  and  C_2
REMARK    2  A    between atoms: C_2  and  C_3
REMARK    3  A    between atoms: C_2  and  C_4
REMARK    4  A    between atoms: C_4  and  N_5
REMARK    5  A    between atoms: N_8  and  C_9
REMARK    6  A    between atoms: C_19  and  C_20
REMARK                            x       y       z     vdW  Elec       q    Type
REMARK                         _______ _______ _______ _____ _____    ______ ____
ROOT
ATOM      1  N   UNL     1      -0.984  11.367  19.521  0.00  0.00    +0.000 N 
ATOM      2  C   UNL     1      -1.536  11.908  20.684  0.00  0.00    +0.000 A 
ATOM      3  O   UNL     1      -2.387  12.805  20.643  0.00  0.00    +0.000 OA
ATOM      4  N   UNL     1      -1.123  11.370  21.890  0.00  0.00    +0.000 N 
ATOM      5  C   UNL     1      -1.758  11.822  23.116  0.00  0.00    +0.000 C 
ATOM      6  C   UNL     1      -0.153  10.394  22.034  0.00  0.00    +0.000 A 
ATOM      7  O   UNL     1       0.202   9.942  23.121  0.00  0.00    +0.000 OA
ATOM      8  C   UNL     1       0.451   9.871  20.805  0.00  0.00    +0.000 A 
ATOM      9  C   UNL     1       1.382   8.825  20.919  0.00  0.00    +0.000 A 
ATOM     10  C   UNL     1       1.862   8.279  19.764  0.00  0.00    +0.000 A 
ATOM     11  C   UNL     1       1.508   8.770  18.526  0.00  0.00    +0.000 A 
ATOM     12  C   UNL     1       0.624   9.828  18.389  0.00  0.00    +0.000 A 
ATOM     13  C   UNL     1       0.035  10.366  19.553  0.00  0.00    +0.000 A 
ATOM     14  O   UNL     1       2.078   8.031  17.520  0.00  0.00    +0.000 OA
ATOM     15  C   UNL     1       2.421   6.841  18.279  0.00  0.00    +0.000 C 
ATOM     16  O   UNL     1       2.646   7.170  19.668  0.00  0.00    +0.000 OA
ENDROOT
BRANCH  15  17
ATOM     17  C   UNL     1       3.536   5.977  17.708  0.00  0.00    +0.000 A 
ATOM     18  C   UNL     1       3.397   4.576  17.688  0.00  0.00    +0.000 A 
ATOM     19  C   UNL     1       4.306   3.768  17.000  0.00  0.00    +0.000 A 
ATOM     20  C   UNL     1       5.367   4.349  16.314  0.00  0.00    +0.000 A 
ATOM     21  C   UNL     1       5.529   5.734  16.333  0.00  0.00    +0.000 A 
ATOM     22  C   UNL     1       4.622   6.543  17.021  0.00  0.00    +0.000 A 
ENDBRANCH  15  17
BRANCH   1  23
ATOM     23  C   UNL     1      -1.619  11.764  18.254  0.00  0.00    +0.000 C 
BRANCH  23  25
ATOM     24  C   UNL     1      -4.132  11.554  17.740  0.00  0.00    +0.000 C 
ATOM     25  C   UNL     1      -2.783  10.832  17.836  0.00  0.00    +0.000 C 
ATOM     26  C   UNL     1      -2.476  10.179  16.486  0.00  0.00    +0.000 C 
ENDBRANCH  23  25
ENDBRANCH   1  23
TORSDOF 3
ENDMDL
MODEL 2
REMARK VINA RESULT:      -8.0      3.571      8.421
REMARK  Name = 
REMARK  6 active torsions:
REMARK  status: ('A' for Active; 'I' for Inactive)
REMARK    1  A    between atoms: C_1  and  C_2
REMARK    2  A    between atoms: C_2  and  C_3
REMARK    3  A    between atoms: C_2  and  C_4
REMARK    4  A    between atoms: C_4  and  N_5
REMARK    5  A    between atoms: N_8  and  C_9
REMARK    6  A    between atoms: C_19  and  C_20
REMARK                            x       y       z     vdW  Elec       q    Type
REMARK                         _______ _______ _______ _____ _____    ______ ____
ROOT
ATOM      1  N   UNL     1       3.888   4.926  17.525  0.00  0.00    +0.000 N 
ATOM      2  C   UNL     1       4.059   3.541  17.489  0.00  0.00    +0.000 A 
ATOM      3  O   UNL     1       4.780   2.998  16.643  0.00  0.00    +0.000 OA
ATOM      4  N   UNL     1       3.422   2.799  18.467  0.00  0.00    +0.000 N 
ATOM      5  C   UNL     1       3.668   1.368  18.537  0.00  0.00    +0.000 C 
ATOM      6  C   UNL     1       2.570   3.315  19.427  0.00  0.00    +0.000 A 
ATOM      7  O   UNL     1       2.008   2.628  20.278  0.00  0.00    +0.000 OA
ATOM      8  C   UNL     1       2.363   4.766  19.421  0.00  0.00    +0.000 A 
ATOM      9  C   UNL     1       1.564   5.324  20.433  0.00  0.00    +0.000 A 
ATOM     10  C   UNL     1       1.461   6.685  20.477  0.00  0.00    +0.000 A 
ATOM     11  C   UNL     1       2.055   7.489  19.530  0.00  0.00    +0.000 A 
ATOM     12  C   UNL     1       2.812   6.960  18.498  0.00  0.00    +0.000 A 
ATOM     13  C   UNL     1       3.020   5.564  18.464  0.00  0.00    +0.000 A 
ATOM     14  O   UNL     1       1.850   8.817  19.810  0.00  0.00    +0.000 OA
ATOM     15  C   UNL     1       1.470   8.698  21.207  0.00  0.00    +0.000 C 
ATOM     16  O   UNL     1       0.863   7.410  21.462  0.00  0.00    +0.000 OA
ENDROOT
BRANCH  15  17
ATOM     17  C   UNL     1       0.646   9.841  21.780  0.00  0.00    +0.000 A 
ATOM     18  C   UNL     1       0.625  11.088  21.126  0.00  0.00    +0.000 A 
ATOM     19  C   UNL     1      -0.265  12.093  21.510  0.00  0.00    +0.000 A 
ATOM     20  C   UNL     1      -1.157  11.866  22.554  0.00  0.00    +0.000 A 
ATOM     21  C   UNL     1      -1.143  10.642  23.223  0.00  0.00    +0.000 A 
ATOM     22  C   UNL     1      -0.252   9.636  22.840  0.00  0.00    +0.000 A 
ENDBRANCH  15  17
BRANCH   1  23
ATOM     23  C   UNL     1       4.770   5.715  16.650  0.00  0.00    +0.000 C 
BRANCH  23  25
ATOM     24  C   UNL     1       7.262   5.148  16.350  0.00  0.00    +0.000 C 
ATOM     25  C   UNL     1       6.209   5.861  17.205  0.00  0.00    +0.000 C 
ATOM     26  C   UNL     1       6.582   7.341  17.315  0.00  0.00    +0.000 C 
ENDBRANCH  23  25
ENDBRANCH   1  23
TORSDOF 3
ENDMDL
MODEL 3
REMARK VINA RESULT:      -7.9      3.198      8.124
REMARK  Name = 
REMARK  6 active torsions:
REMARK  status: ('A' for Active; 'I' for Inactive)
REMARK    1  A    between atoms: C_1  and  C_2
REMARK    2  A    between atoms: C_2  and  C_3
REMARK    3  A    between atoms: C_2  and  C_4
REMARK    4  A    between atoms: C_4  and  N_5
REMARK    5  A    between atoms: N_8  and  C_9
REMARK    6  A    between atoms: C_19  and  C_20
REMARK                            x       y       z     vdW  Elec       q    Type
REMARK                         _______ _______ _______ _____ _____    ______ ____
ROOT
ATOM      1  N   UNL     1       3.535   5.043  19.486  0.00  0.00    +0.000 N 
ATOM      2  C   UNL     1       4.422   4.300  18.705  0.00  0.00    +0.000 A 
ATOM      3  O   UNL     1       4.813   3.179  19.054  0.00  0.00    +0.000 OA
ATOM      4  N   UNL     1       4.818   4.851  17.499  0.00  0.00    +0.000 N 
ATOM      5  C   UNL     1       5.646   4.062  16.603  0.00  0.00    +0.000 C 
ATOM      6  C   UNL     1       4.463   6.109  17.046  0.00  0.00    +0.000 A 
ATOM      7  O   UNL     1       4.839   6.577  15.973  0.00  0.00    +0.000 OA
ATOM      8  C   UNL     1       3.569   6.896  17.901  0.00  0.00    +0.000 A 
ATOM      9  C   UNL     1       3.132   8.144  17.429  0.00  0.00    +0.000 A 
ATOM     10  C   UNL     1       2.222   8.823  18.187  0.00  0.00    +0.000 A 
ATOM     11  C   UNL     1       1.792   8.345  19.406  0.00  0.00    +0.000 A 
ATOM     12  C   UNL     1       2.241   7.136  19.912  0.00  0.00    +0.000 A 
ATOM     13  C   UNL     1       3.114   6.359  19.122  0.00  0.00    +0.000 A 
ATOM     14  O   UNL     1       0.846   9.174  19.956  0.00  0.00    +0.000 OA
ATOM     15  C   UNL     1       0.471   9.913  18.763  0.00  0.00    +0.000 C 
ATOM     16  O   UNL     1       1.572   9.964  17.828  0.00  0.00    +0.000 OA
ENDROOT
BRANCH  15  17
ATOM     17  C   UNL     1      -0.151  11.283  18.988  0.00  0.00    +0.000 A 
ATOM     18  C   UNL     1      -1.417  11.387  19.597  0.00  0.00    +0.000 A 
ATOM     19  C   UNL     1      -1.930  12.624  19.995  0.00  0.00    +0.000 A 
ATOM     20  C   UNL     1      -1.182  13.780  19.796  0.00  0.00    +0.000 A 
ATOM     21  C   UNL     1       0.069  13.698  19.182  0.00  0.00    +0.000 A 
ATOM     22  C   UNL     1       0.582  12.462  18.783  0.00  0.00    +0.000 A 
ENDBRANCH  15  17
BRANCH   1  23
ATOM     23  C   UNL     1       2.926   4.341  20.628  0.00  0.00    +0.000 C 
BRANCH  23  25
ATOM     24  C   UNL     1       1.323   3.287  18.912  0.00  0.00    +0.000 C 
ATOM     25  C   UNL     1       1.494   3.829  20.336  0.00  0.00    +0.000 C 
ATOM     26  C   UNL     1       1.116   2.730  21.331  0.00  0.00    +0.000 C 
ENDBRANCH  23  25
ENDBRANCH   1  23
TORSDOF 3
ENDMDL
MODEL 4
REMARK VINA RESULT:      -7.8      3.241      8.249
REMARK  Name = 
REMARK  6 active torsions:
REMARK  status: ('A' for Active; 'I' for Inactive)
REMARK    1  A    between atoms: C_1  and  C_2
REMARK    2  A    between atoms: C_2  and  C_3
REMARK    3  A    between atoms: C_2  and  C_4
REMARK    4  A    between atoms: C_4  and  N_5
REMARK    5  A    between atoms: N_8  and  C_9
REMARK    6  A    between atoms: C_19  and  C_20
REMARK                            x       y       z     vdW  Elec       q    Type
REMARK                         _______ _______ _______ _____ _____    ______ ____
ROOT
ATOM      1  N   UNL     1       3.708   4.781  19.037  0.00  0.00    +0.000 N 
ATOM      2  C   UNL     1       4.586   4.105  18.189  0.00  0.00    +0.000 A 
ATOM      3  O   UNL     1       4.951   2.947  18.422  0.00  0.00    +0.000 OA
ATOM      4  N   UNL     1       5.001   4.769  17.049  0.00  0.00    +0.000 N 
ATOM      5  C   UNL     1       5.821   4.059  16.081  0.00  0.00    +0.000 C 
ATOM      6  C   UNL     1       4.675   6.074  16.726  0.00  0.00    +0.000 A 
ATOM      7  O   UNL     1       5.069   6.642  15.709  0.00  0.00    +0.000 OA
ATOM      8  C   UNL     1       3.790   6.787  17.652  0.00  0.00    +0.000 A 
ATOM      9  C   UNL     1       3.381   8.086  17.308  0.00  0.00    +0.000 A 
ATOM     10  C   UNL     1       2.479   8.701  18.127  0.00  0.00    +0.000 A 
ATOM     11  C   UNL     1       2.030   8.109  19.288  0.00  0.00    +0.000 A 
ATOM     12  C   UNL     1       2.451   6.845  19.669  0.00  0.00    +0.000 A 
ATOM     13  C   UNL     1       3.316   6.136  18.808  0.00  0.00    +0.000 A 
ATOM     14  O   UNL     1       1.097   8.896  19.915  0.00  0.00    +0.000 OA
ATOM     15  C   UNL     1       0.746   9.762  18.803  0.00  0.00    +0.000 C 
ATOM     16  O   UNL     1       1.855   9.886  17.884  0.00  0.00    +0.000 OA
ENDROOT
BRANCH  15  17
ATOM     17  C   UNL     1       0.149  11.114  19.164  0.00  0.00    +0.000 A 
ATOM     18  C   UNL     1       0.850  12.295  18.854  0.00  0.00    +0.000 A 
ATOM     19  C   UNL     1       0.251  13.550  18.992  0.00  0.00    +0.000 A 
ATOM     20  C   UNL     1      -1.063  13.644  19.438  0.00  0.00    +0.000 A 
ATOM     21  C   UNL     1      -1.770  12.486  19.762  0.00  0.00    +0.000 A 
ATOM     22  C   UNL     1      -1.172  11.230  19.625  0.00  0.00    +0.000 A 
ENDBRANCH  15  17
BRANCH   1  23
ATOM     23  C   UNL     1       3.076   3.978  20.097  0.00  0.00    +0.000 C 
BRANCH  23  25
ATOM     24  C   UNL     1       1.357   2.870  18.535  0.00  0.00    +0.000 C 
ATOM     25  C   UNL     1       1.583   3.671  19.821  0.00  0.00    +0.000 C 
ATOM     26  C   UNL     1       0.981   2.897  20.996  0.00  0.00    +0.000 C 
ENDBRANCH  23  25
ENDBRANCH   1  23
TORSDOF 3
ENDMDL
MODEL 5
REMARK VINA RESULT:      -7.8      3.130      8.321
REMARK  Name = 
REMARK  6 active torsions:
REMARK  status: ('A' for Active; 'I' for Inactive)
REMARK    1  A    between atoms: C_1  and  C_2
REMARK    2  A    between atoms: C_2  and  C_3
REMARK    3  A    between atoms: C_2  and  C_4
REMARK    4  A    between atoms: C_4  and  N_5
REMARK    5  A    between atoms: N_8  and  C_9
REMARK    6  A    between atoms: C_19  and  C_20
REMARK                            x       y       z     vdW  Elec       q    Type
REMARK                         _______ _______ _______ _____ _____    ______ ____
ROOT
ATOM      1  N   UNL     1       3.584   4.644  19.035  0.00  0.00    +0.000 N 
ATOM      2  C   UNL     1       4.387   4.269  17.957  0.00  0.00    +0.000 A 
ATOM      3  O   UNL     1       4.865   3.131  17.868  0.00  0.00    +0.000 OA
ATOM      4  N   UNL     1       4.596   5.210  16.965  0.00  0.00    +0.000 N 
ATOM      5  C   UNL     1       5.328   4.823  15.770  0.00  0.00    +0.000 C 
ATOM      6  C   UNL     1       4.134   6.514  16.998  0.00  0.00    +0.000 A 
ATOM      7  O   UNL     1       4.346   7.333  16.105  0.00  0.00    +0.000 OA
ATOM      8  C   UNL     1       3.332   6.907  18.160  0.00  0.00    +0.000 A 
ATOM      9  C   UNL     1       2.787   8.201  18.181  0.00  0.00    +0.000 A 
ATOM     10  C   UNL     1       1.961   8.521  19.219  0.00  0.00    +0.000 A 
ATOM     11  C   UNL     1       1.717   7.641  20.251  0.00  0.00    +0.000 A 
ATOM     12  C   UNL     1       2.277   6.374  20.274  0.00  0.00    +0.000 A 
ATOM     13  C   UNL     1       3.067   5.968  19.177  0.00  0.00    +0.000 A 
ATOM     14  O   UNL     1       0.821   8.168  21.148  0.00  0.00    +0.000 OA
ATOM     15  C   UNL     1       0.261   9.220  20.318  0.00  0.00    +0.000 C 
ATOM     16  O   UNL     1       1.225   9.660  19.334  0.00  0.00    +0.000 OA
ENDROOT
BRANCH  15  17
ATOM     17  C   UNL     1      -0.379  10.388  21.053  0.00  0.00    +0.000 A 
ATOM     18  C   UNL     1      -0.936  11.456  20.323  0.00  0.00    +0.000 A 
ATOM     19  C   UNL     1      -1.699  12.443  20.952  0.00  0.00    +0.000 A 
ATOM     20  C   UNL     1      -1.924  12.375  22.323  0.00  0.00    +0.000 A 
ATOM     21  C   UNL     1      -1.370  11.332  23.065  0.00  0.00    +0.000 A 
ATOM     22  C   UNL     1      -0.606  10.345  22.438  0.00  0.00    +0.000 A 
ENDBRANCH  15  17
BRANCH   1  23
ATOM     23  C   UNL     1       3.161   3.563  19.940  0.00  0.00    +0.000 C 
BRANCH  23  25
ATOM     24  C   UNL     1       1.257   2.232  18.834  0.00  0.00    +0.000 C 
ATOM     25  C   UNL     1       1.639   3.280  19.884  0.00  0.00    +0.000 C 
ATOM     26  C   UNL     1       1.141   2.813  21.253  0.00  0.00    +0.000 C 
ENDBRANCH  23  25
ENDBRANCH   1  23
TORSDOF 3
ENDMDL
MODEL 6
REMARK VINA RESULT:      -7.7      3.144      8.273
REMARK  Name = 
REMARK  6 active torsions:
REMARK  status: ('A' for Active; 'I' for Inactive)
REMARK    1  A    between atoms: C_1  and  C_2
REMARK    2  A    between atoms: C_2  and  C_3
REMARK    3  A    between atoms: C_2  and  C_4
REMARK    4  A    between atoms: C_4  and  N_5
REMARK    5  A    between atoms: N_8  and  C_9
REMARK    6  A    between atoms: C_19  and  C_20
REMARK                            x       y       z     vdW  Elec       q    Type
REMARK                         _______ _______ _______ _____ _____    ______ ____
ROOT
ATOM      1  N   UNL     1       3.568   4.716  19.355  0.00  0.00    +0.000 N 
ATOM      2  C   UNL     1       4.377   4.249  18.317  0.00  0.00    +0.000 A 
ATOM      3  O   UNL     1       4.867   3.114  18.337  0.00  0.00    +0.000 OA
ATOM      4  N   UNL     1       4.574   5.094  17.240  0.00  0.00    +0.000 N 
ATOM      5  C   UNL     1       5.311   4.604  16.087  0.00  0.00    +0.000 C 
ATOM      6  C   UNL     1       4.097   6.389  17.148  0.00  0.00    +0.000 A 
ATOM      7  O   UNL     1       4.299   7.122  16.181  0.00  0.00    +0.000 OA
ATOM      8  C   UNL     1       3.290   6.881  18.269  0.00  0.00    +0.000 A 
ATOM      9  C   UNL     1       2.729   8.165  18.166  0.00  0.00    +0.000 A 
ATOM     10  C   UNL     1       1.898   8.573  19.170  0.00  0.00    +0.000 A 
ATOM     11  C   UNL     1       1.664   7.793  20.281  0.00  0.00    +0.000 A 
ATOM     12  C   UNL     1       2.239   6.540  20.424  0.00  0.00    +0.000 A 
ATOM     13  C   UNL     1       3.035   6.041  19.371  0.00  0.00    +0.000 A 
ATOM     14  O   UNL     1       0.762   8.392  21.124  0.00  0.00    +0.000 OA
ATOM     15  C   UNL     1       0.190   9.353  20.198  0.00  0.00    +0.000 C 
ATOM     16  O   UNL     1       1.149   9.709  19.176  0.00  0.00    +0.000 OA
ENDROOT
BRANCH  15  17
ATOM     17  C   UNL     1      -0.465  10.578  20.819  0.00  0.00    +0.000 A 
ATOM     18  C   UNL     1      -0.669  10.634  22.211  0.00  0.00    +0.000 A 
ATOM     19  C   UNL     1      -1.084  11.813  22.835  0.00  0.00    +0.000 A 
ATOM     20  C   UNL     1      -1.296  12.960  22.077  0.00  0.00    +0.000 A 
ATOM     21  C   UNL     1      -1.111  12.921  20.695  0.00  0.00    +0.000 A 
ATOM     22  C   UNL     1      -0.697  11.742  20.069  0.00  0.00    +0.000 A 
ENDBRANCH  15  17
BRANCH   1  23
ATOM     23  C   UNL     1       3.158   3.721  20.360  0.00  0.00    +0.000 C 
BRANCH  23  25
ATOM     24  C   UNL     1       1.380   2.350  19.102  0.00  0.00    +0.000 C 
ATOM     25  C   UNL     1       1.665   3.324  20.251  0.00  0.00    +0.000 C 
ATOM     26  C   UNL     1       1.192   2.692  21.562  0.00  0.00    +0.000 C 
ENDBRANCH  23  25
ENDBRANCH   1  23
TORSDOF 3
ENDMDL
MODEL 7
REMARK VINA RESULT:      -7.5      1.500      2.093
REMARK  Name = 
REMARK  6 active torsions:
REMARK  status: ('A' for Active; 'I' for Inactive)
REMARK    1  A    between atoms: C_1  and  C_2
REMARK    2  A    between atoms: C_2  and  C_3
REMARK    3  A    between atoms: C_2  and  C_4
REMARK    4  A    between atoms: C_4  and  N_5
REMARK    5  A    between atoms: N_8  and  C_9
REMARK    6  A    between atoms: C_19  and  C_20
REMARK                            x       y       z     vdW  Elec       q    Type
REMARK                         _______ _______ _______ _____ _____    ______ ____
ROOT
ATOM      1  N   UNL     1      -0.146  11.861  20.072  0.00  0.00    +0.000 N 
ATOM      2  C   UNL     1      -0.916  12.200  21.186  0.00  0.00    +0.000 A 
ATOM      3  O   UNL     1      -1.501  13.287  21.265  0.00  0.00    +0.000 OA
ATOM      4  N   UNL     1      -1.034  11.252  22.186  0.00  0.00    +0.000 N 
ATOM      5  C   UNL     1      -1.919  11.518  23.308  0.00  0.00    +0.000 C 
ATOM      6  C   UNL     1      -0.388  10.029  22.201  0.00  0.00    +0.000 A 
ATOM      7  O   UNL     1      -0.503   9.209  23.111  0.00  0.00    +0.000 OA
ATOM      8  C   UNL     1       0.455   9.708  21.046  0.00  0.00    +0.000 A 
ATOM      9  C   UNL     1       1.060   8.441  21.001  0.00  0.00    +0.000 A 
ATOM     10  C   UNL     1       1.760   8.116  19.874  0.00  0.00    +0.000 A 
ATOM     11  C   UNL     1       1.934   9.013  18.843  0.00  0.00    +0.000 A 
ATOM     12  C   UNL     1       1.382  10.283  18.883  0.00  0.00    +0.000 A 
ATOM     13  C   UNL     1       0.576  10.631  19.989  0.00  0.00    +0.000 A 
ATOM     14  O   UNL     1       2.629   8.444  17.805  0.00  0.00    +0.000 OA
ATOM     15  C   UNL     1       2.454   7.045  18.154  0.00  0.00    +0.000 C 
ATOM     16  O   UNL     1       2.284   6.894  19.583  0.00  0.00    +0.000 OA
ENDROOT
BRANCH  15  17
ATOM     17  C   UNL     1       3.486   6.077  17.596  0.00  0.00    +0.000 A 
ATOM     18  C   UNL     1       3.245   4.691  17.642  0.00  0.00    +0.000 A 
ATOM     19  C   UNL     1       4.072   3.788  16.969  0.00  0.00    +0.000 A 
ATOM     20  C   UNL     1       5.154   4.259  16.232  0.00  0.00    +0.000 A 
ATOM     21  C   UNL     1       5.417   5.628  16.185  0.00  0.00    +0.000 A 
ATOM     22  C   UNL     1       4.590   6.531  16.858  0.00  0.00    +0.000 A 
ENDBRANCH  15  17
BRANCH   1  23
ATOM     23  C   UNL     1      -0.242  12.764  18.914  0.00  0.00    +0.000 C 
BRANCH  23  25
ATOM     24  C   UNL     1       1.940  13.881  18.130  0.00  0.00    +0.000 C 
ATOM     25  C   UNL     1       0.696  13.993  19.018  0.00  0.00    +0.000 C 
ATOM     26  C   UNL     1      -0.064  15.267  18.645  0.00  0.00    +0.000 C 
ENDBRANCH  23  25
ENDBRANCH   1  23
TORSDOF 3
ENDMDL
MODEL 8
REMARK VINA RESULT:      -7.4      3.381      7.974
REMARK  Name = 
REMARK  6 active torsions:
REMARK  status: ('A' for Active; 'I' for Inactive)
REMARK    1  A    between atoms: C_1  and  C_2
REMARK    2  A    between atoms: C_2  and  C_3
REMARK    3  A    between atoms: C_2  and  C_4
REMARK    4  A    between atoms: C_4  and  N_5
REMARK    5  A    between atoms: N_8  and  C_9
REMARK    6  A    between atoms: C_19  and  C_20
REMARK                            x       y       z     vdW  Elec       q    Type
REMARK                         _______ _______ _______ _____ _____    ______ ____
ROOT
ATOM      1  N   UNL     1       3.835   5.113  17.695  0.00  0.00    +0.000 N 
ATOM      2  C   UNL     1       3.914   3.920  18.416  0.00  0.00    +0.000 A 
ATOM      3  O   UNL     1       4.534   2.941  17.985  0.00  0.00    +0.000 OA
ATOM      4  N   UNL     1       3.305   3.890  19.658  0.00  0.00    +0.000 N 
ATOM      5  C   UNL     1       3.463   2.710  20.491  0.00  0.00    +0.000 C 
ATOM      6  C   UNL     1       2.561   4.921  20.203  0.00  0.00    +0.000 A 
ATOM      7  O   UNL     1       2.021   4.861  21.307  0.00  0.00    +0.000 OA
ATOM      8  C   UNL     1       2.447   6.150  19.412  0.00  0.00    +0.000 A 
ATOM      9  C   UNL     1       1.762   7.239  19.976  0.00  0.00    +0.000 A 
ATOM     10  C   UNL     1       1.749   8.409  19.273  0.00  0.00    +0.000 A 
ATOM     11  C   UNL     1       2.322   8.512  18.024  0.00  0.00    +0.000 A 
ATOM     12  C   UNL     1       2.966   7.440  17.429  0.00  0.00    +0.000 A 
ATOM     13  C   UNL     1       3.081   6.236  18.156  0.00  0.00    +0.000 A 
ATOM     14  O   UNL     1       2.223   9.792  17.539  0.00  0.00    +0.000 OA
ATOM     15  C   UNL     1       1.940  10.485  18.785  0.00  0.00    +0.000 C 
ATOM     16  O   UNL     1       1.273   9.604  19.717  0.00  0.00    +0.000 OA
ENDROOT
BRANCH  15  17
ATOM     17  C   UNL     1       1.236  11.828  18.663  0.00  0.00    +0.000 A 
ATOM     18  C   UNL     1      -0.168  11.894  18.753  0.00  0.00    +0.000 A 
ATOM     19  C   UNL     1      -0.831  13.120  18.841  0.00  0.00    +0.000 A 
ATOM     20  C   UNL     1      -0.100  14.304  18.847  0.00  0.00    +0.000 A 
ATOM     21  C   UNL     1       1.291  14.259  18.746  0.00  0.00    +0.000 A 
ATOM     22  C   UNL     1       1.955  13.033  18.657  0.00  0.00    +0.000 A 
ENDBRANCH  15  17
BRANCH   1  23
ATOM     23  C   UNL     1       4.698   5.216  16.507  0.00  0.00    +0.000 C 
BRANCH  23  25
ATOM     24  C   UNL     1       7.124   4.822  15.744  0.00  0.00    +0.000 C 
ATOM     25  C   UNL     1       6.203   5.336  16.855  0.00  0.00    +0.000 C 
ATOM     26  C   UNL     1       6.558   6.794  17.155  0.00  0.00    +0.000 C 
ENDBRANCH  23  25
ENDBRANCH   1  23
TORSDOF 3
ENDMDL
MODEL 9
REMARK VINA RESULT:      -7.3      3.503      8.422
REMARK  Name = 
REMARK  6 active torsions:
REMARK  status: ('A' for Active; 'I' for Inactive)
REMARK    1  A    between atoms: C_1  and  C_2
REMARK    2  A    between atoms: C_2  and  C_3
REMARK    3  A    between atoms: C_2  and  C_4
REMARK    4  A    between atoms: C_4  and  N_5
REMARK    5  A    between atoms: N_8  and  C_9
REMARK    6  A    between atoms: C_19  and  C_20
REMARK                            x       y       z     vdW  Elec       q    Type
REMARK                         _______ _______ _______ _____ _____    ______ ____
ROOT
ATOM      1  N   UNL     1       4.424   4.398  18.108  0.00  0.00    +0.000 N 
ATOM      2  C   UNL     1       5.191   4.219  16.955  0.00  0.00    +0.000 A 
ATOM      3  O   UNL     1       5.768   3.151  16.718  0.00  0.00    +0.000 OA
ATOM      4  N   UNL     1       5.247   5.275  16.062  0.00  0.00    +0.000 N 
ATOM      5  C   UNL     1       5.937   5.090  14.797  0.00  0.00    +0.000 C 
ATOM      6  C   UNL     1       4.665   6.514  16.260  0.00  0.00    +0.000 A 
ATOM      7  O   UNL     1       4.742   7.438  15.452  0.00  0.00    +0.000 OA
ATOM      8  C   UNL     1       3.903   6.701  17.498  0.00  0.00    +0.000 A 
ATOM      9  C   UNL     1       3.239   7.924  17.687  0.00  0.00    +0.000 A 
ATOM     10  C   UNL     1       2.451   8.050  18.795  0.00  0.00    +0.000 A 
ATOM     11  C   UNL     1       2.357   7.048  19.737  0.00  0.00    +0.000 A 
ATOM     12  C   UNL     1       3.036   5.849  19.593  0.00  0.00    +0.000 A 
ATOM     13  C   UNL     1       3.792   5.641  18.419  0.00  0.00    +0.000 A 
ATOM     14  O   UNL     1       1.472   7.386  20.730  0.00  0.00    +0.000 OA
ATOM     15  C   UNL     1       0.764   8.456  20.050  0.00  0.00    +0.000 C 
ATOM     16  O   UNL     1       1.618   9.090  19.071  0.00  0.00    +0.000 OA
ENDROOT
BRANCH  15  17
ATOM     17  C   UNL     1       0.062   9.470  20.939  0.00  0.00    +0.000 A 
ATOM     18  C   UNL     1      -0.290   9.122  22.258  0.00  0.00    +0.000 A 
ATOM     19  C   UNL     1      -0.755  10.081  23.161  0.00  0.00    +0.000 A 
ATOM     20  C   UNL     1      -0.871  11.409  22.761  0.00  0.00    +0.000 A 
ATOM     21  C   UNL     1      -0.539  11.771  21.456  0.00  0.00    +0.000 A 
ATOM     22  C   UNL     1      -0.075  10.813  20.551  0.00  0.00    +0.000 A 
ENDBRANCH  15  17
BRANCH   1  23
ATOM     23  C   UNL     1       4.163   3.192  18.910  0.00  0.00    +0.000 C 
BRANCH  23  25
ATOM     24  C   UNL     1       1.890   2.146  19.513  0.00  0.00    +0.000 C 
ATOM     25  C   UNL     1       2.936   2.385  18.419  0.00  0.00    +0.000 C 
ATOM     26  C   UNL     1       2.267   3.108  17.247  0.00  0.00    +0.000 C 
ENDBRANCH  23  25
ENDBRANCH   1  23
TORSDOF 3
ENDMDL
