MODEL 1
REMARK VINA RESULT:      -7.4      0.000      0.000
REMARK  Name = 
REMARK  8 active torsions:
REMARK  status: ('A' for Active; 'I' for Inactive)
REMARK    1  A    between atoms: C_1  and  C_2
REMARK    2  A    between atoms: C_2  and  C_3
REMARK    3  A    between atoms: C_3  and  N_4
REMARK    4  A    between atoms: C_7  and  C_8
REMARK    5  A    between atoms: N_10  and  C_11
REMARK    6  A    between atoms: C_11  and  C_12
REMARK    7  A    between atoms: C_12  and  C_13
REMARK    8  A    between atoms: C_22  and  C_23
REMARK                            x       y       z     vdW  Elec       q    Type
REMARK                         _______ _______ _______ _____ _____    ______ ____
ROOT
ATOM      1  C   UNL     1       3.631   6.864  17.695  0.00  0.00    +0.000 C 
ATOM      2  O   UNL     1       4.328   7.253  16.773  0.00  0.00    +0.000 OA
ATOM      3  N   UNL     1       2.598   7.608  18.269  0.00  0.00    +0.000 N 
ATOM      4  H   UNL     1       2.030   7.182  18.983  0.00  0.00    +0.000 HD
ENDROOT
BRANCH   1   8
ATOM      5  N   UNL     1       3.907   3.616  19.375  0.00  0.00    +0.000 N 
ATOM      6  N   UNL     1       5.176   4.059  19.475  0.00  0.00    +0.000 NA
ATOM      7  C   UNL     1       5.156   5.201  18.802  0.00  0.00    +0.000 A 
ATOM      8  C   UNL     1       3.873   5.562  18.341  0.00  0.00    +0.000 A 
ATOM      9  C   UNL     1       3.174   4.352  18.461  0.00  0.00    +0.000 A 
ATOM     10  C   UNL     1       1.985   3.725  17.805  0.00  0.00    +0.000 C 
BRANCH   5  11
ATOM     11  C   UNL     1       3.558   2.386  20.070  0.00  0.00    +0.000 C 
BRANCH  11  13
ATOM     12  C   UNL     1       1.326   2.811  21.262  0.00  0.00    +0.000 C 
ATOM     13  C   UNL     1       2.819   2.549  21.405  0.00  0.00    +0.000 C 
ENDBRANCH  11  13
ENDBRANCH   5  11
ENDBRANCH   1   8
BRANCH   3  14
ATOM     14  C   UNL     1       2.303   8.996  17.859  0.00  0.00    +0.000 C 
BRANCH  14  15
ATOM     15  C   UNL     1       0.823   9.454  17.854  0.00  0.00    +0.000 C 
BRANCH  15  16
ATOM     16  C   UNL     1       0.173  10.211  18.993  0.00  0.00    +0.000 A 
ATOM     17  N   UNL     1      -0.290  11.482  18.702  0.00  0.00    +0.000 N 
ATOM     18  N   UNL     1      -0.811  12.145  19.737  0.00  0.00    +0.000 NA
ATOM     19  C   UNL     1      -0.664  11.301  20.755  0.00  0.00    +0.000 A 
ATOM     20  C   UNL     1      -0.051  10.085  20.361  0.00  0.00    +0.000 A 
ATOM     21  C   UNL     1       0.270   9.015  21.330  0.00  0.00    +0.000 C 
ATOM     22  C   UNL     1      -0.242   9.258  22.767  0.00  0.00    +0.000 C 
ATOM     23  C   UNL     1      -0.986  10.553  23.141  0.00  0.00    +0.000 C 
ATOM     24  C   UNL     1      -1.066  11.689  22.125  0.00  0.00    +0.000 C 
ATOM     25  H   UNL     1      -0.244  11.969  17.816  0.00  0.00    +0.000 HD
ENDBRANCH  15  16
ENDBRANCH  14  15
ENDBRANCH   3  14
TORSDOF 6
ENDMDL
MODEL 2
REMARK VINA RESULT:      -7.4      2.983      7.927
REMARK  Name = 
REMARK  8 active torsions:
REMARK  status: ('A' for Active; 'I' for Inactive)
REMARK    1  A    between atoms: C_1  and  C_2
REMARK    2  A    between atoms: C_2  and  C_3
REMARK    3  A    between atoms: C_3  and  N_4
REMARK    4  A    between atoms: C_7  and  C_8
REMARK    5  A    between atoms: N_10  and  C_11
REMARK    6  A    between atoms: C_11  and  C_12
REMARK    7  A    between atoms: C_12  and  C_13
REMARK    8  A    between atoms: C_22  and  C_23
REMARK                            x       y       z     vdW  Elec       q    Type
REMARK                         _______ _______ _______ _____ _____    ______ ____
ROOT
ATOM      1  C   UNL     1       0.109  10.000  18.857  0.00  0.00    +0.000 C 
ATOM      2  O   UNL     1       0.459   9.878  20.020  0.00  0.00    +0.000 OA
ATOM      3  N   UNL     1       0.939   9.766  17.758  0.00  0.00    +0.000 N 
ATOM      4  H   UNL     1       0.549   9.828  16.832  0.00  0.00    +0.000 HD
ENDROOT
BRANCH   1   8
ATOM      5  N   UNL     1      -3.290  11.265  18.320  0.00  0.00    +0.000 N 
ATOM      6  N   UNL     1      -3.136  10.491  17.228  0.00  0.00    +0.000 NA
ATOM      7  C   UNL     1      -1.882  10.072  17.325  0.00  0.00    +0.000 A 
ATOM      8  C   UNL     1      -1.238  10.484  18.510  0.00  0.00    +0.000 A 
ATOM      9  C   UNL     1      -2.085  11.510  18.954  0.00  0.00    +0.000 A 
ATOM     10  C   UNL     1      -1.941  12.735  19.801  0.00  0.00    +0.000 C 
BRANCH   5  11
ATOM     11  C   UNL     1      -4.601  11.849  18.562  0.00  0.00    +0.000 C 
BRANCH  11  13
ATOM     12  C   UNL     1      -6.674  10.369  18.873  0.00  0.00    +0.000 C 
ATOM     13  C   UNL     1      -5.791  11.139  17.901  0.00  0.00    +0.000 C 
ENDBRANCH  11  13
ENDBRANCH   5  11
ENDBRANCH   1   8
BRANCH   3  14
ATOM     14  C   UNL     1       2.367   9.423  17.906  0.00  0.00    +0.000 C 
BRANCH  14  15
ATOM     15  C   UNL     1       2.769   7.929  17.818  0.00  0.00    +0.000 C 
BRANCH  15  16
ATOM     16  C   UNL     1       2.297   6.872  18.794  0.00  0.00    +0.000 A 
ATOM     17  N   UNL     1       2.189   7.261  20.118  0.00  0.00    +0.000 N 
ATOM     18  N   UNL     1       1.820   6.296  20.963  0.00  0.00    +0.000 NA
ATOM     19  C   UNL     1       1.710   5.223  20.183  0.00  0.00    +0.000 A 
ATOM     20  C   UNL     1       2.001   5.512  18.826  0.00  0.00    +0.000 A 
ATOM     21  C   UNL     1       2.002   4.466  17.781  0.00  0.00    +0.000 C 
ATOM     22  C   UNL     1       1.521   3.075  18.247  0.00  0.00    +0.000 C 
ATOM     23  C   UNL     1       1.124   2.817  19.712  0.00  0.00    +0.000 C 
ATOM     24  C   UNL     1       1.375   3.901  20.756  0.00  0.00    +0.000 C 
ATOM     25  H   UNL     1       2.389   8.171  20.513  0.00  0.00    +0.000 HD
ENDBRANCH  15  16
ENDBRANCH  14  15
ENDBRANCH   3  14
TORSDOF 6
ENDMDL
MODEL 3
REMARK VINA RESULT:      -7.3      5.810      7.563
REMARK  Name = 
REMARK  8 active torsions:
REMARK  status: ('A' for Active; 'I' for Inactive)
REMARK    1  A    between atoms: C_1  and  C_2
REMARK    2  A    between atoms: C_2  and  C_3
REMARK    3  A    between atoms: C_3  and  N_4
REMARK    4  A    between atoms: C_7  and  C_8
REMARK    5  A    between atoms: N_10  and  C_11
REMARK    6  A    between atoms: C_11  and  C_12
REMARK    7  A    between atoms: C_12  and  C_13
REMARK    8  A    between atoms: C_22  and  C_23
REMARK                            x       y       z     vdW  Elec       q    Type
REMARK                         _______ _______ _______ _____ _____    ______ ____
ROOT
ATOM      1  C   UNL     1       6.644   6.329  16.932  0.00  0.00    +0.000 C 
ATOM      2  O   UNL     1       7.416   6.075  16.022  0.00  0.00    +0.000 OA
ATOM      3  N   UNL     1       6.922   7.214  17.976  0.00  0.00    +0.000 N 
ATOM      4  H   UNL     1       6.201   7.414  18.649  0.00  0.00    +0.000 HD
ENDROOT
BRANCH   1   8
ATOM      5  N   UNL     1       3.350   4.814  17.484  0.00  0.00    +0.000 N 
ATOM      6  N   UNL     1       3.929   3.880  16.705  0.00  0.00    +0.000 NA
ATOM      7  C   UNL     1       5.101   4.418  16.399  0.00  0.00    +0.000 A 
ATOM      8  C   UNL     1       5.341   5.651  17.040  0.00  0.00    +0.000 A 
ATOM      9  C   UNL     1       4.053   6.007  17.469  0.00  0.00    +0.000 A 
ATOM     10  C   UNL     1       3.336   7.281  17.783  0.00  0.00    +0.000 C 
BRANCH   5  11
ATOM     11  C   UNL     1       2.047   4.513  18.057  0.00  0.00    +0.000 C 
BRANCH  11  13
ATOM     12  C   UNL     1       1.735   4.999  20.557  0.00  0.00    +0.000 C 
ATOM     13  C   UNL     1       2.048   3.961  19.489  0.00  0.00    +0.000 C 
ENDBRANCH  11  13
ENDBRANCH   5  11
ENDBRANCH   1   8
BRANCH   3  14
ATOM     14  C   UNL     1       8.235   7.873  18.123  0.00  0.00    +0.000 C 
BRANCH  14  15
ATOM     15  C   UNL     1       8.324   9.390  17.824  0.00  0.00    +0.000 C 
BRANCH  15  16
ATOM     16  C   UNL     1       9.075  10.377  18.693  0.00  0.00    +0.000 A 
ATOM     17  N   UNL     1       9.092  10.111  20.052  0.00  0.00    +0.000 N 
ATOM     18  N   UNL     1       9.716  11.024  20.799  0.00  0.00    +0.000 NA
ATOM     19  C   UNL     1      10.100  11.942  19.916  0.00  0.00    +0.000 A 
ATOM     20  C   UNL     1       9.725  11.603  18.591  0.00  0.00    +0.000 A 
ATOM     21  C   UNL     1       9.991  12.499  17.444  0.00  0.00    +0.000 C 
ATOM     22  C   UNL     1      10.834  13.750  17.773  0.00  0.00    +0.000 C 
ATOM     23  C   UNL     1      11.304  14.041  19.210  0.00  0.00    +0.000 C 
ATOM     24  C   UNL     1      10.784  13.178  20.356  0.00  0.00    +0.000 C 
ATOM     25  H   UNL     1       8.660   9.333  20.535  0.00  0.00    +0.000 HD
ENDBRANCH  15  16
ENDBRANCH  14  15
ENDBRANCH   3  14
TORSDOF 6
ENDMDL
MODEL 4
REMARK VINA RESULT:      -7.3      3.764      6.167
REMARK  Name = 
REMARK  8 active torsions:
REMARK  status: ('A' for Active; 'I' for Inactive)
REMARK    1  A    between atoms: C_1  and  C_2
REMARK    2  A    between atoms: C_2  and  C_3
REMARK    3  A    between atoms: C_3  and  N_4
REMARK    4  A    between atoms: C_7  and  C_8
REMARK    5  A    between atoms: N_10  and  C_11
REMARK    6  A    between atoms: C_11  and  C_12
REMARK    7  A    between atoms: C_12  and  C_13
REMARK    8  A    between atoms: C_22  and  C_23
REMARK                            x       y       z     vdW  Elec       q    Type
REMARK                         _______ _______ _______ _____ _____    ______ ____
ROOT
ATOM      1  C   UNL     1       4.731   3.770  16.693  0.00  0.00    +0.000 C 
ATOM      2  O   UNL     1       3.973   3.902  15.746  0.00  0.00    +0.000 OA
ATOM      3  N   UNL     1       4.605   2.779  17.668  0.00  0.00    +0.000 N 
ATOM      4  H   UNL     1       5.314   2.702  18.378  0.00  0.00    +0.000 HD
ENDROOT
BRANCH   1   8
ATOM      5  N   UNL     1       7.298   6.254  17.520  0.00  0.00    +0.000 N 
ATOM      6  N   UNL     1       7.615   5.983  16.238  0.00  0.00    +0.000 NA
ATOM      7  C   UNL     1       6.767   5.019  15.910  0.00  0.00    +0.000 A 
ATOM      8  C   UNL     1       5.837   4.715  16.925  0.00  0.00    +0.000 A 
ATOM      9  C   UNL     1       6.430   5.314  18.047  0.00  0.00    +0.000 A 
ATOM     10  C   UNL     1       6.393   5.103  19.527  0.00  0.00    +0.000 C 
BRANCH   5  11
ATOM     11  C   UNL     1       8.013   7.333  18.185  0.00  0.00    +0.000 C 
BRANCH  11  13
ATOM     12  C   UNL     1       8.661   9.815  18.254  0.00  0.00    +0.000 C 
ATOM     13  C   UNL     1       7.775   8.745  17.632  0.00  0.00    +0.000 C 
ENDBRANCH  11  13
ENDBRANCH   5  11
ENDBRANCH   1   8
BRANCH   3  14
ATOM     14  C   UNL     1       3.472   1.832  17.690  0.00  0.00    +0.000 C 
BRANCH  14  15
ATOM     15  C   UNL     1       2.187   2.251  18.447  0.00  0.00    +0.000 C 
BRANCH  15  16
ATOM     16  C   UNL     1       2.081   3.501  19.295  0.00  0.00    +0.000 A 
ATOM     17  N   UNL     1       1.785   3.313  20.634  0.00  0.00    +0.000 N 
ATOM     18  N   UNL     1       1.647   4.434  21.346  0.00  0.00    +0.000 NA
ATOM     19  C   UNL     1       1.825   5.399  20.448  0.00  0.00    +0.000 A 
ATOM     20  C   UNL     1       2.090   4.886  19.153  0.00  0.00    +0.000 A 
ATOM     21  C   UNL     1       2.266   5.767  17.977  0.00  0.00    +0.000 C 
ATOM     22  C   UNL     1       2.285   7.279  18.291  0.00  0.00    +0.000 C 
ATOM     23  C   UNL     1       2.085   7.800  19.725  0.00  0.00    +0.000 C 
ATOM     24  C   UNL     1       1.686   6.822  20.827  0.00  0.00    +0.000 C 
ATOM     25  H   UNL     1       1.630   2.437  21.116  0.00  0.00    +0.000 HD
ENDBRANCH  15  16
ENDBRANCH  14  15
ENDBRANCH   3  14
TORSDOF 6
ENDMDL
MODEL 5
REMARK VINA RESULT:      -7.2      5.780      7.730
REMARK  Name = 
REMARK  8 active torsions:
REMARK  status: ('A' for Active; 'I' for Inactive)
REMARK    1  A    between atoms: C_1  and  C_2
REMARK    2  A    between atoms: C_2  and  C_3
REMARK    3  A    between atoms: C_3  and  N_4
REMARK    4  A    between atoms: C_7  and  C_8
REMARK    5  A    between atoms: N_10  and  C_11
REMARK    6  A    between atoms: C_11  and  C_12
REMARK    7  A    between atoms: C_12  and  C_13
REMARK    8  A    between atoms: C_22  and  C_23
REMARK                            x       y       z     vdW  Elec       q    Type
REMARK                         _______ _______ _______ _____ _____    ______ ____
ROOT
ATOM      1  C   UNL     1       6.709   5.588  18.057  0.00  0.00    +0.000 C 
ATOM      2  O   UNL     1       7.551   4.839  18.526  0.00  0.00    +0.000 OA
ATOM      3  N   UNL     1       6.907   6.954  17.840  0.00  0.00    +0.000 N 
ATOM      4  H   UNL     1       6.180   7.484  17.387  0.00  0.00    +0.000 HD
ENDROOT
BRANCH   1   8
ATOM      5  N   UNL     1       3.231   4.551  17.535  0.00  0.00    +0.000 N 
ATOM      6  N   UNL     1       3.883   3.613  16.821  0.00  0.00    +0.000 NA
ATOM      7  C   UNL     1       5.151   3.990  16.902  0.00  0.00    +0.000 A 
ATOM      8  C   UNL     1       5.354   5.110  17.735  0.00  0.00    +0.000 A 
ATOM      9  C   UNL     1       4.052   5.619  17.855  0.00  0.00    +0.000 A 
ATOM     10  C   UNL     1       3.438   6.955  18.131  0.00  0.00    +0.000 C 
BRANCH   5  11
ATOM     11  C   UNL     1       1.794   4.403  17.706  0.00  0.00    +0.000 C 
BRANCH  11  13
ATOM     12  C   UNL     1       1.665   2.468  19.385  0.00  0.00    +0.000 C 
ATOM     13  C   UNL     1       1.322   3.920  19.084  0.00  0.00    +0.000 C 
ENDBRANCH  11  13
ENDBRANCH   5  11
ENDBRANCH   1   8
BRANCH   3  14
ATOM     14  C   UNL     1       8.147   7.646  18.241  0.00  0.00    +0.000 C 
BRANCH  14  15
ATOM     15  C   UNL     1       8.242   9.172  17.991  0.00  0.00    +0.000 C 
BRANCH  15  16
ATOM     16  C   UNL     1       9.107  10.106  18.811  0.00  0.00    +0.000 A 
ATOM     17  N   UNL     1       8.903  10.092  20.180  0.00  0.00    +0.000 N 
ATOM     18  N   UNL     1       9.642  10.962  20.871  0.00  0.00    +0.000 NA
ATOM     19  C   UNL     1      10.337  11.598  19.932  0.00  0.00    +0.000 A 
ATOM     20  C   UNL     1      10.045  11.119  18.630  0.00  0.00    +0.000 A 
ATOM     21  C   UNL     1      10.651  11.712  17.418  0.00  0.00    +0.000 C 
ATOM     22  C   UNL     1      11.731  12.783  17.685  0.00  0.00    +0.000 C 
ATOM     23  C   UNL     1      12.090  13.216  19.118  0.00  0.00    +0.000 C 
ATOM     24  C   UNL     1      11.248  12.709  20.285  0.00  0.00    +0.000 C 
ATOM     25  H   UNL     1       8.241   9.529  20.701  0.00  0.00    +0.000 HD
ENDBRANCH  15  16
ENDBRANCH  14  15
ENDBRANCH   3  14
TORSDOF 6
ENDMDL
MODEL 6
REMARK VINA RESULT:      -7.1      2.345      7.832
REMARK  Name = 
REMARK  8 active torsions:
REMARK  status: ('A' for Active; 'I' for Inactive)
REMARK    1  A    between atoms: C_1  and  C_2
REMARK    2  A    between atoms: C_2  and  C_3
REMARK    3  A    between atoms: C_3  and  N_4
REMARK    4  A    between atoms: C_7  and  C_8
REMARK    5  A    between atoms: N_10  and  C_11
REMARK    6  A    between atoms: C_11  and  C_12
REMARK    7  A    between atoms: C_12  and  C_13
REMARK    8  A    between atoms: C_22  and  C_23
REMARK                            x       y       z     vdW  Elec       q    Type
REMARK                         _______ _______ _______ _____ _____    ______ ____
ROOT
ATOM      1  C   UNL     1       2.173   5.443  19.835  0.00  0.00    +0.000 C 
ATOM      2  O   UNL     1       2.740   5.093  20.858  0.00  0.00    +0.000 OA
ATOM      3  N   UNL     1       1.674   4.564  18.873  0.00  0.00    +0.000 N 
ATOM      4  H   UNL     1       1.161   4.938  18.091  0.00  0.00    +0.000 HD
ENDROOT
BRANCH   1   8
ATOM      5  N   UNL     1       1.531   8.992  19.175  0.00  0.00    +0.000 N 
ATOM      6  N   UNL     1       2.273   8.667  18.098  0.00  0.00    +0.000 NA
ATOM      7  C   UNL     1       2.610   7.406  18.328  0.00  0.00    +0.000 A 
ATOM      8  C   UNL     1       2.026   6.868  19.493  0.00  0.00    +0.000 A 
ATOM      9  C   UNL     1       1.603   8.026  20.163  0.00  0.00    +0.000 A 
ATOM     10  C   UNL     1       1.340   8.413  21.584  0.00  0.00    +0.000 C 
BRANCH   5  11
ATOM     11  C   UNL     1       0.935  10.319  19.217  0.00  0.00    +0.000 C 
BRANCH  11  13
ATOM     12  C   UNL     1      -1.580  10.564  18.776  0.00  0.00    +0.000 C 
ATOM     13  C   UNL     1      -0.175  10.597  18.194  0.00  0.00    +0.000 C 
ENDBRANCH  11  13
ENDBRANCH   5  11
ENDBRANCH   1   8
BRANCH   3  14
ATOM     14  C   UNL     1       1.861   3.102  18.965  0.00  0.00    +0.000 C 
BRANCH  14  15
ATOM     15  C   UNL     1       3.206   2.509  18.476  0.00  0.00    +0.000 C 
BRANCH  15  16
ATOM     16  C   UNL     1       4.459   3.331  18.257  0.00  0.00    +0.000 A 
ATOM     17  N   UNL     1       5.209   3.622  19.384  0.00  0.00    +0.000 N 
ATOM     18  N   UNL     1       6.279   4.391  19.168  0.00  0.00    +0.000 NA
ATOM     19  C   UNL     1       6.222   4.646  17.864  0.00  0.00    +0.000 A 
ATOM     20  C   UNL     1       5.111   4.024  17.241  0.00  0.00    +0.000 A 
ATOM     21  C   UNL     1       4.806   4.211  15.806  0.00  0.00    +0.000 C 
ATOM     22  C   UNL     1       5.864   5.007  15.011  0.00  0.00    +0.000 C 
ATOM     23  C   UNL     1       7.109   5.592  15.702  0.00  0.00    +0.000 C 
ATOM     24  C   UNL     1       7.214   5.538  17.223  0.00  0.00    +0.000 C 
ATOM     25  H   UNL     1       5.019   3.350  20.340  0.00  0.00    +0.000 HD
ENDBRANCH  15  16
ENDBRANCH  14  15
ENDBRANCH   3  14
TORSDOF 6
ENDMDL
MODEL 7
REMARK VINA RESULT:      -7.0      3.727      8.865
REMARK  Name = 
REMARK  8 active torsions:
REMARK  status: ('A' for Active; 'I' for Inactive)
REMARK    1  A    between atoms: C_1  and  C_2
REMARK    2  A    between atoms: C_2  and  C_3
REMARK    3  A    between atoms: C_3  and  N_4
REMARK    4  A    between atoms: C_7  and  C_8
REMARK    5  A    between atoms: N_10  and  C_11
REMARK    6  A    between atoms: C_11  and  C_12
REMARK    7  A    between atoms: C_12  and  C_13
REMARK    8  A    between atoms: C_22  and  C_23
REMARK                            x       y       z     vdW  Elec       q    Type
REMARK                         _______ _______ _______ _____ _____    ______ ____
ROOT
ATOM      1  C   UNL     1       2.632   5.980  18.394  0.00  0.00    +0.000 C 
ATOM      2  O   UNL     1       1.810   5.085  18.512  0.00  0.00    +0.000 OA
ATOM      3  N   UNL     1       4.003   5.771  18.234  0.00  0.00    +0.000 N 
ATOM      4  H   UNL     1       4.601   6.566  18.077  0.00  0.00    +0.000 HD
ENDROOT
BRANCH   1   8
ATOM      5  N   UNL     1       1.386   9.406  18.785  0.00  0.00    +0.000 N 
ATOM      6  N   UNL     1       2.131   9.537  17.671  0.00  0.00    +0.000 NA
ATOM      7  C   UNL     1       2.682   8.339  17.528  0.00  0.00    +0.000 A 
ATOM      8  C   UNL     1       2.237   7.397  18.479  0.00  0.00    +0.000 A 
ATOM      9  C   UNL     1       1.654   8.223  19.451  0.00  0.00    +0.000 A 
ATOM     10  C   UNL     1       1.382   8.133  20.919  0.00  0.00    +0.000 C 
BRANCH   5  11
ATOM     11  C   UNL     1       0.580  10.544  19.204  0.00  0.00    +0.000 C 
BRANCH  11  13
ATOM     12  C   UNL     1      -1.733  11.631  19.423  0.00  0.00    +0.000 C 
ATOM     13  C   UNL     1      -0.941  10.374  19.092  0.00  0.00    +0.000 C 
ENDBRANCH  11  13
ENDBRANCH   5  11
ENDBRANCH   1   8
BRANCH   3  14
ATOM     14  C   UNL     1       4.608   4.425  18.278  0.00  0.00    +0.000 C 
BRANCH  14  15
ATOM     15  C   UNL     1       4.848   3.692  16.935  0.00  0.00    +0.000 C 
BRANCH  15  16
ATOM     16  C   UNL     1       5.824   4.167  15.880  0.00  0.00    +0.000 A 
ATOM     17  N   UNL     1       6.801   5.054  16.299  0.00  0.00    +0.000 N 
ATOM     18  N   UNL     1       7.614   5.495  15.337  0.00  0.00    +0.000 NA
ATOM     19  C   UNL     1       7.147   4.910  14.238  0.00  0.00    +0.000 A 
ATOM     20  C   UNL     1       6.031   4.077  14.506  0.00  0.00    +0.000 A 
ATOM     21  C   UNL     1       5.303   3.366  13.432  0.00  0.00    +0.000 C 
ATOM     22  C   UNL     1       5.936   3.478  12.028  0.00  0.00    +0.000 C 
ATOM     23  C   UNL     1       7.204   4.318  11.789  0.00  0.00    +0.000 C 
ATOM     24  C   UNL     1       7.745   5.193  12.915  0.00  0.00    +0.000 C 
ATOM     25  H   UNL     1       6.940   5.425  17.230  0.00  0.00    +0.000 HD
ENDBRANCH  15  16
ENDBRANCH  14  15
ENDBRANCH   3  14
TORSDOF 6
ENDMDL
MODEL 8
REMARK VINA RESULT:      -7.0      5.597      7.912
REMARK  Name = 
REMARK  8 active torsions:
REMARK  status: ('A' for Active; 'I' for Inactive)
REMARK    1  A    between atoms: C_1  and  C_2
REMARK    2  A    between atoms: C_2  and  C_3
REMARK    3  A    between atoms: C_3  and  N_4
REMARK    4  A    between atoms: C_7  and  C_8
REMARK    5  A    between atoms: N_10  and  C_11
REMARK    6  A    between atoms: C_11  and  C_12
REMARK    7  A    between atoms: C_12  and  C_13
REMARK    8  A    between atoms: C_22  and  C_23
REMARK                            x       y       z     vdW  Elec       q    Type
REMARK                         _______ _______ _______ _____ _____    ______ ____
ROOT
ATOM      1  C   UNL     1       7.198   5.242  15.704  0.00  0.00    +0.000 C 
ATOM      2  O   UNL     1       7.546   6.401  15.864  0.00  0.00    +0.000 OA
ATOM      3  N   UNL     1       7.064   4.312  16.736  0.00  0.00    +0.000 N 
ATOM      4  H   UNL     1       6.707   3.395  16.522  0.00  0.00    +0.000 HD
ENDROOT
BRANCH   1   8
ATOM      5  N   UNL     1       6.439   3.620  12.504  0.00  0.00    +0.000 N 
ATOM      6  N   UNL     1       7.444   4.439  12.137  0.00  0.00    +0.000 NA
ATOM      7  C   UNL     1       7.703   5.120  13.245  0.00  0.00    +0.000 A 
ATOM      8  C   UNL     1       6.948   4.697  14.358  0.00  0.00    +0.000 A 
ATOM      9  C   UNL     1       5.929   3.952  13.747  0.00  0.00    +0.000 A 
ATOM     10  C   UNL     1       4.523   3.569  14.086  0.00  0.00    +0.000 C 
BRANCH   5  11
ATOM     11  C   UNL     1       5.941   2.669  11.521  0.00  0.00    +0.000 C 
BRANCH  11  13
ATOM     12  C   UNL     1       6.247   0.132  11.300  0.00  0.00    +0.000 C 
ATOM     13  C   UNL     1       6.881   1.509  11.165  0.00  0.00    +0.000 C 
ENDBRANCH  11  13
ENDBRANCH   5  11
ENDBRANCH   1   8
BRANCH   3  14
ATOM     14  C   UNL     1       7.417   4.627  18.135  0.00  0.00    +0.000 C 
BRANCH  14  15
ATOM     15  C   UNL     1       6.264   4.883  19.137  0.00  0.00    +0.000 C 
BRANCH  15  16
ATOM     16  C   UNL     1       5.034   4.006  19.246  0.00  0.00    +0.000 A 
ATOM     17  N   UNL     1       5.187   2.814  19.932  0.00  0.00    +0.000 N 
ATOM     18  N   UNL     1       4.101   2.038  19.968  0.00  0.00    +0.000 NA
ATOM     19  C   UNL     1       3.206   2.720  19.257  0.00  0.00    +0.000 A 
ATOM     20  C   UNL     1       3.726   3.948  18.774  0.00  0.00    +0.000 A 
ATOM     21  C   UNL     1       2.936   4.851  17.909  0.00  0.00    +0.000 C 
ATOM     22  C   UNL     1       1.465   4.432  17.698  0.00  0.00    +0.000 C 
ATOM     23  C   UNL     1       0.906   3.137  18.314  0.00  0.00    +0.000 C 
ATOM     24  C   UNL     1       1.861   2.163  18.997  0.00  0.00    +0.000 C 
ATOM     25  H   UNL     1       6.026   2.456  20.371  0.00  0.00    +0.000 HD
ENDBRANCH  15  16
ENDBRANCH  14  15
ENDBRANCH   3  14
TORSDOF 6
ENDMDL
MODEL 9
REMARK VINA RESULT:      -7.0      2.245      7.991
REMARK  Name = 
REMARK  8 active torsions:
REMARK  status: ('A' for Active; 'I' for Inactive)
REMARK    1  A    between atoms: C_1  and  C_2
REMARK    2  A    between atoms: C_2  and  C_3
REMARK    3  A    between atoms: C_3  and  N_4
REMARK    4  A    between atoms: C_7  and  C_8
REMARK    5  A    between atoms: N_10  and  C_11
REMARK    6  A    between atoms: C_11  and  C_12
REMARK    7  A    between atoms: C_12  and  C_13
REMARK    8  A    between atoms: C_22  and  C_23
REMARK                            x       y       z     vdW  Elec       q    Type
REMARK                         _______ _______ _______ _____ _____    ______ ____
ROOT
ATOM      1  C   UNL     1       2.261   5.972  18.856  0.00  0.00    +0.000 C 
ATOM      2  O   UNL     1       1.935   5.226  17.946  0.00  0.00    +0.000 OA
ATOM      3  N   UNL     1       2.789   5.540  20.074  0.00  0.00    +0.000 N 
ATOM      4  H   UNL     1       3.092   6.229  20.744  0.00  0.00    +0.000 HD
ENDROOT
BRANCH   1   8
ATOM      5  N   UNL     1       1.466   9.551  18.807  0.00  0.00    +0.000 N 
ATOM      6  N   UNL     1       2.239   9.451  17.708  0.00  0.00    +0.000 NA
ATOM      7  C   UNL     1       2.631   8.184  17.723  0.00  0.00    +0.000 A 
ATOM      8  C   UNL     1       2.053   7.427  18.763  0.00  0.00    +0.000 A 
ATOM      9  C   UNL     1       1.568   8.431  19.614  0.00  0.00    +0.000 A 
ATOM     10  C   UNL     1       1.264   8.552  21.074  0.00  0.00    +0.000 C 
BRANCH   5  11
ATOM     11  C   UNL     1       0.810  10.824  19.066  0.00  0.00    +0.000 C 
BRANCH  11  13
ATOM     12  C   UNL     1      -1.195  12.205  18.255  0.00  0.00    +0.000 C 
ATOM     13  C   UNL     1      -0.702  10.872  18.800  0.00  0.00    +0.000 C 
ENDBRANCH  11  13
ENDBRANCH   5  11
ENDBRANCH   1   8
BRANCH   3  14
ATOM     14  C   UNL     1       2.930   4.110  20.413  0.00  0.00    +0.000 C 
BRANCH  14  15
ATOM     15  C   UNL     1       4.048   3.302  19.709  0.00  0.00    +0.000 C 
BRANCH  15  16
ATOM     16  C   UNL     1       5.139   3.930  18.868  0.00  0.00    +0.000 A 
ATOM     17  N   UNL     1       6.175   4.536  19.557  0.00  0.00    +0.000 N 
ATOM     18  N   UNL     1       7.095   5.126  18.791  0.00  0.00    +0.000 NA
ATOM     19  C   UNL     1       6.642   4.935  17.555  0.00  0.00    +0.000 A 
ATOM     20  C   UNL     1       5.426   4.206  17.535  0.00  0.00    +0.000 A 
ATOM     21  C   UNL     1       4.700   3.921  16.278  0.00  0.00    +0.000 C 
ATOM     22  C   UNL     1       5.435   4.344  14.987  0.00  0.00    +0.000 C 
ATOM     23  C   UNL     1       6.801   5.053  15.042  0.00  0.00    +0.000 C 
ATOM     24  C   UNL     1       7.355   5.503  16.390  0.00  0.00    +0.000 C 
ATOM     25  H   UNL     1       6.291   4.610  20.560  0.00  0.00    +0.000 HD
ENDBRANCH  15  16
ENDBRANCH  14  15
ENDBRANCH   3  14
TORSDOF 6
ENDMDL
