MODEL 1
REMARK VINA RESULT:      -7.9      0.000      0.000
REMARK  Name = 
REMARK  10 active torsions:
REMARK  status: ('A' for Active; 'I' for Inactive)
REMARK    1  A    between atoms: C_5  and  C_6
REMARK    2  A    between atoms: C_6  and  O_7
REMARK    3  A    between atoms: C_6  and  C_26
REMARK    4  A    between atoms: O_7  and  C_8
REMARK    5  A    between atoms: C_8  and  C_9
REMARK    6  A    between atoms: C_9  and  N_10
REMARK    7  A    between atoms: N_13  and  C_14
REMARK    8  A    between atoms: C_14  and  C_15
REMARK    9  A    between atoms: C_15  and  C_17
REMARK   10  A    between atoms: C_17  and  C_18
REMARK                            x       y       z     vdW  Elec       q    Type
REMARK                         _______ _______ _______ _____ _____    ______ ____
ROOT
ATOM      1  C   UNL     1       2.821   8.138  17.914  0.00  0.00    +0.000 C 
ENDROOT
BRANCH   1   2
ATOM      2  O   UNL     1       2.542   6.734  17.908  0.00  0.00    +0.000 OA
BRANCH   2   3
ATOM      3  C   UNL     1       3.568   5.944  18.570  0.00  0.00    +0.000 C 
BRANCH   3   8
ATOM      4  F   UNL     1       7.549   4.831  14.677  0.00  0.00    +0.000 F 
ATOM      5  C   UNL     1       6.620   5.059  15.614  0.00  0.00    +0.000 A 
ATOM      6  C   UNL     1       6.910   5.894  16.686  0.00  0.00    +0.000 A 
ATOM      7  C   UNL     1       5.934   6.150  17.653  0.00  0.00    +0.000 A 
ATOM      8  C   UNL     1       4.660   5.564  17.558  0.00  0.00    +0.000 A 
ATOM      9  C   UNL     1       4.397   4.722  16.457  0.00  0.00    +0.000 A 
ATOM     10  C   UNL     1       5.374   4.469  15.493  0.00  0.00    +0.000 A 
ENDBRANCH   3   8
BRANCH   3  11
ATOM     11  C   UNL     1       2.970   4.800  19.405  0.00  0.00    +0.000 A 
ATOM     12  C   UNL     1       1.653   4.842  19.885  0.00  0.00    +0.000 A 
ATOM     13  C   UNL     1       1.187   3.885  20.792  0.00  0.00    +0.000 A 
ATOM     14  C   UNL     1       2.020   2.847  21.181  0.00  0.00    +0.000 A 
ATOM     15  F   UNL     1       1.596   1.966  22.096  0.00  0.00    +0.000 F 
ATOM     16  C   UNL     1       3.289   2.713  20.636  0.00  0.00    +0.000 A 
ATOM     17  C   UNL     1       3.752   3.671  19.731  0.00  0.00    +0.000 A 
ENDBRANCH   3  11
ENDBRANCH   2   3
ENDBRANCH   1   2
BRANCH   1  18
ATOM     18  C   UNL     1       1.562   9.008  17.994  0.00  0.00    +0.000 C 
BRANCH  18  19
ATOM     19  N   UNL     1       1.507   9.739  19.268  0.00  0.00    +0.000 NA
ATOM     20  C   UNL     1       0.949   8.940  20.371  0.00  0.00    +0.000 C 
ATOM     21  C   UNL     1       1.046   9.700  21.723  0.00  0.00    +0.000 C 
ATOM     22  N   UNL     1       0.485  11.072  21.726  0.00  0.00    +0.000 NA
ATOM     23  C   UNL     1       1.042  11.784  20.554  0.00  0.00    +0.000 C 
ATOM     24  C   UNL     1       0.831  11.048  19.215  0.00  0.00    +0.000 C 
BRANCH  22  25
ATOM     25  C   UNL     1      -0.998  11.050  21.737  0.00  0.00    +0.000 C 
BRANCH  25  26
ATOM     26  C   UNL     1      -1.655  12.408  22.044  0.00  0.00    +0.000 C 
ATOM     27  F   UNL     1      -2.480  12.732  20.999  0.00  0.00    +0.000 F 
BRANCH  26  28
ATOM     28  C   UNL     1      -2.535  12.362  23.294  0.00  0.00    +0.000 C 
BRANCH  28  29
ATOM     29  C   UNL     1      -2.816  13.774  23.755  0.00  0.00    +0.000 A 
ATOM     30  C   UNL     1      -1.813  14.512  24.403  0.00  0.00    +0.000 A 
ATOM     31  C   UNL     1      -2.108  15.744  24.984  0.00  0.00    +0.000 A 
ATOM     32  C   UNL     1      -3.404  16.250  24.919  0.00  0.00    +0.000 A 
ATOM     33  C   UNL     1      -4.400  15.536  24.256  0.00  0.00    +0.000 A 
ATOM     34  C   UNL     1      -4.109  14.303  23.674  0.00  0.00    +0.000 A 
ENDBRANCH  28  29
ENDBRANCH  26  28
ENDBRANCH  25  26
ENDBRANCH  22  25
ENDBRANCH  18  19
ENDBRANCH   1  18
TORSDOF 10
ENDMDL
MODEL 2
REMARK VINA RESULT:      -7.9      1.710      4.735
REMARK  Name = 
REMARK  10 active torsions:
REMARK  status: ('A' for Active; 'I' for Inactive)
REMARK    1  A    between atoms: C_5  and  C_6
REMARK    2  A    between atoms: C_6  and  O_7
REMARK    3  A    between atoms: C_6  and  C_26
REMARK    4  A    between atoms: O_7  and  C_8
REMARK    5  A    between atoms: C_8  and  C_9
REMARK    6  A    between atoms: C_9  and  N_10
REMARK    7  A    between atoms: N_13  and  C_14
REMARK    8  A    between atoms: C_14  and  C_15
REMARK    9  A    between atoms: C_15  and  C_17
REMARK   10  A    between atoms: C_17  and  C_18
REMARK                            x       y       z     vdW  Elec       q    Type
REMARK                         _______ _______ _______ _____ _____    ______ ____
ROOT
ATOM      1  C   UNL     1       1.770   7.702  18.552  0.00  0.00    +0.000 C 
ENDROOT
BRANCH   1   2
ATOM      2  O   UNL     1       3.082   7.175  18.331  0.00  0.00    +0.000 OA
BRANCH   2   3
ATOM      3  C   UNL     1       3.074   5.806  17.841  0.00  0.00    +0.000 C 
BRANCH   3   8
ATOM      4  F   UNL     1       0.832   2.552  21.919  0.00  0.00    +0.000 F 
ATOM      5  C   UNL     1       1.390   3.291  20.952  0.00  0.00    +0.000 A 
ATOM      6  C   UNL     1       0.910   3.205  19.652  0.00  0.00    +0.000 A 
ATOM      7  C   UNL     1       1.477   3.993  18.646  0.00  0.00    +0.000 A 
ATOM      8  C   UNL     1       2.538   4.870  18.936  0.00  0.00    +0.000 A 
ATOM      9  C   UNL     1       3.001   4.934  20.266  0.00  0.00    +0.000 A 
ATOM     10  C   UNL     1       2.432   4.146  21.268  0.00  0.00    +0.000 A 
ENDBRANCH   3   8
BRANCH   3  11
ATOM     11  C   UNL     1       4.411   5.414  17.190  0.00  0.00    +0.000 A 
ATOM     12  C   UNL     1       5.578   6.166  17.382  0.00  0.00    +0.000 A 
ATOM     13  C   UNL     1       6.734   5.905  16.640  0.00  0.00    +0.000 A 
ATOM     14  C   UNL     1       6.745   4.850  15.740  0.00  0.00    +0.000 A 
ATOM     15  F   UNL     1       7.830   4.637  14.984  0.00  0.00    +0.000 F 
ATOM     16  C   UNL     1       5.644   4.015  15.610  0.00  0.00    +0.000 A 
ATOM     17  C   UNL     1       4.490   4.281  16.351  0.00  0.00    +0.000 A 
ENDBRANCH   3  11
ENDBRANCH   2   3
ENDBRANCH   1   2
BRANCH   1  18
ATOM     18  C   UNL     1       1.671   9.211  18.302  0.00  0.00    +0.000 C 
BRANCH  18  19
ATOM     19  N   UNL     1       1.511   9.943  19.566  0.00  0.00    +0.000 NA
ATOM     20  C   UNL     1       0.884   9.139  20.627  0.00  0.00    +0.000 C 
ATOM     21  C   UNL     1       0.869   9.904  21.980  0.00  0.00    +0.000 C 
ATOM     22  N   UNL     1       0.290  11.267  21.937  0.00  0.00    +0.000 NA
ATOM     23  C   UNL     1       0.922  11.985  20.807  0.00  0.00    +0.000 C 
ATOM     24  C   UNL     1       0.821  11.243  19.459  0.00  0.00    +0.000 C 
BRANCH  22  25
ATOM     25  C   UNL     1      -1.190  11.223  21.838  0.00  0.00    +0.000 C 
BRANCH  25  26
ATOM     26  C   UNL     1      -1.917  12.305  22.657  0.00  0.00    +0.000 C 
ATOM     27  F   UNL     1      -0.997  12.926  23.460  0.00  0.00    +0.000 F 
BRANCH  26  28
ATOM     28  C   UNL     1      -2.528  13.394  21.773  0.00  0.00    +0.000 C 
BRANCH  28  29
ATOM     29  C   UNL     1      -3.863  12.915  21.249  0.00  0.00    +0.000 A 
ATOM     30  C   UNL     1      -4.035  12.684  19.875  0.00  0.00    +0.000 A 
ATOM     31  C   UNL     1      -5.300  12.411  19.358  0.00  0.00    +0.000 A 
ATOM     32  C   UNL     1      -6.402  12.361  20.209  0.00  0.00    +0.000 A 
ATOM     33  C   UNL     1      -6.237  12.564  21.579  0.00  0.00    +0.000 A 
ATOM     34  C   UNL     1      -4.972  12.838  22.099  0.00  0.00    +0.000 A 
ENDBRANCH  28  29
ENDBRANCH  26  28
ENDBRANCH  25  26
ENDBRANCH  22  25
ENDBRANCH  18  19
ENDBRANCH   1  18
TORSDOF 10
ENDMDL
MODEL 3
REMARK VINA RESULT:      -7.9      1.613      4.398
REMARK  Name = 
REMARK  10 active torsions:
REMARK  status: ('A' for Active; 'I' for Inactive)
REMARK    1  A    between atoms: C_5  and  C_6
REMARK    2  A    between atoms: C_6  and  O_7
REMARK    3  A    between atoms: C_6  and  C_26
REMARK    4  A    between atoms: O_7  and  C_8
REMARK    5  A    between atoms: C_8  and  C_9
REMARK    6  A    between atoms: C_9  and  N_10
REMARK    7  A    between atoms: N_13  and  C_14
REMARK    8  A    between atoms: C_14  and  C_15
REMARK    9  A    between atoms: C_15  and  C_17
REMARK   10  A    between atoms: C_17  and  C_18
REMARK                            x       y       z     vdW  Elec       q    Type
REMARK                         _______ _______ _______ _____ _____    ______ ____
ROOT
ATOM      1  C   UNL     1       2.472   8.562  17.749  0.00  0.00    +0.000 C 
ENDROOT
BRANCH   1   2
ATOM      2  O   UNL     1       3.027   7.535  18.577  0.00  0.00    +0.000 OA
BRANCH   2   3
ATOM      3  C   UNL     1       2.919   6.208  17.992  0.00  0.00    +0.000 C 
BRANCH   3   8
ATOM      4  F   UNL     1       0.891   2.475  21.759  0.00  0.00    +0.000 F 
ATOM      5  C   UNL     1       1.334   3.377  20.875  0.00  0.00    +0.000 A 
ATOM      6  C   UNL     1       2.183   4.395  21.293  0.00  0.00    +0.000 A 
ATOM      7  C   UNL     1       2.665   5.324  20.366  0.00  0.00    +0.000 A 
ATOM      8  C   UNL     1       2.293   5.245  19.013  0.00  0.00    +0.000 A 
ATOM      9  C   UNL     1       1.431   4.199  18.621  0.00  0.00    +0.000 A 
ATOM     10  C   UNL     1       0.952   3.273  19.548  0.00  0.00    +0.000 A 
ENDBRANCH   3   8
BRANCH   3  11
ATOM     11  C   UNL     1       4.232   5.758  17.330  0.00  0.00    +0.000 A 
ATOM     12  C   UNL     1       5.371   6.575  17.310  0.00  0.00    +0.000 A 
ATOM     13  C   UNL     1       6.492   6.229  16.549  0.00  0.00    +0.000 A 
ATOM     14  C   UNL     1       6.500   5.034  15.847  0.00  0.00    +0.000 A 
ATOM     15  F   UNL     1       7.547   4.730  15.069  0.00  0.00    +0.000 F 
ATOM     16  C   UNL     1       5.435   4.149  15.938  0.00  0.00    +0.000 A 
ATOM     17  C   UNL     1       4.316   4.498  16.698  0.00  0.00    +0.000 A 
ENDBRANCH   3  11
ENDBRANCH   2   3
ENDBRANCH   1   2
BRANCH   1  18
ATOM     18  C   UNL     1       0.941   8.620  17.796  0.00  0.00    +0.000 C 
BRANCH  18  19
ATOM     19  N   UNL     1       0.478   9.942  18.243  0.00  0.00    +0.000 NA
ATOM     20  C   UNL     1       1.547  10.760  18.836  0.00  0.00    +0.000 C 
ATOM     21  C   UNL     1       1.045  12.195  19.158  0.00  0.00    +0.000 C 
ATOM     22  N   UNL     1      -0.192  12.273  19.968  0.00  0.00    +0.000 NA
ATOM     23  C   UNL     1      -1.190  11.375  19.346  0.00  0.00    +0.000 C 
ATOM     24  C   UNL     1      -0.691   9.930  19.141  0.00  0.00    +0.000 C 
BRANCH  22  25
ATOM     25  C   UNL     1       0.072  11.945  21.392  0.00  0.00    +0.000 C 
BRANCH  25  26
ATOM     26  C   UNL     1      -1.182  11.922  22.285  0.00  0.00    +0.000 C 
ATOM     27  F   UNL     1      -0.885  11.219  23.423  0.00  0.00    +0.000 F 
BRANCH  26  28
ATOM     28  C   UNL     1      -1.603  13.322  22.736  0.00  0.00    +0.000 C 
BRANCH  28  29
ATOM     29  C   UNL     1      -3.071  13.306  23.094  0.00  0.00    +0.000 A 
ATOM     30  C   UNL     1      -3.519  12.545  24.186  0.00  0.00    +0.000 A 
ATOM     31  C   UNL     1      -4.883  12.383  24.420  0.00  0.00    +0.000 A 
ATOM     32  C   UNL     1      -5.810  12.983  23.572  0.00  0.00    +0.000 A 
ATOM     33  C   UNL     1      -5.375  13.762  22.500  0.00  0.00    +0.000 A 
ATOM     34  C   UNL     1      -4.011  13.925  22.261  0.00  0.00    +0.000 A 
ENDBRANCH  28  29
ENDBRANCH  26  28
ENDBRANCH  25  26
ENDBRANCH  22  25
ENDBRANCH  18  19
ENDBRANCH   1  18
TORSDOF 10
ENDMDL
MODEL 4
REMARK VINA RESULT:      -7.9      1.784      2.209
REMARK  Name = 
REMARK  10 active torsions:
REMARK  status: ('A' for Active; 'I' for Inactive)
REMARK    1  A    between atoms: C_5  and  C_6
REMARK    2  A    between atoms: C_6  and  O_7
REMARK    3  A    between atoms: C_6  and  C_26
REMARK    4  A    between atoms: O_7  and  C_8
REMARK    5  A    between atoms: C_8  and  C_9
REMARK    6  A    between atoms: C_9  and  N_10
REMARK    7  A    between atoms: N_13  and  C_14
REMARK    8  A    between atoms: C_14  and  C_15
REMARK    9  A    between atoms: C_15  and  C_17
REMARK   10  A    between atoms: C_17  and  C_18
REMARK                            x       y       z     vdW  Elec       q    Type
REMARK                         _______ _______ _______ _____ _____    ______ ____
ROOT
ATOM      1  C   UNL     1       2.294   8.804  17.927  0.00  0.00    +0.000 C 
ENDROOT
BRANCH   1   2
ATOM      2  O   UNL     1       2.827   7.670  17.237  0.00  0.00    +0.000 OA
BRANCH   2   3
ATOM      3  C   UNL     1       3.563   6.765  18.105  0.00  0.00    +0.000 C 
BRANCH   3   8
ATOM      4  F   UNL     1       7.888   4.749  15.027  0.00  0.00    +0.000 F 
ATOM      5  C   UNL     1       6.875   5.194  15.781  0.00  0.00    +0.000 A 
ATOM      6  C   UNL     1       7.082   6.245  16.666  0.00  0.00    +0.000 A 
ATOM      7  C   UNL     1       6.019   6.726  17.436  0.00  0.00    +0.000 A 
ATOM      8  C   UNL     1       4.740   6.152  17.331  0.00  0.00    +0.000 A 
ATOM      9  C   UNL     1       4.563   5.087  16.422  0.00  0.00    +0.000 A 
ATOM     10  C   UNL     1       5.626   4.610  15.654  0.00  0.00    +0.000 A 
ENDBRANCH   3   8
BRANCH   3  11
ATOM     11  C   UNL     1       2.635   5.786  18.843  0.00  0.00    +0.000 A 
ATOM     12  C   UNL     1       2.544   5.762  20.242  0.00  0.00    +0.000 A 
ATOM     13  C   UNL     1       1.840   4.748  20.901  0.00  0.00    +0.000 A 
ATOM     14  C   UNL     1       1.175   3.784  20.159  0.00  0.00    +0.000 A 
ATOM     15  F   UNL     1       0.552   2.779  20.787  0.00  0.00    +0.000 F 
ATOM     16  C   UNL     1       1.149   3.847  18.772  0.00  0.00    +0.000 A 
ATOM     17  C   UNL     1       1.854   4.859  18.118  0.00  0.00    +0.000 A 
ENDBRANCH   3  11
ENDBRANCH   2   3
ENDBRANCH   1   2
BRANCH   1  18
ATOM     18  C   UNL     1       0.765   8.892  17.864  0.00  0.00    +0.000 C 
BRANCH  18  19
ATOM     19  N   UNL     1       0.291  10.189  18.368  0.00  0.00    +0.000 NA
ATOM     20  C   UNL     1       1.364  11.012  18.950  0.00  0.00    +0.000 C 
ATOM     21  C   UNL     1       0.844  12.425  19.334  0.00  0.00    +0.000 C 
ATOM     22  N   UNL     1      -0.365  12.450  20.189  0.00  0.00    +0.000 NA
ATOM     23  C   UNL     1      -1.366  11.550  19.574  0.00  0.00    +0.000 C 
ATOM     24  C   UNL     1      -0.845  10.124  19.306  0.00  0.00    +0.000 C 
BRANCH  22  25
ATOM     25  C   UNL     1      -0.044  12.085  21.591  0.00  0.00    +0.000 C 
BRANCH  25  26
ATOM     26  C   UNL     1      -1.263  11.685  22.443  0.00  0.00    +0.000 C 
ATOM     27  F   UNL     1      -0.843  10.811  23.411  0.00  0.00    +0.000 F 
BRANCH  26  28
ATOM     28  C   UNL     1      -1.880  12.879  23.174  0.00  0.00    +0.000 C 
BRANCH  28  29
ATOM     29  C   UNL     1      -3.381  12.703  23.231  0.00  0.00    +0.000 A 
ATOM     30  C   UNL     1      -4.155  12.901  22.076  0.00  0.00    +0.000 A 
ATOM     31  C   UNL     1      -5.546  12.912  22.154  0.00  0.00    +0.000 A 
ATOM     32  C   UNL     1      -6.175  12.719  23.381  0.00  0.00    +0.000 A 
ATOM     33  C   UNL     1      -5.416  12.495  24.529  0.00  0.00    +0.000 A 
ATOM     34  C   UNL     1      -4.023  12.485  24.456  0.00  0.00    +0.000 A 
ENDBRANCH  28  29
ENDBRANCH  26  28
ENDBRANCH  25  26
ENDBRANCH  22  25
ENDBRANCH  18  19
ENDBRANCH   1  18
TORSDOF 10
ENDMDL
MODEL 5
REMARK VINA RESULT:      -7.8      1.383      4.466
REMARK  Name = 
REMARK  10 active torsions:
REMARK  status: ('A' for Active; 'I' for Inactive)
REMARK    1  A    between atoms: C_5  and  C_6
REMARK    2  A    between atoms: C_6  and  O_7
REMARK    3  A    between atoms: C_6  and  C_26
REMARK    4  A    between atoms: O_7  and  C_8
REMARK    5  A    between atoms: C_8  and  C_9
REMARK    6  A    between atoms: C_9  and  N_10
REMARK    7  A    between atoms: N_13  and  C_14
REMARK    8  A    between atoms: C_14  and  C_15
REMARK    9  A    between atoms: C_15  and  C_17
REMARK   10  A    between atoms: C_17  and  C_18
REMARK                            x       y       z     vdW  Elec       q    Type
REMARK                         _______ _______ _______ _____ _____    ______ ____
ROOT
ATOM      1  C   UNL     1       2.664   8.255  17.920  0.00  0.00    +0.000 C 
ENDROOT
BRANCH   1   2
ATOM      2  O   UNL     1       3.120   7.166  18.730  0.00  0.00    +0.000 OA
BRANCH   2   3
ATOM      3  C   UNL     1       3.057   5.883  18.050  0.00  0.00    +0.000 C 
BRANCH   3   8
ATOM      4  F   UNL     1       1.653   2.052  22.000  0.00  0.00    +0.000 F 
ATOM      5  C   UNL     1       1.974   2.928  21.039  0.00  0.00    +0.000 A 
ATOM      6  C   UNL     1       1.049   3.885  20.639  0.00  0.00    +0.000 A 
ATOM      7  C   UNL     1       1.392   4.814  19.652  0.00  0.00    +0.000 A 
ATOM      8  C   UNL     1       2.663   4.786  19.052  0.00  0.00    +0.000 A 
ATOM      9  C   UNL     1       3.579   3.803  19.483  0.00  0.00    +0.000 A 
ATOM     10  C   UNL     1       3.234   2.878  20.468  0.00  0.00    +0.000 A 
ENDBRANCH   3   8
BRANCH   3  11
ATOM     11  C   UNL     1       4.306   5.619  17.192  0.00  0.00    +0.000 A 
ATOM     12  C   UNL     1       4.338   4.609  16.220  0.00  0.00    +0.000 A 
ATOM     13  C   UNL     1       5.533   4.263  15.581  0.00  0.00    +0.000 A 
ATOM     14  C   UNL     1       6.693   4.966  15.871  0.00  0.00    +0.000 A 
ATOM     15  F   UNL     1       7.849   4.596  15.306  0.00  0.00    +0.000 F 
ATOM     16  C   UNL     1       6.670   6.046  16.742  0.00  0.00    +0.000 A 
ATOM     17  C   UNL     1       5.475   6.388  17.380  0.00  0.00    +0.000 A 
ENDBRANCH   3  11
ENDBRANCH   2   3
ENDBRANCH   1   2
BRANCH   1  18
ATOM     18  C   UNL     1       1.243   8.714  18.262  0.00  0.00    +0.000 C 
BRANCH  18  19
ATOM     19  N   UNL     1       1.244   9.607  19.429  0.00  0.00    +0.000 NA
ATOM     20  C   UNL     1       0.845   8.933  20.675  0.00  0.00    +0.000 C 
ATOM     21  C   UNL     1       1.001   9.876  21.900  0.00  0.00    +0.000 C 
ATOM     22  N   UNL     1       0.342  11.196  21.779  0.00  0.00    +0.000 NA
ATOM     23  C   UNL     1       0.740  11.776  20.476  0.00  0.00    +0.000 C 
ATOM     24  C   UNL     1       0.469  10.852  19.271  0.00  0.00    +0.000 C 
BRANCH  22  25
ATOM     25  C   UNL     1      -1.130  11.083  21.935  0.00  0.00    +0.000 C 
BRANCH  25  26
ATOM     26  C   UNL     1      -1.764  12.175  22.816  0.00  0.00    +0.000 C 
ATOM     27  F   UNL     1      -0.756  12.926  23.363  0.00  0.00    +0.000 F 
BRANCH  26  28
ATOM     28  C   UNL     1      -2.637  13.140  22.011  0.00  0.00    +0.000 C 
BRANCH  28  29
ATOM     29  C   UNL     1      -4.091  12.867  22.320  0.00  0.00    +0.000 A 
ATOM     30  C   UNL     1      -5.007  12.678  21.274  0.00  0.00    +0.000 A 
ATOM     31  C   UNL     1      -6.373  12.599  21.538  0.00  0.00    +0.000 A 
ATOM     32  C   UNL     1      -6.835  12.702  22.848  0.00  0.00    +0.000 A 
ATOM     33  C   UNL     1      -5.931  12.865  23.897  0.00  0.00    +0.000 A 
ATOM     34  C   UNL     1      -4.563  12.946  23.636  0.00  0.00    +0.000 A 
ENDBRANCH  28  29
ENDBRANCH  26  28
ENDBRANCH  25  26
ENDBRANCH  22  25
ENDBRANCH  18  19
ENDBRANCH   1  18
TORSDOF 10
ENDMDL
MODEL 6
REMARK VINA RESULT:      -7.8      3.275      3.966
REMARK  Name = 
REMARK  10 active torsions:
REMARK  status: ('A' for Active; 'I' for Inactive)
REMARK    1  A    between atoms: C_5  and  C_6
REMARK    2  A    between atoms: C_6  and  O_7
REMARK    3  A    between atoms: C_6  and  C_26
REMARK    4  A    between atoms: O_7  and  C_8
REMARK    5  A    between atoms: C_8  and  C_9
REMARK    6  A    between atoms: C_9  and  N_10
REMARK    7  A    between atoms: N_13  and  C_14
REMARK    8  A    between atoms: C_14  and  C_15
REMARK    9  A    between atoms: C_15  and  C_17
REMARK   10  A    between atoms: C_17  and  C_18
REMARK                            x       y       z     vdW  Elec       q    Type
REMARK                         _______ _______ _______ _____ _____    ______ ____
ROOT
ATOM      1  C   UNL     1       2.389   8.539  18.302  0.00  0.00    +0.000 C 
ENDROOT
BRANCH   1   2
ATOM      2  O   UNL     1       2.538   7.241  17.719  0.00  0.00    +0.000 OA
BRANCH   2   3
ATOM      3  C   UNL     1       3.479   6.396  18.436  0.00  0.00    +0.000 C 
BRANCH   3   8
ATOM      4  F   UNL     1       7.501   4.691  14.807  0.00  0.00    +0.000 F 
ATOM      5  C   UNL     1       6.579   5.120  15.679  0.00  0.00    +0.000 A 
ATOM      6  C   UNL     1       5.659   6.086  15.293  0.00  0.00    +0.000 A 
ATOM      7  C   UNL     1       4.683   6.518  16.196  0.00  0.00    +0.000 A 
ATOM      8  C   UNL     1       4.626   5.989  17.497  0.00  0.00    +0.000 A 
ATOM      9  C   UNL     1       5.573   5.008  17.857  0.00  0.00    +0.000 A 
ATOM     10  C   UNL     1       6.547   4.579  16.953  0.00  0.00    +0.000 A 
ENDBRANCH   3   8
BRANCH   3  11
ATOM     11  C   UNL     1       2.776   5.263  19.201  0.00  0.00    +0.000 A 
ATOM     12  C   UNL     1       1.906   4.366  18.564  0.00  0.00    +0.000 A 
ATOM     13  C   UNL     1       1.136   3.462  19.303  0.00  0.00    +0.000 A 
ATOM     14  C   UNL     1       1.275   3.413  20.682  0.00  0.00    +0.000 A 
ATOM     15  F   UNL     1       0.494   2.591  21.396  0.00  0.00    +0.000 F 
ATOM     16  C   UNL     1       2.210   4.206  21.331  0.00  0.00    +0.000 A 
ATOM     17  C   UNL     1       2.976   5.109  20.590  0.00  0.00    +0.000 A 
ENDBRANCH   3  11
ENDBRANCH   2   3
ENDBRANCH   1   2
BRANCH   1  18
ATOM     18  C   UNL     1       1.170   9.306  17.776  0.00  0.00    +0.000 C 
BRANCH  18  19
ATOM     19  N   UNL     1       0.642  10.220  18.799  0.00  0.00    +0.000 NA
ATOM     20  C   UNL     1      -0.720  10.693  18.505  0.00  0.00    +0.000 C 
ATOM     21  C   UNL     1      -1.289  11.536  19.680  0.00  0.00    +0.000 C 
ATOM     22  N   UNL     1      -0.429  12.651  20.142  0.00  0.00    +0.000 NA
ATOM     23  C   UNL     1       0.932  12.108  20.349  0.00  0.00    +0.000 C 
ATOM     24  C   UNL     1       1.506  11.371  19.122  0.00  0.00    +0.000 C 
BRANCH  22  25
ATOM     25  C   UNL     1      -0.459  13.788  19.189  0.00  0.00    +0.000 C 
BRANCH  25  26
ATOM     26  C   UNL     1      -0.973  15.110  19.787  0.00  0.00    +0.000 C 
ATOM     27  F   UNL     1      -1.450  14.855  21.046  0.00  0.00    +0.000 F 
BRANCH  26  28
ATOM     28  C   UNL     1       0.139  16.149  19.946  0.00  0.00    +0.000 C 
BRANCH  28  29
ATOM     29  C   UNL     1       0.281  16.923  18.655  0.00  0.00    +0.000 A 
ATOM     30  C   UNL     1       1.545  17.076  18.065  0.00  0.00    +0.000 A 
ATOM     31  C   UNL     1       1.717  17.928  16.976  0.00  0.00    +0.000 A 
ATOM     32  C   UNL     1       0.627  18.629  16.464  0.00  0.00    +0.000 A 
ATOM     33  C   UNL     1      -0.637  18.464  17.027  0.00  0.00    +0.000 A 
ATOM     34  C   UNL     1      -0.812  17.614  18.119  0.00  0.00    +0.000 A 
ENDBRANCH  28  29
ENDBRANCH  26  28
ENDBRANCH  25  26
ENDBRANCH  22  25
ENDBRANCH  18  19
ENDBRANCH   1  18
TORSDOF 10
ENDMDL
MODEL 7
REMARK VINA RESULT:      -7.8      1.364      4.496
REMARK  Name = 
REMARK  10 active torsions:
REMARK  status: ('A' for Active; 'I' for Inactive)
REMARK    1  A    between atoms: C_5  and  C_6
REMARK    2  A    between atoms: C_6  and  O_7
REMARK    3  A    between atoms: C_6  and  C_26
REMARK    4  A    between atoms: O_7  and  C_8
REMARK    5  A    between atoms: C_8  and  C_9
REMARK    6  A    between atoms: C_9  and  N_10
REMARK    7  A    between atoms: N_13  and  C_14
REMARK    8  A    between atoms: C_14  and  C_15
REMARK    9  A    between atoms: C_15  and  C_17
REMARK   10  A    between atoms: C_17  and  C_18
REMARK                            x       y       z     vdW  Elec       q    Type
REMARK                         _______ _______ _______ _____ _____    ______ ____
ROOT
ATOM      1  C   UNL     1       2.345   8.160  17.581  0.00  0.00    +0.000 C 
ENDROOT
BRANCH   1   2
ATOM      2  O   UNL     1       2.838   7.196  18.517  0.00  0.00    +0.000 OA
BRANCH   2   3
ATOM      3  C   UNL     1       2.852   5.841  17.989  0.00  0.00    +0.000 C 
BRANCH   3   8
ATOM      4  F   UNL     1       0.791   2.405  22.012  0.00  0.00    +0.000 F 
ATOM      5  C   UNL     1       1.309   3.189  21.059  0.00  0.00    +0.000 A 
ATOM      6  C   UNL     1       0.863   3.071  19.748  0.00  0.00    +0.000 A 
ATOM      7  C   UNL     1       1.387   3.906  18.757  0.00  0.00    +0.000 A 
ATOM      8  C   UNL     1       2.369   4.861  19.070  0.00  0.00    +0.000 A 
ATOM      9  C   UNL     1       2.799   4.957  20.410  0.00  0.00    +0.000 A 
ATOM     10  C   UNL     1       2.274   4.122  21.398  0.00  0.00    +0.000 A 
ENDBRANCH   3   8
BRANCH   3  11
ATOM     11  C   UNL     1       4.182   5.504  17.293  0.00  0.00    +0.000 A 
ATOM     12  C   UNL     1       5.198   6.456  17.133  0.00  0.00    +0.000 A 
ATOM     13  C   UNL     1       6.318   6.187  16.341  0.00  0.00    +0.000 A 
ATOM     14  C   UNL     1       6.455   4.941  15.749  0.00  0.00    +0.000 A 
ATOM     15  F   UNL     1       7.495   4.703  14.940  0.00  0.00    +0.000 F 
ATOM     16  C   UNL     1       5.524   3.938  15.981  0.00  0.00    +0.000 A 
ATOM     17  C   UNL     1       4.405   4.211  16.772  0.00  0.00    +0.000 A 
ENDBRANCH   3  11
ENDBRANCH   2   3
ENDBRANCH   1   2
BRANCH   1  18
ATOM     18  C   UNL     1       2.199   9.565  18.175  0.00  0.00    +0.000 C 
BRANCH  18  19
ATOM     19  N   UNL     1       0.977   9.671  18.983  0.00  0.00    +0.000 NA
ATOM     20  C   UNL     1       0.185  10.874  18.682  0.00  0.00    +0.000 C 
ATOM     21  C   UNL     1      -1.164  10.868  19.453  0.00  0.00    +0.000 C 
ATOM     22  N   UNL     1      -1.064  10.653  20.915  0.00  0.00    +0.000 NA
ATOM     23  C   UNL     1      -0.201   9.470  21.134  0.00  0.00    +0.000 C 
ATOM     24  C   UNL     1       1.174   9.561  20.441  0.00  0.00    +0.000 C 
BRANCH  22  25
ATOM     25  C   UNL     1      -0.566  11.868  21.608  0.00  0.00    +0.000 C 
BRANCH  25  26
ATOM     26  C   UNL     1      -1.594  12.541  22.535  0.00  0.00    +0.000 C 
ATOM     27  F   UNL     1      -0.919  13.115  23.580  0.00  0.00    +0.000 F 
BRANCH  26  28
ATOM     28  C   UNL     1      -2.357  13.670  21.839  0.00  0.00    +0.000 C 
BRANCH  28  29
ATOM     29  C   UNL     1      -3.646  13.929  22.584  0.00  0.00    +0.000 A 
ATOM     30  C   UNL     1      -4.550  12.879  22.808  0.00  0.00    +0.000 A 
ATOM     31  C   UNL     1      -5.813  13.137  23.337  0.00  0.00    +0.000 A 
ATOM     32  C   UNL     1      -6.182  14.443  23.652  0.00  0.00    +0.000 A 
ATOM     33  C   UNL     1      -5.281  15.489  23.457  0.00  0.00    +0.000 A 
ATOM     34  C   UNL     1      -4.017  15.235  22.926  0.00  0.00    +0.000 A 
ENDBRANCH  28  29
ENDBRANCH  26  28
ENDBRANCH  25  26
ENDBRANCH  22  25
ENDBRANCH  18  19
ENDBRANCH   1  18
TORSDOF 10
ENDMDL
MODEL 8
REMARK VINA RESULT:      -7.7      1.347      4.456
REMARK  Name = 
REMARK  10 active torsions:
REMARK  status: ('A' for Active; 'I' for Inactive)
REMARK    1  A    between atoms: C_5  and  C_6
REMARK    2  A    between atoms: C_6  and  O_7
REMARK    3  A    between atoms: C_6  and  C_26
REMARK    4  A    between atoms: O_7  and  C_8
REMARK    5  A    between atoms: C_8  and  C_9
REMARK    6  A    between atoms: C_9  and  N_10
REMARK    7  A    between atoms: N_13  and  C_14
REMARK    8  A    between atoms: C_14  and  C_15
REMARK    9  A    between atoms: C_15  and  C_17
REMARK   10  A    between atoms: C_17  and  C_18
REMARK                            x       y       z     vdW  Elec       q    Type
REMARK                         _______ _______ _______ _____ _____    ______ ____
ROOT
ATOM      1  C   UNL     1       1.943   8.098  17.998  0.00  0.00    +0.000 C 
ENDROOT
BRANCH   1   2
ATOM      2  O   UNL     1       2.946   7.201  18.486  0.00  0.00    +0.000 OA
BRANCH   2   3
ATOM      3  C   UNL     1       2.837   5.863  17.927  0.00  0.00    +0.000 C 
BRANCH   3   8
ATOM      4  F   UNL     1       0.837   2.430  21.984  0.00  0.00    +0.000 F 
ATOM      5  C   UNL     1       1.341   3.214  21.023  0.00  0.00    +0.000 A 
ATOM      6  C   UNL     1       0.894   3.079  19.714  0.00  0.00    +0.000 A 
ATOM      7  C   UNL     1       1.403   3.912  18.715  0.00  0.00    +0.000 A 
ATOM      8  C   UNL     1       2.371   4.886  19.017  0.00  0.00    +0.000 A 
ATOM      9  C   UNL     1       2.803   4.998  20.356  0.00  0.00    +0.000 A 
ATOM     10  C   UNL     1       2.292   4.165  21.352  0.00  0.00    +0.000 A 
ENDBRANCH   3   8
BRANCH   3  11
ATOM     11  C   UNL     1       4.089   5.464  17.128  0.00  0.00    +0.000 A 
ATOM     12  C   UNL     1       4.878   6.413  16.463  0.00  0.00    +0.000 A 
ATOM     13  C   UNL     1       5.901   6.018  15.595  0.00  0.00    +0.000 A 
ATOM     14  C   UNL     1       6.175   4.669  15.430  0.00  0.00    +0.000 A 
ATOM     15  F   UNL     1       7.112   4.287  14.553  0.00  0.00    +0.000 F 
ATOM     16  C   UNL     1       5.489   3.710  16.162  0.00  0.00    +0.000 A 
ATOM     17  C   UNL     1       4.468   4.108  17.027  0.00  0.00    +0.000 A 
ENDBRANCH   3  11
ENDBRANCH   2   3
ENDBRANCH   1   2
BRANCH   1  18
ATOM     18  C   UNL     1       2.350   9.573  18.090  0.00  0.00    +0.000 C 
BRANCH  18  19
ATOM     19  N   UNL     1       1.176  10.431  18.305  0.00  0.00    +0.000 NA
ATOM     20  C   UNL     1       1.522  11.774  18.797  0.00  0.00    +0.000 C 
ATOM     21  C   UNL     1       0.267  12.688  18.870  0.00  0.00    +0.000 C 
ATOM     22  N   UNL     1      -0.886  12.131  19.615  0.00  0.00    +0.000 NA
ATOM     23  C   UNL     1      -1.126  10.761  19.108  0.00  0.00    +0.000 C 
ATOM     24  C   UNL     1       0.118   9.851  19.153  0.00  0.00    +0.000 C 
BRANCH  22  25
ATOM     25  C   UNL     1      -0.656  12.173  21.080  0.00  0.00    +0.000 C 
BRANCH  25  26
ATOM     26  C   UNL     1      -0.968  13.530  21.737  0.00  0.00    +0.000 C 
ATOM     27  F   UNL     1      -2.137  14.006  21.204  0.00  0.00    +0.000 F 
BRANCH  26  28
ATOM     28  C   UNL     1      -1.197  13.409  23.245  0.00  0.00    +0.000 C 
BRANCH  28  29
ATOM     29  C   UNL     1      -2.650  13.691  23.550  0.00  0.00    +0.000 A 
ATOM     30  C   UNL     1      -3.591  12.650  23.510  0.00  0.00    +0.000 A 
ATOM     31  C   UNL     1      -4.953  12.925  23.617  0.00  0.00    +0.000 A 
ATOM     32  C   UNL     1      -5.386  14.241  23.771  0.00  0.00    +0.000 A 
ATOM     33  C   UNL     1      -4.458  15.279  23.838  0.00  0.00    +0.000 A 
ATOM     34  C   UNL     1      -3.094  15.007  23.729  0.00  0.00    +0.000 A 
ENDBRANCH  28  29
ENDBRANCH  26  28
ENDBRANCH  25  26
ENDBRANCH  22  25
ENDBRANCH  18  19
ENDBRANCH   1  18
TORSDOF 10
ENDMDL
MODEL 9
REMARK VINA RESULT:      -7.7      1.998      2.668
REMARK  Name = 
REMARK  10 active torsions:
REMARK  status: ('A' for Active; 'I' for Inactive)
REMARK    1  A    between atoms: C_5  and  C_6
REMARK    2  A    between atoms: C_6  and  O_7
REMARK    3  A    between atoms: C_6  and  C_26
REMARK    4  A    between atoms: O_7  and  C_8
REMARK    5  A    between atoms: C_8  and  C_9
REMARK    6  A    between atoms: C_9  and  N_10
REMARK    7  A    between atoms: N_13  and  C_14
REMARK    8  A    between atoms: C_14  and  C_15
REMARK    9  A    between atoms: C_15  and  C_17
REMARK   10  A    between atoms: C_17  and  C_18
REMARK                            x       y       z     vdW  Elec       q    Type
REMARK                         _______ _______ _______ _____ _____    ______ ____
ROOT
ATOM      1  C   UNL     1       2.665   8.539  18.058  0.00  0.00    +0.000 C 
ENDROOT
BRANCH   1   2
ATOM      2  O   UNL     1       2.637   7.246  17.446  0.00  0.00    +0.000 OA
BRANCH   2   3
ATOM      3  C   UNL     1       3.464   6.269  18.136  0.00  0.00    +0.000 C 
BRANCH   3   8
ATOM      4  F   UNL     1       6.657   3.723  14.190  0.00  0.00    +0.000 F 
ATOM      5  C   UNL     1       5.937   4.325  15.146  0.00  0.00    +0.000 A 
ATOM      6  C   UNL     1       5.752   5.701  15.108  0.00  0.00    +0.000 A 
ATOM      7  C   UNL     1       4.982   6.327  16.093  0.00  0.00    +0.000 A 
ATOM      8  C   UNL     1       4.396   5.578  17.128  0.00  0.00    +0.000 A 
ATOM      9  C   UNL     1       4.602   4.182  17.136  0.00  0.00    +0.000 A 
ATOM     10  C   UNL     1       5.371   3.560  16.152  0.00  0.00    +0.000 A 
ENDBRANCH   3   8
BRANCH   3  11
ATOM     11  C   UNL     1       2.637   5.353  19.054  0.00  0.00    +0.000 A 
ATOM     12  C   UNL     1       2.808   5.348  20.445  0.00  0.00    +0.000 A 
ATOM     13  C   UNL     1       2.183   4.384  21.244  0.00  0.00    +0.000 A 
ATOM     14  C   UNL     1       1.338   3.454  20.658  0.00  0.00    +0.000 A 
ATOM     15  F   UNL     1       0.787   2.493  21.412  0.00  0.00    +0.000 F 
ATOM     16  C   UNL     1       1.057   3.505  19.300  0.00  0.00    +0.000 A 
ATOM     17  C   UNL     1       1.684   4.467  18.506  0.00  0.00    +0.000 A 
ENDBRANCH   3  11
ENDBRANCH   2   3
ENDBRANCH   1   2
BRANCH   1  18
ATOM     18  C   UNL     1       1.351   9.313  17.905  0.00  0.00    +0.000 C 
BRANCH  18  19
ATOM     19  N   UNL     1       1.157  10.248  19.022  0.00  0.00    +0.000 NA
ATOM     20  C   UNL     1       0.740   9.584  20.267  0.00  0.00    +0.000 C 
ATOM     21  C   UNL     1       0.689  10.588  21.452  0.00  0.00    +0.000 C 
ATOM     22  N   UNL     1      -0.105  11.816  21.215  0.00  0.00    +0.000 NA
ATOM     23  C   UNL     1       0.326  12.383  19.918  0.00  0.00    +0.000 C 
ATOM     24  C   UNL     1       0.260  11.385  18.744  0.00  0.00    +0.000 C 
BRANCH  22  25
ATOM     25  C   UNL     1      -1.562  11.536  21.267  0.00  0.00    +0.000 C 
BRANCH  25  26
ATOM     26  C   UNL     1      -2.411  12.677  21.856  0.00  0.00    +0.000 C 
ATOM     27  F   UNL     1      -1.568  13.565  22.474  0.00  0.00    +0.000 F 
BRANCH  26  28
ATOM     28  C   UNL     1      -3.157  13.466  20.778  0.00  0.00    +0.000 C 
BRANCH  28  29
ATOM     29  C   UNL     1      -4.587  12.978  20.709  0.00  0.00    +0.000 A 
ATOM     30  C   UNL     1      -5.410  13.056  21.844  0.00  0.00    +0.000 A 
ATOM     31  C   UNL     1      -6.667  12.455  21.845  0.00  0.00    +0.000 A 
ATOM     32  C   UNL     1      -7.115  11.777  20.713  0.00  0.00    +0.000 A 
ATOM     33  C   UNL     1      -6.315  11.716  19.573  0.00  0.00    +0.000 A 
ATOM     34  C   UNL     1      -5.055  12.315  19.568  0.00  0.00    +0.000 A 
ENDBRANCH  28  29
ENDBRANCH  26  28
ENDBRANCH  25  26
ENDBRANCH  22  25
ENDBRANCH  18  19
ENDBRANCH   1  18
TORSDOF 10
ENDMDL
