MODEL 1
REMARK VINA RESULT:      -8.9      0.000      0.000
REMARK  Name = 
REMARK  5 active torsions:
REMARK  status: ('A' for Active; 'I' for Inactive)
REMARK    1  A    between atoms: C_1  and  O_2
REMARK    2  A    between atoms: O_2  and  C_3
REMARK    3  A    between atoms: C_25  and  O_26
REMARK    4  A    between atoms: C_25  and  C_27
REMARK    5  A    between atoms: C_27  and  C_28
REMARK                            x       y       z     vdW  Elec       q    Type
REMARK                         _______ _______ _______ _____ _____    ______ ____
ROOT
ATOM      1  C   UNL     1       3.248   5.412  19.135  0.00  0.00    +0.000 A 
ATOM      2  C   UNL     1       2.578   6.582  19.445  0.00  0.00    +0.000 A 
ATOM      3  C   UNL     1       2.681   7.684  18.612  0.00  0.00    +0.000 A 
ATOM      4  N   UNL     1       3.386   7.726  17.477  0.00  0.00    +0.000 NA
ATOM      5  C   UNL     1       4.085   6.583  17.187  0.00  0.00    +0.000 A 
ATOM      6  C   UNL     1       4.905   6.537  16.055  0.00  0.00    +0.000 A 
ATOM      7  C   UNL     1       5.649   5.403  15.693  0.00  0.00    +0.000 A 
ATOM      8  C   UNL     1       5.602   4.257  16.475  0.00  0.00    +0.000 A 
ATOM      9  C   UNL     1       4.803   4.257  17.612  0.00  0.00    +0.000 A 
ATOM     10  C   UNL     1       4.045   5.404  17.981  0.00  0.00    +0.000 A 
ATOM     11  C   UNL     1       1.847   8.769  19.219  0.00  0.00    +0.000 A 
ATOM     12  C   UNL     1       1.487  10.019  18.845  0.00  0.00    +0.000 A 
ATOM     13  C   UNL     1       0.553  10.784  19.698  0.00  0.00    +0.000 A 
ATOM     14  C   UNL     1       0.178  10.287  20.891  0.00  0.00    +0.000 A 
ATOM     15  C   UNL     1       0.620   8.938  21.327  0.00  0.00    +0.000 A 
ATOM     16  O   UNL     1       0.282   8.473  22.408  0.00  0.00    +0.000 OA
ATOM     17  N   UNL     1       1.372   8.274  20.416  0.00  0.00    +0.000 N 
ATOM     18  C   UNL     1       1.734   6.889  20.628  0.00  0.00    +0.000 C 
ATOM     19  C   UNL     1      -0.834  10.875  21.802  0.00  0.00    +0.000 C 
ATOM     20  O   UNL     1      -1.329  12.130  21.337  0.00  0.00    +0.000 OA
ATOM     21  C   UNL     1      -1.507  12.196  19.984  0.00  0.00    +0.000 C 
ATOM     22  O   UNL     1      -2.581  12.559  19.517  0.00  0.00    +0.000 OA
ATOM     23  C   UNL     1      -0.161  12.034  19.166  0.00  0.00    +0.000 C 
ENDROOT
BRANCH   1  25
ATOM     24  C   UNL     1       2.153   3.387  19.850  0.00  0.00    +0.000 C 
ATOM     25  O   UNL     1       3.271   4.268  19.898  0.00  0.00    +0.000 OA
ENDBRANCH   1  25
BRANCH  23  26
ATOM     26  O   UNL     1      -0.473  11.826  17.799  0.00  0.00    +0.000 OA
ATOM     27  H   UNL     1      -0.586  10.870  17.655  0.00  0.00    +0.000 HD
ENDBRANCH  23  26
BRANCH  23  28
ATOM     28  C   UNL     1       0.459  13.423  19.439  0.00  0.00    +0.000 C 
BRANCH  28  29
ATOM     29  C   UNL     1       1.532  14.058  20.342  0.00  0.00    +0.000 C 
ATOM     30  O   UNL     1       1.727  13.637  21.475  0.00  0.00    +0.000 OA
ATOM     31  N   UNL     1       2.230  15.170  19.779  0.00  0.00    +0.000 N 
ATOM     32  C   UNL     1       2.053  15.674  18.404  0.00  0.00    +0.000 C 
ATOM     33  C   UNL     1       3.340  16.321  17.853  0.00  0.00    +0.000 C 
ATOM     34  O   UNL     1       3.868  17.300  18.758  0.00  0.00    +0.000 OA
ATOM     35  C   UNL     1       4.187  16.689  20.016  0.00  0.00    +0.000 C 
ATOM     36  C   UNL     1       2.930  16.093  20.669  0.00  0.00    +0.000 C 
ENDBRANCH  28  29
ENDBRANCH  23  28
TORSDOF 4
ENDMDL
MODEL 2
REMARK VINA RESULT:      -8.8      1.267      1.499
REMARK  Name = 
REMARK  5 active torsions:
REMARK  status: ('A' for Active; 'I' for Inactive)
REMARK    1  A    between atoms: C_1  and  O_2
REMARK    2  A    between atoms: O_2  and  C_3
REMARK    3  A    between atoms: C_25  and  O_26
REMARK    4  A    between atoms: C_25  and  C_27
REMARK    5  A    between atoms: C_27  and  C_28
REMARK                            x       y       z     vdW  Elec       q    Type
REMARK                         _______ _______ _______ _____ _____    ______ ____
ROOT
ATOM      1  C   UNL     1       3.331   5.426  19.151  0.00  0.00    +0.000 A 
ATOM      2  C   UNL     1       2.628   6.580  19.446  0.00  0.00    +0.000 A 
ATOM      3  C   UNL     1       2.683   7.666  18.588  0.00  0.00    +0.000 A 
ATOM      4  N   UNL     1       3.369   7.705  17.441  0.00  0.00    +0.000 NA
ATOM      5  C   UNL     1       4.101   6.580  17.166  0.00  0.00    +0.000 A 
ATOM      6  C   UNL     1       4.906   6.535  16.023  0.00  0.00    +0.000 A 
ATOM      7  C   UNL     1       5.681   5.418  15.674  0.00  0.00    +0.000 A 
ATOM      8  C   UNL     1       5.683   4.289  16.482  0.00  0.00    +0.000 A 
ATOM      9  C   UNL     1       4.901   4.289  17.631  0.00  0.00    +0.000 A 
ATOM     10  C   UNL     1       4.111   5.418  17.986  0.00  0.00    +0.000 A 
ATOM     11  C   UNL     1       1.823   8.737  19.184  0.00  0.00    +0.000 A 
ATOM     12  C   UNL     1       1.416   9.966  18.788  0.00  0.00    +0.000 A 
ATOM     13  C   UNL     1       0.471  10.719  19.638  0.00  0.00    +0.000 A 
ATOM     14  C   UNL     1       0.129  10.236  20.848  0.00  0.00    +0.000 A 
ATOM     15  C   UNL     1       0.621   8.912  21.306  0.00  0.00    +0.000 A 
ATOM     16  O   UNL     1       0.314   8.461  22.402  0.00  0.00    +0.000 OA
ATOM     17  N   UNL     1       1.382   8.253  20.399  0.00  0.00    +0.000 N 
ATOM     18  C   UNL     1       1.791   6.886  20.635  0.00  0.00    +0.000 C 
ATOM     19  C   UNL     1      -0.889  10.812  21.761  0.00  0.00    +0.000 C 
ATOM     20  O   UNL     1      -1.431  12.039  21.276  0.00  0.00    +0.000 OA
ATOM     21  C   UNL     1      -1.631  12.070  19.925  0.00  0.00    +0.000 C 
ATOM     22  O   UNL     1      -2.722  12.387  19.466  0.00  0.00    +0.000 OA
ATOM     23  C   UNL     1      -0.292  11.933  19.090  0.00  0.00    +0.000 C 
ENDROOT
BRANCH   1  25
ATOM     24  C   UNL     1       2.301   3.397  19.948  0.00  0.00    +0.000 C 
ATOM     25  O   UNL     1       3.402   4.301  19.938  0.00  0.00    +0.000 OA
ENDBRANCH   1  25
BRANCH  23  26
ATOM     26  O   UNL     1      -0.617  11.685  17.733  0.00  0.00    +0.000 OA
ATOM     27  H   UNL     1      -1.181  12.414  17.418  0.00  0.00    +0.000 HD
ENDBRANCH  23  26
BRANCH  23  28
ATOM     28  C   UNL     1       0.286  13.348  19.324  0.00  0.00    +0.000 C 
BRANCH  28  29
ATOM     29  C   UNL     1       1.319  14.298  18.692  0.00  0.00    +0.000 C 
ATOM     30  O   UNL     1       2.420  13.889  18.351  0.00  0.00    +0.000 OA
ATOM     31  N   UNL     1       0.911  15.663  18.581  0.00  0.00    +0.000 N 
ATOM     32  C   UNL     1      -0.423  16.182  18.940  0.00  0.00    +0.000 C 
ATOM     33  C   UNL     1      -0.817  17.407  18.091  0.00  0.00    +0.000 C 
ATOM     34  O   UNL     1       0.209  18.408  18.101  0.00  0.00    +0.000 OA
ATOM     35  C   UNL     1       1.427  17.875  17.564  0.00  0.00    +0.000 C 
ATOM     36  C   UNL     1       1.929  16.697  18.414  0.00  0.00    +0.000 C 
ENDBRANCH  28  29
ENDBRANCH  23  28
TORSDOF 4
ENDMDL
MODEL 3
REMARK VINA RESULT:      -8.7      1.347      1.681
REMARK  Name = 
REMARK  5 active torsions:
REMARK  status: ('A' for Active; 'I' for Inactive)
REMARK    1  A    between atoms: C_1  and  O_2
REMARK    2  A    between atoms: O_2  and  C_3
REMARK    3  A    between atoms: C_25  and  O_26
REMARK    4  A    between atoms: C_25  and  C_27
REMARK    5  A    between atoms: C_27  and  C_28
REMARK                            x       y       z     vdW  Elec       q    Type
REMARK                         _______ _______ _______ _____ _____    ______ ____
ROOT
ATOM      1  C   UNL     1       3.902   5.125  18.738  0.00  0.00    +0.000 A 
ATOM      2  C   UNL     1       3.137   6.237  19.045  0.00  0.00    +0.000 A 
ATOM      3  C   UNL     1       3.056   7.292  18.153  0.00  0.00    +0.000 A 
ATOM      4  N   UNL     1       3.661   7.340  16.961  0.00  0.00    +0.000 NA
ATOM      5  C   UNL     1       4.453   6.260  16.671  0.00  0.00    +0.000 A 
ATOM      6  C   UNL     1       5.183   6.232  15.478  0.00  0.00    +0.000 A 
ATOM      7  C   UNL     1       6.013   5.161  15.111  0.00  0.00    +0.000 A 
ATOM      8  C   UNL     1       6.150   4.064  15.951  0.00  0.00    +0.000 A 
ATOM      9  C   UNL     1       5.447   4.049  17.150  0.00  0.00    +0.000 A 
ATOM     10  C   UNL     1       4.602   5.131  17.523  0.00  0.00    +0.000 A 
ATOM     11  C   UNL     1       2.161   8.320  18.773  0.00  0.00    +0.000 A 
ATOM     12  C   UNL     1       1.641   9.502  18.368  0.00  0.00    +0.000 A 
ATOM     13  C   UNL     1       0.701  10.217  19.257  0.00  0.00    +0.000 A 
ATOM     14  C   UNL     1       0.476   9.754  20.501  0.00  0.00    +0.000 A 
ATOM     15  C   UNL     1       1.092   8.485  20.965  0.00  0.00    +0.000 A 
ATOM     16  O   UNL     1       0.891   8.052  22.093  0.00  0.00    +0.000 OA
ATOM     17  N   UNL     1       1.837   7.850  20.029  0.00  0.00    +0.000 N 
ATOM     18  C   UNL     1       2.360   6.524  20.278  0.00  0.00    +0.000 C 
ATOM     19  C   UNL     1      -0.519  10.288  21.464  0.00  0.00    +0.000 C 
ATOM     20  O   UNL     1      -1.181  11.455  20.979  0.00  0.00    +0.000 OA
ATOM     21  C   UNL     1      -1.471  11.424  19.644  0.00  0.00    +0.000 C 
ATOM     22  O   UNL     1      -2.610  11.647  19.252  0.00  0.00    +0.000 OA
ATOM     23  C   UNL     1      -0.183  11.353  18.726  0.00  0.00    +0.000 C 
ENDROOT
BRANCH   1  25
ATOM     24  C   UNL     1       3.098   3.033  19.627  0.00  0.00    +0.000 C 
ATOM     25  O   UNL     1       4.106   4.036  19.553  0.00  0.00    +0.000 OA
ENDBRANCH   1  25
BRANCH  23  26
ATOM     26  O   UNL     1      -0.577  11.035  17.402  0.00  0.00    +0.000 OA
ATOM     27  H   UNL     1      -0.300  10.121  17.213  0.00  0.00    +0.000 HD
ENDBRANCH  23  26
BRANCH  23  28
ATOM     28  C   UNL     1       0.304  12.812  18.876  0.00  0.00    +0.000 C 
BRANCH  28  29
ATOM     29  C   UNL     1       1.627  13.584  19.034  0.00  0.00    +0.000 C 
ATOM     30  O   UNL     1       2.438  13.633  18.119  0.00  0.00    +0.000 OA
ATOM     31  N   UNL     1       1.841  14.182  20.314  0.00  0.00    +0.000 N 
ATOM     32  C   UNL     1       0.868  14.182  21.424  0.00  0.00    +0.000 C 
ATOM     33  C   UNL     1       1.014  15.425  22.324  0.00  0.00    +0.000 C 
ATOM     34  O   UNL     1       2.370  15.611  22.751  0.00  0.00    +0.000 OA
ATOM     35  C   UNL     1       3.227  15.788  21.615  0.00  0.00    +0.000 C 
ATOM     36  C   UNL     1       3.198  14.546  20.710  0.00  0.00    +0.000 C 
ENDBRANCH  28  29
ENDBRANCH  23  28
TORSDOF 4
ENDMDL
MODEL 4
REMARK VINA RESULT:      -8.5      2.581      5.135
REMARK  Name = 
REMARK  5 active torsions:
REMARK  status: ('A' for Active; 'I' for Inactive)
REMARK    1  A    between atoms: C_1  and  O_2
REMARK    2  A    between atoms: O_2  and  C_3
REMARK    3  A    between atoms: C_25  and  O_26
REMARK    4  A    between atoms: C_25  and  C_27
REMARK    5  A    between atoms: C_27  and  C_28
REMARK                            x       y       z     vdW  Elec       q    Type
REMARK                         _______ _______ _______ _____ _____    ______ ____
ROOT
ATOM      1  C   UNL     1       3.391   5.835  18.588  0.00  0.00    +0.000 A 
ATOM      2  C   UNL     1       2.731   7.021  18.855  0.00  0.00    +0.000 A 
ATOM      3  C   UNL     1       1.857   7.104  19.925  0.00  0.00    +0.000 A 
ATOM      4  N   UNL     1       1.586   6.109  20.776  0.00  0.00    +0.000 NA
ATOM      5  C   UNL     1       2.205   4.920  20.491  0.00  0.00    +0.000 A 
ATOM      6  C   UNL     1       1.946   3.794  21.279  0.00  0.00    +0.000 A 
ATOM      7  C   UNL     1       2.543   2.544  21.050  0.00  0.00    +0.000 A 
ATOM      8  C   UNL     1       3.430   2.376  19.996  0.00  0.00    +0.000 A 
ATOM      9  C   UNL     1       3.716   3.467  19.183  0.00  0.00    +0.000 A 
ATOM     10  C   UNL     1       3.115   4.736  19.414  0.00  0.00    +0.000 A 
ATOM     11  C   UNL     1       1.319   8.501  19.942  0.00  0.00    +0.000 A 
ATOM     12  C   UNL     1       0.512   9.204  20.771  0.00  0.00    +0.000 A 
ATOM     13  C   UNL     1       0.264  10.635  20.491  0.00  0.00    +0.000 A 
ATOM     14  C   UNL     1       0.733  11.184  19.355  0.00  0.00    +0.000 A 
ATOM     15  C   UNL     1       1.572  10.396  18.417  0.00  0.00    +0.000 A 
ATOM     16  O   UNL     1       2.008  10.887  17.384  0.00  0.00    +0.000 OA
ATOM     17  N   UNL     1       1.839   9.134  18.831  0.00  0.00    +0.000 N 
ATOM     18  C   UNL     1       2.778   8.305  18.108  0.00  0.00    +0.000 C 
ATOM     19  C   UNL     1       0.668  12.621  18.990  0.00  0.00    +0.000 C 
ATOM     20  O   UNL     1      -0.060  13.397  19.940  0.00  0.00    +0.000 OA
ATOM     21  C   UNL     1       0.147  13.032  21.241  0.00  0.00    +0.000 C 
ATOM     22  O   UNL     1       0.473  13.868  22.075  0.00  0.00    +0.000 OA
ATOM     23  C   UNL     1      -0.335  11.558  21.561  0.00  0.00    +0.000 C 
ENDROOT
BRANCH   1  25
ATOM     24  C   UNL     1       5.576   6.097  17.604  0.00  0.00    +0.000 C 
ATOM     25  O   UNL     1       4.241   5.604  17.532  0.00  0.00    +0.000 OA
ENDBRANCH   1  25
BRANCH  23  26
ATOM     26  O   UNL     1       0.174  11.170  22.826  0.00  0.00    +0.000 OA
ATOM     27  H   UNL     1       0.325  11.976  23.352  0.00  0.00    +0.000 HD
ENDBRANCH  23  26
BRANCH  23  28
ATOM     28  C   UNL     1      -1.862  11.798  21.572  0.00  0.00    +0.000 C 
BRANCH  28  29
ATOM     29  C   UNL     1      -2.927  12.449  22.473  0.00  0.00    +0.000 C 
ATOM     30  O   UNL     1      -2.712  12.638  23.663  0.00  0.00    +0.000 OA
ATOM     31  N   UNL     1      -4.164  12.765  21.832  0.00  0.00    +0.000 N 
ATOM     32  C   UNL     1      -4.442  12.594  20.393  0.00  0.00    +0.000 C 
ATOM     33  C   UNL     1      -5.469  13.620  19.874  0.00  0.00    +0.000 C 
ATOM     34  O   UNL     1      -6.650  13.643  20.687  0.00  0.00    +0.000 OA
ATOM     35  C   UNL     1      -6.315  14.000  22.035  0.00  0.00    +0.000 C 
ATOM     36  C   UNL     1      -5.356  12.969  22.651  0.00  0.00    +0.000 C 
ENDBRANCH  28  29
ENDBRANCH  23  28
TORSDOF 4
ENDMDL
MODEL 5
REMARK VINA RESULT:      -8.5      0.996      1.007
REMARK  Name = 
REMARK  5 active torsions:
REMARK  status: ('A' for Active; 'I' for Inactive)
REMARK    1  A    between atoms: C_1  and  O_2
REMARK    2  A    between atoms: O_2  and  C_3
REMARK    3  A    between atoms: C_25  and  O_26
REMARK    4  A    between atoms: C_25  and  C_27
REMARK    5  A    between atoms: C_27  and  C_28
REMARK                            x       y       z     vdW  Elec       q    Type
REMARK                         _______ _______ _______ _____ _____    ______ ____
ROOT
ATOM      1  C   UNL     1       2.843   5.713  19.789  0.00  0.00    +0.000 A 
ATOM      2  C   UNL     1       2.150   6.893  19.987  0.00  0.00    +0.000 A 
ATOM      3  C   UNL     1       2.231   7.912  19.054  0.00  0.00    +0.000 A 
ATOM      4  N   UNL     1       2.936   7.860  17.918  0.00  0.00    +0.000 NA
ATOM      5  C   UNL     1       3.658   6.709  17.738  0.00  0.00    +0.000 A 
ATOM      6  C   UNL     1       4.480   6.572  16.615  0.00  0.00    +0.000 A 
ATOM      7  C   UNL     1       5.247   5.423  16.362  0.00  0.00    +0.000 A 
ATOM      8  C   UNL     1       5.222   4.356  17.250  0.00  0.00    +0.000 A 
ATOM      9  C   UNL     1       4.422   4.449  18.383  0.00  0.00    +0.000 A 
ATOM     10  C   UNL     1       3.641   5.611  18.641  0.00  0.00    +0.000 A 
ATOM     11  C   UNL     1       1.375   9.033  19.555  0.00  0.00    +0.000 A 
ATOM     12  C   UNL     1       0.990  10.234  19.063  0.00  0.00    +0.000 A 
ATOM     13  C   UNL     1       0.040  11.059  19.840  0.00  0.00    +0.000 A 
ATOM     14  C   UNL     1      -0.326  10.670  21.076  0.00  0.00    +0.000 A 
ATOM     15  C   UNL     1       0.143   9.378  21.638  0.00  0.00    +0.000 A 
ATOM     16  O   UNL     1      -0.188   9.012  22.759  0.00  0.00    +0.000 OA
ATOM     17  N   UNL     1       0.909   8.645  20.794  0.00  0.00    +0.000 N 
ATOM     18  C   UNL     1       1.298   7.295  21.137  0.00  0.00    +0.000 C 
ATOM     19  C   UNL     1      -1.351  11.322  21.928  0.00  0.00    +0.000 C 
ATOM     20  O   UNL     1      -1.870  12.516  21.345  0.00  0.00    +0.000 OA
ATOM     21  C   UNL     1      -2.049  12.450  19.992  0.00  0.00    +0.000 C 
ATOM     22  O   UNL     1      -3.129  12.745  19.494  0.00  0.00    +0.000 OA
ATOM     23  C   UNL     1      -0.698  12.237  19.192  0.00  0.00    +0.000 C 
ENDROOT
BRANCH   1  25
ATOM     24  C   UNL     1       1.760   3.782  20.744  0.00  0.00    +0.000 C 
ATOM     25  O   UNL     1       2.888   4.647  20.658  0.00  0.00    +0.000 OA
ENDBRANCH   1  25
BRANCH  23  26
ATOM     26  O   UNL     1      -1.005  11.894  17.852  0.00  0.00    +0.000 OA
ATOM     27  H   UNL     1      -1.867  12.288  17.627  0.00  0.00    +0.000 HD
ENDBRANCH  23  26
BRANCH  23  28
ATOM     28  C   UNL     1      -0.107  13.659  19.331  0.00  0.00    +0.000 C 
BRANCH  28  29
ATOM     29  C   UNL     1       0.854  14.431  20.254  0.00  0.00    +0.000 C 
ATOM     30  O   UNL     1       1.316  13.905  21.257  0.00  0.00    +0.000 OA
ATOM     31  N   UNL     1       1.117  15.783  19.875  0.00  0.00    +0.000 N 
ATOM     32  C   UNL     1       0.613  16.433  18.650  0.00  0.00    +0.000 C 
ATOM     33  C   UNL     1       1.570  17.529  18.139  0.00  0.00    +0.000 C 
ATOM     34  O   UNL     1       1.915  18.454  19.179  0.00  0.00    +0.000 OA
ATOM     35  C   UNL     1       2.568  17.768  20.256  0.00  0.00    +0.000 C 
ATOM     36  C   UNL     1       1.638  16.712  20.874  0.00  0.00    +0.000 C 
ENDBRANCH  28  29
ENDBRANCH  23  28
TORSDOF 4
ENDMDL
MODEL 6
REMARK VINA RESULT:      -8.5      0.970      1.198
REMARK  Name = 
REMARK  5 active torsions:
REMARK  status: ('A' for Active; 'I' for Inactive)
REMARK    1  A    between atoms: C_1  and  O_2
REMARK    2  A    between atoms: O_2  and  C_3
REMARK    3  A    between atoms: C_25  and  O_26
REMARK    4  A    between atoms: C_25  and  C_27
REMARK    5  A    between atoms: C_27  and  C_28
REMARK                            x       y       z     vdW  Elec       q    Type
REMARK                         _______ _______ _______ _____ _____    ______ ____
ROOT
ATOM      1  C   UNL     1       3.330   5.375  19.092  0.00  0.00    +0.000 A 
ATOM      2  C   UNL     1       2.628   6.521  19.422  0.00  0.00    +0.000 A 
ATOM      3  C   UNL     1       2.699   7.639  18.608  0.00  0.00    +0.000 A 
ATOM      4  N   UNL     1       3.401   7.719  17.473  0.00  0.00    +0.000 NA
ATOM      5  C   UNL     1       4.132   6.602  17.164  0.00  0.00    +0.000 A 
ATOM      6  C   UNL     1       4.951   6.597  16.030  0.00  0.00    +0.000 A 
ATOM      7  C   UNL     1       5.726   5.490  15.649  0.00  0.00    +0.000 A 
ATOM      8  C   UNL     1       5.712   4.331  16.412  0.00  0.00    +0.000 A 
ATOM      9  C   UNL     1       4.915   4.290  17.550  0.00  0.00    +0.000 A 
ATOM     10  C   UNL     1       4.125   5.409  17.938  0.00  0.00    +0.000 A 
ATOM     11  C   UNL     1       1.836   8.690  19.233  0.00  0.00    +0.000 A 
ATOM     12  C   UNL     1       1.440   9.935  18.880  0.00  0.00    +0.000 A 
ATOM     13  C   UNL     1       0.487  10.660  19.746  0.00  0.00    +0.000 A 
ATOM     14  C   UNL     1       0.127  10.132  20.932  0.00  0.00    +0.000 A 
ATOM     15  C   UNL     1       0.607   8.789  21.345  0.00  0.00    +0.000 A 
ATOM     16  O   UNL     1       0.283   8.298  22.418  0.00  0.00    +0.000 OA
ATOM     17  N   UNL     1       1.377   8.162  20.423  0.00  0.00    +0.000 N 
ATOM     18  C   UNL     1       1.777   6.785  20.611  0.00  0.00    +0.000 C 
ATOM     19  C   UNL     1      -0.900  10.677  21.853  0.00  0.00    +0.000 C 
ATOM     20  O   UNL     1      -1.430  11.925  21.409  0.00  0.00    +0.000 OA
ATOM     21  C   UNL     1      -1.612  12.009  20.057  0.00  0.00    +0.000 C 
ATOM     22  O   UNL     1      -2.696  12.349  19.597  0.00  0.00    +0.000 OA
ATOM     23  C   UNL     1      -0.263  11.898  19.236  0.00  0.00    +0.000 C 
ENDROOT
BRANCH   1  25
ATOM     24  C   UNL     1       2.295   3.306  19.770  0.00  0.00    +0.000 C 
ATOM     25  O   UNL     1       3.386   4.220  19.836  0.00  0.00    +0.000 OA
ENDBRANCH   1  25
BRANCH  23  26
ATOM     26  O   UNL     1      -0.571  11.704  17.866  0.00  0.00    +0.000 OA
ATOM     27  H   UNL     1      -1.132  10.912  17.789  0.00  0.00    +0.000 HD
ENDBRANCH  23  26
BRANCH  23  28
ATOM     28  C   UNL     1       0.318  13.299  19.532  0.00  0.00    +0.000 C 
BRANCH  28  29
ATOM     29  C   UNL     1      -0.115  14.775  19.454  0.00  0.00    +0.000 C 
ATOM     30  O   UNL     1      -1.191  15.137  19.910  0.00  0.00    +0.000 OA
ATOM     31  N   UNL     1       0.797  15.649  18.787  0.00  0.00    +0.000 N 
ATOM     32  C   UNL     1       2.121  15.256  18.266  0.00  0.00    +0.000 C 
ATOM     33  C   UNL     1       3.123  16.428  18.284  0.00  0.00    +0.000 C 
ATOM     34  O   UNL     1       2.581  17.595  17.650  0.00  0.00    +0.000 OA
ATOM     35  C   UNL     1       1.393  18.022  18.331  0.00  0.00    +0.000 C 
ATOM     36  C   UNL     1       0.313  16.930  18.281  0.00  0.00    +0.000 C 
ENDBRANCH  28  29
ENDBRANCH  23  28
TORSDOF 4
ENDMDL
MODEL 7
REMARK VINA RESULT:      -8.5      1.140      1.343
REMARK  Name = 
REMARK  5 active torsions:
REMARK  status: ('A' for Active; 'I' for Inactive)
REMARK    1  A    between atoms: C_1  and  O_2
REMARK    2  A    between atoms: O_2  and  C_3
REMARK    3  A    between atoms: C_25  and  O_26
REMARK    4  A    between atoms: C_25  and  C_27
REMARK    5  A    between atoms: C_27  and  C_28
REMARK                            x       y       z     vdW  Elec       q    Type
REMARK                         _______ _______ _______ _____ _____    ______ ____
ROOT
ATOM      1  C   UNL     1       2.772   5.783  19.555  0.00  0.00    +0.000 A 
ATOM      2  C   UNL     1       2.118   6.966  19.848  0.00  0.00    +0.000 A 
ATOM      3  C   UNL     1       2.250   8.060  19.009  0.00  0.00    +0.000 A 
ATOM      4  N   UNL     1       2.969   8.082  17.882  0.00  0.00    +0.000 NA
ATOM      5  C   UNL     1       3.653   6.926  17.610  0.00  0.00    +0.000 A 
ATOM      6  C   UNL     1       4.487   6.858  16.489  0.00  0.00    +0.000 A 
ATOM      7  C   UNL     1       5.217   5.709  16.145  0.00  0.00    +0.000 A 
ATOM      8  C   UNL     1       5.140   4.570  16.935  0.00  0.00    +0.000 A 
ATOM      9  C   UNL     1       4.327   4.592  18.061  0.00  0.00    +0.000 A 
ATOM     10  C   UNL     1       3.583   5.754  18.412  0.00  0.00    +0.000 A 
ATOM     11  C   UNL     1       1.426   9.163  19.597  0.00  0.00    +0.000 A 
ATOM     12  C   UNL     1       1.091  10.416  19.209  0.00  0.00    +0.000 A 
ATOM     13  C   UNL     1       0.159  11.203  20.044  0.00  0.00    +0.000 A 
ATOM     14  C   UNL     1      -0.240  10.720  21.236  0.00  0.00    +0.000 A 
ATOM     15  C   UNL     1       0.174   9.368  21.688  0.00  0.00    +0.000 A 
ATOM     16  O   UNL     1      -0.186   8.917  22.767  0.00  0.00    +0.000 OA
ATOM     17  N   UNL     1       0.927   8.685  20.791  0.00  0.00    +0.000 N 
ATOM     18  C   UNL     1       1.263   7.296  21.018  0.00  0.00    +0.000 C 
ATOM     19  C   UNL     1      -1.254  11.332  22.129  0.00  0.00    +0.000 C 
ATOM     20  O   UNL     1      -1.722  12.591  21.649  0.00  0.00    +0.000 OA
ATOM     21  C   UNL     1      -1.882  12.651  20.292  0.00  0.00    +0.000 C 
ATOM     22  O   UNL     1      -2.943  13.027  19.809  0.00  0.00    +0.000 OA
ATOM     23  C   UNL     1      -0.528  12.460  19.494  0.00  0.00    +0.000 C 
ENDROOT
BRANCH   1  25
ATOM     24  C   UNL     1       1.594   3.836  20.350  0.00  0.00    +0.000 C 
ATOM     25  O   UNL     1       2.766   4.645  20.326  0.00  0.00    +0.000 OA
ENDBRANCH   1  25
BRANCH  23  26
ATOM     26  O   UNL     1      -0.826  12.247  18.125  0.00  0.00    +0.000 OA
ATOM     27  H   UNL     1      -0.058  12.534  17.598  0.00  0.00    +0.000 HD
ENDBRANCH  23  26
BRANCH  23  28
ATOM     28  C   UNL     1       0.111  13.841  19.765  0.00  0.00    +0.000 C 
BRANCH  28  29
ATOM     29  C   UNL     1       0.730  15.009  18.975  0.00  0.00    +0.000 C 
ATOM     30  O   UNL     1       0.021  15.802  18.371  0.00  0.00    +0.000 OA
ATOM     31  N   UNL     1       2.158  15.061  18.973  0.00  0.00    +0.000 N 
ATOM     32  C   UNL     1       3.041  14.150  19.726  0.00  0.00    +0.000 C 
ATOM     33  C   UNL     1       4.367  14.827  20.127  0.00  0.00    +0.000 C 
ATOM     34  O   UNL     1       5.006  15.444  19.002  0.00  0.00    +0.000 OA
ATOM     35  C   UNL     1       4.152  16.449  18.438  0.00  0.00    +0.000 C 
ATOM     36  C   UNL     1       2.839  15.830  17.935  0.00  0.00    +0.000 C 
ENDBRANCH  28  29
ENDBRANCH  23  28
TORSDOF 4
ENDMDL
MODEL 8
REMARK VINA RESULT:      -8.4      2.476      5.212
REMARK  Name = 
REMARK  5 active torsions:
REMARK  status: ('A' for Active; 'I' for Inactive)
REMARK    1  A    between atoms: C_1  and  O_2
REMARK    2  A    between atoms: O_2  and  C_3
REMARK    3  A    between atoms: C_25  and  O_26
REMARK    4  A    between atoms: C_25  and  C_27
REMARK    5  A    between atoms: C_27  and  C_28
REMARK                            x       y       z     vdW  Elec       q    Type
REMARK                         _______ _______ _______ _____ _____    ______ ____
ROOT
ATOM      1  C   UNL     1       3.296   5.703  18.522  0.00  0.00    +0.000 A 
ATOM      2  C   UNL     1       2.696   6.923  18.778  0.00  0.00    +0.000 A 
ATOM      3  C   UNL     1       1.802   7.051  19.827  0.00  0.00    +0.000 A 
ATOM      4  N   UNL     1       1.456   6.070  20.667  0.00  0.00    +0.000 NA
ATOM      5  C   UNL     1       2.015   4.849  20.391  0.00  0.00    +0.000 A 
ATOM      6  C   UNL     1       1.675   3.736  21.167  0.00  0.00    +0.000 A 
ATOM      7  C   UNL     1       2.207   2.456  20.947  0.00  0.00    +0.000 A 
ATOM      8  C   UNL     1       3.110   2.243  19.914  0.00  0.00    +0.000 A 
ATOM      9  C   UNL     1       3.475   3.319  19.113  0.00  0.00    +0.000 A 
ATOM     10  C   UNL     1       2.940   4.619  19.336  0.00  0.00    +0.000 A 
ATOM     11  C   UNL     1       1.342   8.476  19.837  0.00  0.00    +0.000 A 
ATOM     12  C   UNL     1       0.554   9.220  20.650  0.00  0.00    +0.000 A 
ATOM     13  C   UNL     1       0.393  10.662  20.371  0.00  0.00    +0.000 A 
ATOM     14  C   UNL     1       0.920  11.189  19.249  0.00  0.00    +0.000 A 
ATOM     15  C   UNL     1       1.737  10.359  18.328  0.00  0.00    +0.000 A 
ATOM     16  O   UNL     1       2.225  10.829  17.308  0.00  0.00    +0.000 OA
ATOM     17  N   UNL     1       1.923   9.082  18.743  0.00  0.00    +0.000 N 
ATOM     18  C   UNL     1       2.833   8.205  18.039  0.00  0.00    +0.000 C 
ATOM     19  C   UNL     1       0.943  12.628  18.890  0.00  0.00    +0.000 C 
ATOM     20  O   UNL     1       0.236  13.440  19.825  0.00  0.00    +0.000 OA
ATOM     21  C   UNL     1       0.390  13.060  21.129  0.00  0.00    +0.000 C 
ATOM     22  O   UNL     1       0.741  13.874  21.975  0.00  0.00    +0.000 OA
ATOM     23  C   UNL     1      -0.180  11.613  21.430  0.00  0.00    +0.000 C 
ENDROOT
BRANCH   1  25
ATOM     24  C   UNL     1       5.510   5.873  17.580  0.00  0.00    +0.000 C 
ATOM     25  O   UNL     1       4.159   5.430  17.486  0.00  0.00    +0.000 OA
ENDBRANCH   1  25
BRANCH  23  26
ATOM     26  O   UNL     1       0.275  11.194  22.705  0.00  0.00    +0.000 OA
ATOM     27  H   UNL     1       1.151  11.591  22.860  0.00  0.00    +0.000 HD
ENDBRANCH  23  26
BRANCH  23  28
ATOM     28  C   UNL     1      -1.691  11.938  21.405  0.00  0.00    +0.000 C 
BRANCH  28  29
ATOM     29  C   UNL     1      -2.811  12.170  20.375  0.00  0.00    +0.000 C 
ATOM     30  O   UNL     1      -2.639  11.910  19.192  0.00  0.00    +0.000 OA
ATOM     31  N   UNL     1      -4.016  12.737  20.893  0.00  0.00    +0.000 N 
ATOM     32  C   UNL     1      -4.275  13.021  22.318  0.00  0.00    +0.000 C 
ATOM     33  C   UNL     1      -5.773  12.918  22.668  0.00  0.00    +0.000 C 
ATOM     34  O   UNL     1      -6.578  13.697  21.773  0.00  0.00    +0.000 OA
ATOM     35  C   UNL     1      -6.408  13.236  20.425  0.00  0.00    +0.000 C 
ATOM     36  C   UNL     1      -4.947  13.388  19.976  0.00  0.00    +0.000 C 
ENDBRANCH  28  29
ENDBRANCH  23  28
TORSDOF 4
ENDMDL
MODEL 9
REMARK VINA RESULT:      -8.3      1.282      1.456
REMARK  Name = 
REMARK  5 active torsions:
REMARK  status: ('A' for Active; 'I' for Inactive)
REMARK    1  A    between atoms: C_1  and  O_2
REMARK    2  A    between atoms: O_2  and  C_3
REMARK    3  A    between atoms: C_25  and  O_26
REMARK    4  A    between atoms: C_25  and  C_27
REMARK    5  A    between atoms: C_27  and  C_28
REMARK                            x       y       z     vdW  Elec       q    Type
REMARK                         _______ _______ _______ _____ _____    ______ ____
ROOT
ATOM      1  C   UNL     1       3.316   5.802  19.424  0.00  0.00    +0.000 A 
ATOM      2  C   UNL     1       2.530   6.930  19.584  0.00  0.00    +0.000 A 
ATOM      3  C   UNL     1       2.483   7.892  18.590  0.00  0.00    +0.000 A 
ATOM      4  N   UNL     1       3.142   7.829  17.428  0.00  0.00    +0.000 NA
ATOM      5  C   UNL     1       3.955   6.735  17.282  0.00  0.00    +0.000 A 
ATOM      6  C   UNL     1       4.739   6.599  16.132  0.00  0.00    +0.000 A 
ATOM      7  C   UNL     1       5.593   5.506  15.911  0.00  0.00    +0.000 A 
ATOM      8  C   UNL     1       5.698   4.498  16.860  0.00  0.00    +0.000 A 
ATOM      9  C   UNL     1       4.940   4.593  18.021  0.00  0.00    +0.000 A 
ATOM     10  C   UNL     1       4.071   5.697  18.247  0.00  0.00    +0.000 A 
ATOM     11  C   UNL     1       1.553   8.965  19.064  0.00  0.00    +0.000 A 
ATOM     12  C   UNL     1       1.044  10.096  18.521  0.00  0.00    +0.000 A 
ATOM     13  C   UNL     1       0.059  10.883  19.292  0.00  0.00    +0.000 A 
ATOM     14  C   UNL     1      -0.221  10.542  20.564  0.00  0.00    +0.000 A 
ATOM     15  C   UNL     1       0.382   9.332  21.179  0.00  0.00    +0.000 A 
ATOM     16  O   UNL     1       0.132   9.010  22.333  0.00  0.00    +0.000 OA
ATOM     17  N   UNL     1       1.175   8.616  20.344  0.00  0.00    +0.000 N 
ATOM     18  C   UNL     1       1.694   7.328  20.747  0.00  0.00    +0.000 C 
ATOM     19  C   UNL     1      -1.263  11.156  21.423  0.00  0.00    +0.000 C 
ATOM     20  O   UNL     1      -1.909  12.263  20.797  0.00  0.00    +0.000 OA
ATOM     21  C   UNL     1      -2.136  12.098  19.459  0.00  0.00    +0.000 C 
ATOM     22  O   UNL     1      -3.257  12.269  18.995  0.00  0.00    +0.000 OA
ATOM     23  C   UNL     1      -0.806  11.952  18.612  0.00  0.00    +0.000 C 
ENDROOT
BRANCH   1  25
ATOM     24  C   UNL     1       2.451   3.842  20.530  0.00  0.00    +0.000 C 
ATOM     25  O   UNL     1       3.490   4.801  20.350  0.00  0.00    +0.000 OA
ENDBRANCH   1  25
BRANCH  23  26
ATOM     26  O   UNL     1      -1.137  11.501  17.309  0.00  0.00    +0.000 OA
ATOM     27  H   UNL     1      -1.308  12.281  16.752  0.00  0.00    +0.000 HD
ENDBRANCH  23  26
BRANCH  23  28
ATOM     28  C   UNL     1      -0.337  13.424  18.640  0.00  0.00    +0.000 C 
BRANCH  28  29
ATOM     29  C   UNL     1      -0.217  14.585  19.645  0.00  0.00    +0.000 C 
ATOM     30  O   UNL     1      -1.179  15.297  19.897  0.00  0.00    +0.000 OA
ATOM     31  N   UNL     1       1.081  14.779  20.207  0.00  0.00    +0.000 N 
ATOM     32  C   UNL     1       2.251  13.913  19.961  0.00  0.00    +0.000 C 
ATOM     33  C   UNL     1       3.218  13.889  21.161  0.00  0.00    +0.000 C 
ATOM     34  O   UNL     1       3.566  15.214  21.586  0.00  0.00    +0.000 OA
ATOM     35  C   UNL     1       2.389  15.931  21.984  0.00  0.00    +0.000 C 
ATOM     36  C   UNL     1       1.409  16.069  20.808  0.00  0.00    +0.000 C 
ENDBRANCH  28  29
ENDBRANCH  23  28
TORSDOF 4
ENDMDL
