MODEL 1
REMARK VINA RESULT:      -7.1      0.000      0.000
REMARK  Name = 
REMARK  2 active torsions:
REMARK  status: ('A' for Active; 'I' for Inactive)
REMARK    1  A    between atoms: C_2  and  C_3
REMARK    2  A    between atoms: C_13  and  O_14
REMARK                            x       y       z     vdW  Elec       q    Type
REMARK                         _______ _______ _______ _____ _____    ______ ____
ROOT
ATOM      1  C   UNL     1       2.695   6.750  18.346  0.00  0.00    +0.000 A 
ATOM      2  C   UNL     1       2.306   7.765  17.494  0.00  0.00    +0.000 A 
ATOM      3  N   UNL     1       1.762   8.934  17.905  0.00  0.00    +0.000 NA
ATOM      4  C   UNL     1       1.489   9.080  19.208  0.00  0.00    +0.000 A 
ATOM      5  C   UNL     1       0.989  10.309  19.616  0.00  0.00    +0.000 A 
ATOM      6  C   UNL     1       0.625  10.539  20.938  0.00  0.00    +0.000 A 
ATOM      7 CL   UNL     1       0.023  12.081  21.406  0.00  0.00    +0.000 Cl
ATOM      8  C   UNL     1       0.747   9.529  21.881  0.00  0.00    +0.000 A 
ATOM      9  C   UNL     1       1.286   8.298  21.499  0.00  0.00    +0.000 A 
ATOM     10  C   UNL     1       1.700   8.060  20.162  0.00  0.00    +0.000 A 
ATOM     11  C   UNL     1       2.338   6.879  19.692  0.00  0.00    +0.000 A 
ENDROOT
BRANCH   1  13
ATOM     12  O   UNL     1       2.888   4.485  17.835  0.00  0.00    +0.000 OA
ATOM     13  C   UNL     1       3.439   5.588  17.812  0.00  0.00    +0.000 C 
ATOM     14  N   UNL     1       4.731   5.764  17.309  0.00  0.00    +0.000 N 
ATOM     15  C   UNL     1       5.424   4.608  16.721  0.00  0.00    +0.000 C 
ATOM     16  C   UNL     1       6.906   4.593  17.115  0.00  0.00    +0.000 C 
ATOM     17  O   UNL     1       7.546   5.831  16.771  0.00  0.00    +0.000 OA
ATOM     18  C   UNL     1       6.931   6.919  17.468  0.00  0.00    +0.000 C 
ATOM     19  C   UNL     1       5.448   7.036  17.115  0.00  0.00    +0.000 C 
ENDBRANCH   1  13
BRANCH  11  20
ATOM     20  O   UNL     1       2.678   5.864  20.548  0.00  0.00    +0.000 OA
ATOM     21  H   UNL     1       2.631   5.001  20.115  0.00  0.00    +0.000 HD
ENDBRANCH  11  20
TORSDOF 2
ENDMDL
MODEL 2
REMARK VINA RESULT:      -7.0      2.260      3.302
REMARK  Name = 
REMARK  2 active torsions:
REMARK  status: ('A' for Active; 'I' for Inactive)
REMARK    1  A    between atoms: C_2  and  C_3
REMARK    2  A    between atoms: C_13  and  O_14
REMARK                            x       y       z     vdW  Elec       q    Type
REMARK                         _______ _______ _______ _____ _____    ______ ____
ROOT
ATOM      1  C   UNL     1       2.913   6.719  19.016  0.00  0.00    +0.000 A 
ATOM      2  C   UNL     1       2.999   7.316  17.774  0.00  0.00    +0.000 A 
ATOM      3  N   UNL     1       2.482   8.532  17.478  0.00  0.00    +0.000 NA
ATOM      4  C   UNL     1       1.755   9.153  18.416  0.00  0.00    +0.000 A 
ATOM      5  C   UNL     1       1.286  10.423  18.113  0.00  0.00    +0.000 A 
ATOM      6  C   UNL     1       0.477  11.127  18.999  0.00  0.00    +0.000 A 
ATOM      7 CL   UNL     1      -0.071  12.705  18.593  0.00  0.00    +0.000 Cl
ATOM      8  C   UNL     1       0.112  10.558  20.211  0.00  0.00    +0.000 A 
ATOM      9  C   UNL     1       0.606   9.296  20.552  0.00  0.00    +0.000 A 
ATOM     10  C   UNL     1       1.465   8.582  19.675  0.00  0.00    +0.000 A 
ATOM     11  C   UNL     1       2.090   7.337  19.962  0.00  0.00    +0.000 A 
ENDROOT
BRANCH   1  13
ATOM     12  O   UNL     1       4.881   5.551  19.457  0.00  0.00    +0.000 OA
ATOM     13  C   UNL     1       3.662   5.472  19.285  0.00  0.00    +0.000 C 
ATOM     14  N   UNL     1       2.983   4.251  19.329  0.00  0.00    +0.000 N 
ATOM     15  C   UNL     1       3.737   3.035  19.665  0.00  0.00    +0.000 C 
ATOM     16  C   UNL     1       3.287   1.849  18.802  0.00  0.00    +0.000 C 
ATOM     17  O   UNL     1       1.870   1.644  18.901  0.00  0.00    +0.000 OA
ATOM     18  C   UNL     1       1.166   2.800  18.437  0.00  0.00    +0.000 C 
ATOM     19  C   UNL     1       1.527   4.037  19.260  0.00  0.00    +0.000 C 
ENDBRANCH   1  13
BRANCH  11  20
ATOM     20  O   UNL     1       1.958   6.740  21.189  0.00  0.00    +0.000 OA
ATOM     21  H   UNL     1       2.778   6.308  21.465  0.00  0.00    +0.000 HD
ENDBRANCH  11  20
TORSDOF 2
ENDMDL
MODEL 3
REMARK VINA RESULT:      -6.8      3.861      5.294
REMARK  Name = 
REMARK  2 active torsions:
REMARK  status: ('A' for Active; 'I' for Inactive)
REMARK    1  A    between atoms: C_2  and  C_3
REMARK    2  A    between atoms: C_13  and  O_14
REMARK                            x       y       z     vdW  Elec       q    Type
REMARK                         _______ _______ _______ _____ _____    ______ ____
ROOT
ATOM      1  C   UNL     1       6.041   5.236  17.110  0.00  0.00    +0.000 A 
ATOM      2  C   UNL     1       6.424   4.291  18.041  0.00  0.00    +0.000 A 
ATOM      3  N   UNL     1       5.588   3.741  18.953  0.00  0.00    +0.000 NA
ATOM      4  C   UNL     1       4.337   4.212  19.026  0.00  0.00    +0.000 A 
ATOM      5  C   UNL     1       3.480   3.592  19.925  0.00  0.00    +0.000 A 
ATOM      6  C   UNL     1       2.178   4.044  20.113  0.00  0.00    +0.000 A 
ATOM      7 CL   UNL     1       1.142   3.240  21.226  0.00  0.00    +0.000 Cl
ATOM      8  C   UNL     1       1.712   5.142  19.404  0.00  0.00    +0.000 A 
ATOM      9  C   UNL     1       2.545   5.754  18.465  0.00  0.00    +0.000 A 
ATOM     10  C   UNL     1       3.864   5.281  18.233  0.00  0.00    +0.000 A 
ATOM     11  C   UNL     1       4.758   5.775  17.243  0.00  0.00    +0.000 A 
ENDROOT
BRANCH   1  13
ATOM     12  O   UNL     1       7.704   6.623  16.251  0.00  0.00    +0.000 OA
ATOM     13  C   UNL     1       6.985   5.643  16.046  0.00  0.00    +0.000 C 
ATOM     14  N   UNL     1       7.035   4.922  14.850  0.00  0.00    +0.000 N 
ATOM     15  C   UNL     1       8.028   5.303  13.835  0.00  0.00    +0.000 C 
ATOM     16  C   UNL     1       7.434   5.228  12.424  0.00  0.00    +0.000 C 
ATOM     17  O   UNL     1       6.876   3.930  12.164  0.00  0.00    +0.000 OA
ATOM     18  C   UNL     1       5.819   3.650  13.087  0.00  0.00    +0.000 C 
ATOM     19  C   UNL     1       6.323   3.672  14.530  0.00  0.00    +0.000 C 
ENDBRANCH   1  13
BRANCH  11  20
ATOM     20  O   UNL     1       4.371   6.744  16.354  0.00  0.00    +0.000 OA
ATOM     21  H   UNL     1       4.996   6.824  15.621  0.00  0.00    +0.000 HD
ENDBRANCH  11  20
TORSDOF 2
ENDMDL
MODEL 4
REMARK VINA RESULT:      -6.7      4.019      7.224
REMARK  Name = 
REMARK  2 active torsions:
REMARK  status: ('A' for Active; 'I' for Inactive)
REMARK    1  A    between atoms: C_2  and  C_3
REMARK    2  A    between atoms: C_13  and  O_14
REMARK                            x       y       z     vdW  Elec       q    Type
REMARK                         _______ _______ _______ _____ _____    ______ ____
ROOT
ATOM      1  C   UNL     1       1.038   9.418  19.443  0.00  0.00    +0.000 A 
ATOM      2  C   UNL     1       0.886   8.493  20.457  0.00  0.00    +0.000 A 
ATOM      3  N   UNL     1       1.609   7.353  20.560  0.00  0.00    +0.000 NA
ATOM      4  C   UNL     1       2.456   7.051  19.567  0.00  0.00    +0.000 A 
ATOM      5  C   UNL     1       3.232   5.911  19.723  0.00  0.00    +0.000 A 
ATOM      6  C   UNL     1       4.100   5.485  18.724  0.00  0.00    +0.000 A 
ATOM      7 CL   UNL     1       5.056   4.075  18.961  0.00  0.00    +0.000 Cl
ATOM      8  C   UNL     1       4.198   6.195  17.536  0.00  0.00    +0.000 A 
ATOM      9  C   UNL     1       3.455   7.368  17.376  0.00  0.00    +0.000 A 
ATOM     10  C   UNL     1       2.594   7.838  18.402  0.00  0.00    +0.000 A 
ATOM     11  C   UNL     1       1.865   9.059  18.375  0.00  0.00    +0.000 A 
ENDROOT
BRANCH   1  13
ATOM     12  O   UNL     1       0.777  11.584  20.262  0.00  0.00    +0.000 OA
ATOM     13  C   UNL     1       0.324  10.712  19.517  0.00  0.00    +0.000 C 
ATOM     14  N   UNL     1      -0.832  10.910  18.758  0.00  0.00    +0.000 N 
ATOM     15  C   UNL     1      -1.486  12.226  18.796  0.00  0.00    +0.000 C 
ATOM     16  C   UNL     1      -3.012  12.086  18.828  0.00  0.00    +0.000 C 
ATOM     17  O   UNL     1      -3.483  11.287  17.731  0.00  0.00    +0.000 OA
ATOM     18  C   UNL     1      -2.932   9.968  17.805  0.00  0.00    +0.000 C 
ATOM     19  C   UNL     1      -1.404  10.002  17.749  0.00  0.00    +0.000 C 
ENDBRANCH   1  13
BRANCH  11  20
ATOM     20  O   UNL     1       1.999   9.945  17.338  0.00  0.00    +0.000 OA
ATOM     21  H   UNL     1       2.810  10.466  17.417  0.00  0.00    +0.000 HD
ENDBRANCH  11  20
TORSDOF 2
ENDMDL
MODEL 5
REMARK VINA RESULT:      -6.6      3.929      7.018
REMARK  Name = 
REMARK  2 active torsions:
REMARK  status: ('A' for Active; 'I' for Inactive)
REMARK    1  A    between atoms: C_2  and  C_3
REMARK    2  A    between atoms: C_13  and  O_14
REMARK                            x       y       z     vdW  Elec       q    Type
REMARK                         _______ _______ _______ _____ _____    ______ ____
ROOT
ATOM      1  C   UNL     1       1.173   9.668  19.013  0.00  0.00    +0.000 A 
ATOM      2  C   UNL     1       1.944   9.614  17.868  0.00  0.00    +0.000 A 
ATOM      3  N   UNL     1       2.644   8.524  17.476  0.00  0.00    +0.000 NA
ATOM      4  C   UNL     1       2.676   7.465  18.295  0.00  0.00    +0.000 A 
ATOM      5  C   UNL     1       3.348   6.337  17.846  0.00  0.00    +0.000 A 
ATOM      6  C   UNL     1       3.482   5.208  18.646  0.00  0.00    +0.000 A 
ATOM      7 CL   UNL     1       4.311   3.825  18.047  0.00  0.00    +0.000 Cl
ATOM      8  C   UNL     1       2.949   5.193  19.927  0.00  0.00    +0.000 A 
ATOM      9  C   UNL     1       2.233   6.303  20.383  0.00  0.00    +0.000 A 
ATOM     10  C   UNL     1       2.053   7.449  19.564  0.00  0.00    +0.000 A 
ATOM     11  C   UNL     1       1.273   8.590  19.897  0.00  0.00    +0.000 A 
ENDROOT
BRANCH   1  13
ATOM     12  O   UNL     1       0.697  11.691  20.066  0.00  0.00    +0.000 OA
ATOM     13  C   UNL     1       0.308  10.842  19.260  0.00  0.00    +0.000 C 
ATOM     14  N   UNL     1      -0.913  10.958  18.590  0.00  0.00    +0.000 N 
ATOM     15  C   UNL     1      -1.723  12.166  18.800  0.00  0.00    +0.000 C 
ATOM     16  C   UNL     1      -3.214  11.822  18.901  0.00  0.00    +0.000 C 
ATOM     17  O   UNL     1      -3.653  11.078  17.754  0.00  0.00    +0.000 OA
ATOM     18  C   UNL     1      -2.936   9.843  17.660  0.00  0.00    +0.000 C 
ATOM     19  C   UNL     1      -1.433  10.084  17.524  0.00  0.00    +0.000 C 
ENDBRANCH   1  13
BRANCH  11  20
ATOM     20  O   UNL     1       0.547   8.641  21.059  0.00  0.00    +0.000 OA
ATOM     21  H   UNL     1       0.392   7.758  21.422  0.00  0.00    +0.000 HD
ENDBRANCH  11  20
TORSDOF 2
ENDMDL
MODEL 6
REMARK VINA RESULT:      -6.5      1.372      1.911
REMARK  Name = 
REMARK  2 active torsions:
REMARK  status: ('A' for Active; 'I' for Inactive)
REMARK    1  A    between atoms: C_2  and  C_3
REMARK    2  A    between atoms: C_13  and  O_14
REMARK                            x       y       z     vdW  Elec       q    Type
REMARK                         _______ _______ _______ _____ _____    ______ ____
ROOT
ATOM      1  C   UNL     1       2.834   6.366  18.603  0.00  0.00    +0.000 A 
ATOM      2  C   UNL     1       2.672   5.960  19.913  0.00  0.00    +0.000 A 
ATOM      3  N   UNL     1       1.993   6.664  20.848  0.00  0.00    +0.000 NA
ATOM      4  C   UNL     1       1.534   7.877  20.514  0.00  0.00    +0.000 A 
ATOM      5  C   UNL     1       0.788   8.556  21.468  0.00  0.00    +0.000 A 
ATOM      6  C   UNL     1       0.314   9.843  21.235  0.00  0.00    +0.000 A 
ATOM      7 CL   UNL     1      -0.619  10.644  22.437  0.00  0.00    +0.000 Cl
ATOM      8  C   UNL     1       0.592  10.481  20.035  0.00  0.00    +0.000 A 
ATOM      9  C   UNL     1       1.306   9.800  19.046  0.00  0.00    +0.000 A 
ATOM     10  C   UNL     1       1.763   8.472  19.253  0.00  0.00    +0.000 A 
ATOM     11  C   UNL     1       2.419   7.662  18.285  0.00  0.00    +0.000 A 
ENDROOT
BRANCH   1  13
ATOM     12  O   UNL     1       2.764   4.489  17.223  0.00  0.00    +0.000 OA
ATOM     13  C   UNL     1       3.439   5.443  17.618  0.00  0.00    +0.000 C 
ATOM     14  N   UNL     1       4.744   5.666  17.170  0.00  0.00    +0.000 N 
ATOM     15  C   UNL     1       5.300   4.776  16.141  0.00  0.00    +0.000 C 
ATOM     16  C   UNL     1       6.769   4.445  16.430  0.00  0.00    +0.000 C 
ATOM     17  O   UNL     1       7.550   5.641  16.580  0.00  0.00    +0.000 OA
ATOM     18  C   UNL     1       7.063   6.417  17.679  0.00  0.00    +0.000 C 
ATOM     19  C   UNL     1       5.605   6.824  17.468  0.00  0.00    +0.000 C 
ENDBRANCH   1  13
BRANCH  11  20
ATOM     20  O   UNL     1       2.607   8.101  16.999  0.00  0.00    +0.000 OA
ATOM     21  H   UNL     1       2.434   7.401  16.355  0.00  0.00    +0.000 HD
ENDBRANCH  11  20
TORSDOF 2
ENDMDL
MODEL 7
REMARK VINA RESULT:      -6.4      2.493      3.738
REMARK  Name = 
REMARK  2 active torsions:
REMARK  status: ('A' for Active; 'I' for Inactive)
REMARK    1  A    between atoms: C_2  and  C_3
REMARK    2  A    between atoms: C_13  and  O_14
REMARK                            x       y       z     vdW  Elec       q    Type
REMARK                         _______ _______ _______ _____ _____    ______ ____
ROOT
ATOM      1  C   UNL     1       2.549   6.767  19.621  0.00  0.00    +0.000 A 
ATOM      2  C   UNL     1       1.930   6.884  20.850  0.00  0.00    +0.000 A 
ATOM      3  N   UNL     1       1.048   7.861  21.167  0.00  0.00    +0.000 NA
ATOM      4  C   UNL     1       0.836   8.833  20.271  0.00  0.00    +0.000 A 
ATOM      5  C   UNL     1      -0.117   9.790  20.590  0.00  0.00    +0.000 A 
ATOM      6  C   UNL     1      -0.370  10.869  19.750  0.00  0.00    +0.000 A 
ATOM      7 CL   UNL     1      -1.570  12.026  20.175  0.00  0.00    +0.000 Cl
ATOM      8  C   UNL     1       0.343  11.014  18.568  0.00  0.00    +0.000 A 
ATOM      9  C   UNL     1       1.278  10.040  18.209  0.00  0.00    +0.000 A 
ATOM     10  C   UNL     1       1.519   8.912  19.037  0.00  0.00    +0.000 A 
ATOM     11  C   UNL     1       2.381   7.825  18.723  0.00  0.00    +0.000 A 
ENDROOT
BRANCH   1  13
ATOM     12  O   UNL     1       4.551   5.724  19.042  0.00  0.00    +0.000 OA
ATOM     13  C   UNL     1       3.359   5.567  19.318  0.00  0.00    +0.000 C 
ATOM     14  N   UNL     1       2.763   4.303  19.345  0.00  0.00    +0.000 N 
ATOM     15  C   UNL     1       3.603   3.120  19.108  0.00  0.00    +0.000 C 
ATOM     16  C   UNL     1       2.874   2.089  18.238  0.00  0.00    +0.000 C 
ATOM     17  O   UNL     1       1.603   1.737  18.807  0.00  0.00    +0.000 OA
ATOM     18  C   UNL     1       0.762   2.891  18.896  0.00  0.00    +0.000 C 
ATOM     19  C   UNL     1       1.393   3.971  19.774  0.00  0.00    +0.000 C 
ENDBRANCH   1  13
BRANCH  11  20
ATOM     20  O   UNL     1       3.020   7.749  17.512  0.00  0.00    +0.000 OA
ATOM     21  H   UNL     1       2.704   8.428  16.900  0.00  0.00    +0.000 HD
ENDBRANCH  11  20
TORSDOF 2
ENDMDL
MODEL 8
REMARK VINA RESULT:      -6.3      4.401      5.450
REMARK  Name = 
REMARK  2 active torsions:
REMARK  status: ('A' for Active; 'I' for Inactive)
REMARK    1  A    between atoms: C_2  and  C_3
REMARK    2  A    between atoms: C_13  and  O_14
REMARK                            x       y       z     vdW  Elec       q    Type
REMARK                         _______ _______ _______ _____ _____    ______ ____
ROOT
ATOM      1  C   UNL     1       5.414   5.025  16.884  0.00  0.00    +0.000 A 
ATOM      2  C   UNL     1       4.091   5.328  16.631  0.00  0.00    +0.000 A 
ATOM      3  N   UNL     1       3.067   5.005  17.455  0.00  0.00    +0.000 NA
ATOM      4  C   UNL     1       3.337   4.258  18.534  0.00  0.00    +0.000 A 
ATOM      5  C   UNL     1       2.284   3.991  19.397  0.00  0.00    +0.000 A 
ATOM      6  C   UNL     1       2.452   3.180  20.515  0.00  0.00    +0.000 A 
ATOM      7 CL   UNL     1       1.125   2.885  21.569  0.00  0.00    +0.000 Cl
ATOM      8  C   UNL     1       3.688   2.610  20.783  0.00  0.00    +0.000 A 
ATOM      9  C   UNL     1       4.771   2.899  19.948  0.00  0.00    +0.000 A 
ATOM     10  C   UNL     1       4.625   3.756  18.826  0.00  0.00    +0.000 A 
ATOM     11  C   UNL     1       5.677   4.183  17.969  0.00  0.00    +0.000 A 
ENDROOT
BRANCH   1  13
ATOM     12  O   UNL     1       7.046   6.606  16.369  0.00  0.00    +0.000 OA
ATOM     13  C   UNL     1       6.473   5.575  16.010  0.00  0.00    +0.000 C 
ATOM     14  N   UNL     1       6.790   4.928  14.812  0.00  0.00    +0.000 N 
ATOM     15  C   UNL     1       7.891   5.454  13.994  0.00  0.00    +0.000 C 
ATOM     16  C   UNL     1       7.546   5.400  12.501  0.00  0.00    +0.000 C 
ATOM     17  O   UNL     1       7.173   4.072  12.103  0.00  0.00    +0.000 OA
ATOM     18  C   UNL     1       6.013   3.645  12.824  0.00  0.00    +0.000 C 
ATOM     19  C   UNL     1       6.269   3.636  14.331  0.00  0.00    +0.000 C 
ENDBRANCH   1  13
BRANCH  11  20
ATOM     20  O   UNL     1       6.980   3.836  18.215  0.00  0.00    +0.000 OA
ATOM     21  H   UNL     1       7.580   4.223  17.563  0.00  0.00    +0.000 HD
ENDBRANCH  11  20
TORSDOF 2
ENDMDL
MODEL 9
REMARK VINA RESULT:      -6.3      2.261      3.491
REMARK  Name = 
REMARK  2 active torsions:
REMARK  status: ('A' for Active; 'I' for Inactive)
REMARK    1  A    between atoms: C_2  and  C_3
REMARK    2  A    between atoms: C_13  and  O_14
REMARK                            x       y       z     vdW  Elec       q    Type
REMARK                         _______ _______ _______ _____ _____    ______ ____
ROOT
ATOM      1  C   UNL     1       2.295   7.585  19.082  0.00  0.00    +0.000 A 
ATOM      2  C   UNL     1       2.047   7.351  20.420  0.00  0.00    +0.000 A 
ATOM      3  N   UNL     1       1.224   8.106  21.184  0.00  0.00    +0.000 NA
ATOM      4  C   UNL     1       0.692   9.208  20.639  0.00  0.00    +0.000 A 
ATOM      5  C   UNL     1      -0.197   9.934  21.419  0.00  0.00    +0.000 A 
ATOM      6  C   UNL     1      -0.759  11.121  20.963  0.00  0.00    +0.000 A 
ATOM      7 CL   UNL     1      -1.868  11.983  21.955  0.00  0.00    +0.000 Cl
ATOM      8  C   UNL     1      -0.427  11.612  19.708  0.00  0.00    +0.000 A 
ATOM      9  C   UNL     1       0.435  10.875  18.891  0.00  0.00    +0.000 A 
ATOM     10  C   UNL     1       0.986   9.642  19.327  0.00  0.00    +0.000 A 
ATOM     11  C   UNL     1       1.799   8.776  18.544  0.00  0.00    +0.000 A 
ENDROOT
BRANCH   1  13
ATOM     12  O   UNL     1       3.941   7.023  17.532  0.00  0.00    +0.000 OA
ATOM     13  C   UNL     1       3.070   6.600  18.295  0.00  0.00    +0.000 C 
ATOM     14  N   UNL     1       2.797   5.237  18.429  0.00  0.00    +0.000 N 
ATOM     15  C   UNL     1       3.626   4.274  17.689  0.00  0.00    +0.000 C 
ATOM     16  C   UNL     1       2.774   3.133  17.121  0.00  0.00    +0.000 C 
ATOM     17  O   UNL     1       2.007   2.494  18.154  0.00  0.00    +0.000 OA
ATOM     18  C   UNL     1       1.113   3.432  18.760  0.00  0.00    +0.000 C 
ATOM     19  C   UNL     1       1.875   4.600  19.386  0.00  0.00    +0.000 C 
ENDBRANCH   1  13
BRANCH  11  20
ATOM     20  O   UNL     1       2.067   9.049  17.227  0.00  0.00    +0.000 OA
ATOM     21  H   UNL     1       2.936   9.459  17.118  0.00  0.00    +0.000 HD
ENDBRANCH  11  20
TORSDOF 2
ENDMDL
