MODEL 1
REMARK VINA RESULT:      -7.3      0.000      0.000
REMARK  Name = 
REMARK  6 active torsions:
REMARK  status: ('A' for Active; 'I' for Inactive)
REMARK    1  A    between atoms: C_1  and  C_2
REMARK    2  A    between atoms: N_6  and  C_7
REMARK    3  A    between atoms: N_6  and  C_15
REMARK    4  A    between atoms: C_7  and  C_8
REMARK    5  A    between atoms: C_8  and  C_9
REMARK    6  A    between atoms: C_15  and  C_16
REMARK                            x       y       z     vdW  Elec       q    Type
REMARK                         _______ _______ _______ _____ _____    ______ ____
ROOT
ATOM      1  C   UNL     1       7.792   4.775  18.232  0.00  0.00    +0.000 C 
ATOM      2  C   UNL     1       6.843   4.957  17.085  0.00  0.00    +0.000 C 
ATOM      3  N   UNL     1       7.285   5.363  15.939  0.00  0.00    +0.000 NA
ATOM      4  C   UNL     1       6.137   5.598  15.060  0.00  0.00    +0.000 C 
ATOM      5  C   UNL     1       5.013   4.821  15.694  0.00  0.00    +0.000 C 
ATOM      6  N   UNL     1       5.385   4.843  17.178  0.00  0.00    +0.000 NA
ENDROOT
BRANCH   6   7
ATOM      7  C   UNL     1       4.936   6.144  17.964  0.00  0.00    +0.000 C 
BRANCH   7   8
ATOM      8  C   UNL     1       3.767   6.886  17.303  0.00  0.00    +0.000 C 
BRANCH   8   9
ATOM      9  C   UNL     1       2.760   7.583  18.192  0.00  0.00    +0.000 A 
ATOM     10  C   UNL     1       2.448   7.178  19.500  0.00  0.00    +0.000 A 
ATOM     11  C   UNL     1       1.603   7.963  20.301  0.00  0.00    +0.000 A 
ATOM     12  C   UNL     1       1.073   9.157  19.817  0.00  0.00    +0.000 A 
ATOM     13  C   UNL     1       1.379   9.574  18.527  0.00  0.00    +0.000 A 
ATOM     14  C   UNL     1       2.216   8.794  17.724  0.00  0.00    +0.000 A 
ENDBRANCH   8   9
ENDBRANCH   7   8
ENDBRANCH   6   7
BRANCH   6  15
ATOM     15  C   UNL     1       4.910   3.590  17.930  0.00  0.00    +0.000 C 
BRANCH  15  16
ATOM     16  C   UNL     1       3.540   3.613  18.584  0.00  0.00    +0.000 A 
ATOM     17  C   UNL     1       3.401   3.722  19.979  0.00  0.00    +0.000 A 
ATOM     18  C   UNL     1       2.139   3.746  20.581  0.00  0.00    +0.000 A 
ATOM     19  C   UNL     1       0.987   3.682  19.804  0.00  0.00    +0.000 A 
ATOM     20  C   UNL     1       1.100   3.606  18.419  0.00  0.00    +0.000 A 
ATOM     21  C   UNL     1       2.361   3.575  17.813  0.00  0.00    +0.000 A 
ENDBRANCH  15  16
ENDBRANCH   6  15
TORSDOF 5
ENDMDL
MODEL 2
REMARK VINA RESULT:      -7.2      0.553      1.551
REMARK  Name = 
REMARK  6 active torsions:
REMARK  status: ('A' for Active; 'I' for Inactive)
REMARK    1  A    between atoms: C_1  and  C_2
REMARK    2  A    between atoms: N_6  and  C_7
REMARK    3  A    between atoms: N_6  and  C_15
REMARK    4  A    between atoms: C_7  and  C_8
REMARK    5  A    between atoms: C_8  and  C_9
REMARK    6  A    between atoms: C_15  and  C_16
REMARK                            x       y       z     vdW  Elec       q    Type
REMARK                         _______ _______ _______ _____ _____    ______ ____
ROOT
ATOM      1  C   UNL     1       7.700   5.281  18.773  0.00  0.00    +0.000 C 
ATOM      2  C   UNL     1       6.757   5.164  17.612  0.00  0.00    +0.000 C 
ATOM      3  N   UNL     1       7.176   5.405  16.413  0.00  0.00    +0.000 NA
ATOM      4  C   UNL     1       6.024   5.366  15.507  0.00  0.00    +0.000 C 
ATOM      5  C   UNL     1       4.972   4.602  16.270  0.00  0.00    +0.000 C 
ATOM      6  N   UNL     1       5.316   4.921  17.726  0.00  0.00    +0.000 NA
ENDROOT
BRANCH   6   7
ATOM      7  C   UNL     1       4.727   6.287  18.272  0.00  0.00    +0.000 C 
BRANCH   7   8
ATOM      8  C   UNL     1       3.338   6.621  17.714  0.00  0.00    +0.000 C 
BRANCH   8   9
ATOM      9  C   UNL     1       2.522   7.694  18.404  0.00  0.00    +0.000 A 
ATOM     10  C   UNL     1       1.960   8.802  17.749  0.00  0.00    +0.000 A 
ATOM     11  C   UNL     1       1.105   9.674  18.442  0.00  0.00    +0.000 A 
ATOM     12  C   UNL     1       0.793   9.448  19.781  0.00  0.00    +0.000 A 
ATOM     13  C   UNL     1       1.335   8.350  20.439  0.00  0.00    +0.000 A 
ATOM     14  C   UNL     1       2.190   7.482  19.755  0.00  0.00    +0.000 A 
ENDBRANCH   8   9
ENDBRANCH   7   8
ENDBRANCH   6   7
BRANCH   6  15
ATOM     15  C   UNL     1       4.956   3.777  18.687  0.00  0.00    +0.000 C 
BRANCH  15  16
ATOM     16  C   UNL     1       3.511   3.627  19.126  0.00  0.00    +0.000 A 
ATOM     17  C   UNL     1       2.555   3.024  18.289  0.00  0.00    +0.000 A 
ATOM     18  C   UNL     1       1.223   2.885  18.695  0.00  0.00    +0.000 A 
ATOM     19  C   UNL     1       0.821   3.324  19.952  0.00  0.00    +0.000 A 
ATOM     20  C   UNL     1       1.757   3.894  20.809  0.00  0.00    +0.000 A 
ATOM     21  C   UNL     1       3.088   4.042  20.405  0.00  0.00    +0.000 A 
ENDBRANCH  15  16
ENDBRANCH   6  15
TORSDOF 5
ENDMDL
MODEL 3
REMARK VINA RESULT:      -7.2      0.826      1.249
REMARK  Name = 
REMARK  6 active torsions:
REMARK  status: ('A' for Active; 'I' for Inactive)
REMARK    1  A    between atoms: C_1  and  C_2
REMARK    2  A    between atoms: N_6  and  C_7
REMARK    3  A    between atoms: N_6  and  C_15
REMARK    4  A    between atoms: C_7  and  C_8
REMARK    5  A    between atoms: C_8  and  C_9
REMARK    6  A    between atoms: C_15  and  C_16
REMARK                            x       y       z     vdW  Elec       q    Type
REMARK                         _______ _______ _______ _____ _____    ______ ____
ROOT
ATOM      1  C   UNL     1       7.800   5.513  19.034  0.00  0.00    +0.000 C 
ATOM      2  C   UNL     1       6.946   5.022  17.903  0.00  0.00    +0.000 C 
ATOM      3  N   UNL     1       7.466   4.836  16.734  0.00  0.00    +0.000 NA
ATOM      4  C   UNL     1       6.388   4.509  15.797  0.00  0.00    +0.000 C 
ATOM      5  C   UNL     1       5.248   4.064  16.677  0.00  0.00    +0.000 C 
ATOM      6  N   UNL     1       5.491   4.853  17.965  0.00  0.00    +0.000 NA
ENDROOT
BRANCH   6   7
ATOM      7  C   UNL     1       4.921   6.332  17.965  0.00  0.00    +0.000 C 
BRANCH   7   8
ATOM      8  C   UNL     1       3.439   6.416  17.582  0.00  0.00    +0.000 C 
BRANCH   8   9
ATOM      9  C   UNL     1       2.545   7.360  18.359  0.00  0.00    +0.000 A 
ATOM     10  C   UNL     1       2.258   7.229  19.727  0.00  0.00    +0.000 A 
ATOM     11  C   UNL     1       1.531   8.226  20.396  0.00  0.00    +0.000 A 
ATOM     12  C   UNL     1       1.095   9.363  19.718  0.00  0.00    +0.000 A 
ATOM     13  C   UNL     1       1.379   9.510  18.365  0.00  0.00    +0.000 A 
ATOM     14  C   UNL     1       2.099   8.518  17.694  0.00  0.00    +0.000 A 
ENDBRANCH   8   9
ENDBRANCH   7   8
ENDBRANCH   6   7
BRANCH   6  15
ATOM     15  C   UNL     1       5.009   4.108  19.220  0.00  0.00    +0.000 C 
BRANCH  15  16
ATOM     16  C   UNL     1       3.551   3.692  19.300  0.00  0.00    +0.000 A 
ATOM     17  C   UNL     1       2.963   2.905  18.294  0.00  0.00    +0.000 A 
ATOM     18  C   UNL     1       1.620   2.521  18.369  0.00  0.00    +0.000 A 
ATOM     19  C   UNL     1       0.841   2.894  19.458  0.00  0.00    +0.000 A 
ATOM     20  C   UNL     1       1.410   3.647  20.481  0.00  0.00    +0.000 A 
ATOM     21  C   UNL     1       2.751   4.039  20.406  0.00  0.00    +0.000 A 
ENDBRANCH  15  16
ENDBRANCH   6  15
TORSDOF 5
ENDMDL
MODEL 4
REMARK VINA RESULT:      -7.2      1.031      4.242
REMARK  Name = 
REMARK  6 active torsions:
REMARK  status: ('A' for Active; 'I' for Inactive)
REMARK    1  A    between atoms: C_1  and  C_2
REMARK    2  A    between atoms: N_6  and  C_7
REMARK    3  A    between atoms: N_6  and  C_15
REMARK    4  A    between atoms: C_7  and  C_8
REMARK    5  A    between atoms: C_8  and  C_9
REMARK    6  A    between atoms: C_15  and  C_16
REMARK                            x       y       z     vdW  Elec       q    Type
REMARK                         _______ _______ _______ _____ _____    ______ ____
ROOT
ATOM      1  C   UNL     1       5.628   4.338  15.184  0.00  0.00    +0.000 C 
ATOM      2  C   UNL     1       6.038   5.300  16.261  0.00  0.00    +0.000 C 
ATOM      3  N   UNL     1       7.220   5.825  16.241  0.00  0.00    +0.000 NA
ATOM      4  C   UNL     1       7.402   6.593  17.476  0.00  0.00    +0.000 C 
ATOM      5  C   UNL     1       6.002   6.830  17.981  0.00  0.00    +0.000 C 
ATOM      6  N   UNL     1       5.244   5.611  17.452  0.00  0.00    +0.000 NA
ENDROOT
BRANCH   6   7
ATOM      7  C   UNL     1       5.354   4.310  18.351  0.00  0.00    +0.000 C 
BRANCH   7   8
ATOM      8  C   UNL     1       4.253   3.279  18.071  0.00  0.00    +0.000 C 
BRANCH   8   9
ATOM      9  C   UNL     1       3.232   3.003  19.154  0.00  0.00    +0.000 A 
ATOM     10  C   UNL     1       3.549   2.808  20.508  0.00  0.00    +0.000 A 
ATOM     11  C   UNL     1       2.528   2.692  21.465  0.00  0.00    +0.000 A 
ATOM     12  C   UNL     1       1.188   2.783  21.088  0.00  0.00    +0.000 A 
ATOM     13  C   UNL     1       0.860   2.984  19.753  0.00  0.00    +0.000 A 
ATOM     14  C   UNL     1       1.873   3.094  18.797  0.00  0.00    +0.000 A 
ENDBRANCH   8   9
ENDBRANCH   7   8
ENDBRANCH   6   7
BRANCH   6  15
ATOM     15  C   UNL     1       3.768   5.912  17.149  0.00  0.00    +0.000 C 
BRANCH  15  16
ATOM     16  C   UNL     1       3.020   6.863  18.067  0.00  0.00    +0.000 A 
ATOM     17  C   UNL     1       2.559   8.109  17.606  0.00  0.00    +0.000 A 
ATOM     18  C   UNL     1       1.868   8.982  18.452  0.00  0.00    +0.000 A 
ATOM     19  C   UNL     1       1.603   8.625  19.769  0.00  0.00    +0.000 A 
ATOM     20  C   UNL     1       2.021   7.383  20.238  0.00  0.00    +0.000 A 
ATOM     21  C   UNL     1       2.718   6.509  19.398  0.00  0.00    +0.000 A 
ENDBRANCH  15  16
ENDBRANCH   6  15
TORSDOF 5
ENDMDL
MODEL 5
REMARK VINA RESULT:      -7.0      0.998      4.286
REMARK  Name = 
REMARK  6 active torsions:
REMARK  status: ('A' for Active; 'I' for Inactive)
REMARK    1  A    between atoms: C_1  and  C_2
REMARK    2  A    between atoms: N_6  and  C_7
REMARK    3  A    between atoms: N_6  and  C_15
REMARK    4  A    between atoms: C_7  and  C_8
REMARK    5  A    between atoms: C_8  and  C_9
REMARK    6  A    between atoms: C_15  and  C_16
REMARK                            x       y       z     vdW  Elec       q    Type
REMARK                         _______ _______ _______ _____ _____    ______ ____
ROOT
ATOM      1  C   UNL     1       5.743   4.513  14.991  0.00  0.00    +0.000 C 
ATOM      2  C   UNL     1       6.118   5.351  16.179  0.00  0.00    +0.000 C 
ATOM      3  N   UNL     1       7.290   5.893  16.242  0.00  0.00    +0.000 NA
ATOM      4  C   UNL     1       7.437   6.517  17.560  0.00  0.00    +0.000 C 
ATOM      5  C   UNL     1       6.025   6.672  18.062  0.00  0.00    +0.000 C 
ATOM      6  N   UNL     1       5.298   5.510  17.383  0.00  0.00    +0.000 NA
ENDROOT
BRANCH   6   7
ATOM      7  C   UNL     1       5.416   4.116  18.128  0.00  0.00    +0.000 C 
BRANCH   7   8
ATOM      8  C   UNL     1       4.221   3.187  17.879  0.00  0.00    +0.000 C 
BRANCH   8   9
ATOM      9  C   UNL     1       3.122   3.131  18.918  0.00  0.00    +0.000 A 
ATOM     10  C   UNL     1       1.752   3.058  18.616  0.00  0.00    +0.000 A 
ATOM     11  C   UNL     1       0.810   2.873  19.640  0.00  0.00    +0.000 A 
ATOM     12  C   UNL     1       1.219   2.745  20.967  0.00  0.00    +0.000 A 
ATOM     13  C   UNL     1       2.572   2.806  21.279  0.00  0.00    +0.000 A 
ATOM     14  C   UNL     1       3.513   2.995  20.264  0.00  0.00    +0.000 A 
ENDBRANCH   8   9
ENDBRANCH   7   8
ENDBRANCH   6   7
BRANCH   6  15
ATOM     15  C   UNL     1       3.822   5.821  17.088  0.00  0.00    +0.000 C 
BRANCH  15  16
ATOM     16  C   UNL     1       3.086   6.778  18.009  0.00  0.00    +0.000 A 
ATOM     17  C   UNL     1       2.658   8.039  17.556  0.00  0.00    +0.000 A 
ATOM     18  C   UNL     1       1.978   8.919  18.404  0.00  0.00    +0.000 A 
ATOM     19  C   UNL     1       1.692   8.554  19.715  0.00  0.00    +0.000 A 
ATOM     20  C   UNL     1       2.079   7.299  20.175  0.00  0.00    +0.000 A 
ATOM     21  C   UNL     1       2.764   6.418  19.333  0.00  0.00    +0.000 A 
ENDBRANCH  15  16
ENDBRANCH   6  15
TORSDOF 5
ENDMDL
MODEL 6
REMARK VINA RESULT:      -6.9      0.823      1.355
REMARK  Name = 
REMARK  6 active torsions:
REMARK  status: ('A' for Active; 'I' for Inactive)
REMARK    1  A    between atoms: C_1  and  C_2
REMARK    2  A    between atoms: N_6  and  C_7
REMARK    3  A    between atoms: N_6  and  C_15
REMARK    4  A    between atoms: C_7  and  C_8
REMARK    5  A    between atoms: C_8  and  C_9
REMARK    6  A    between atoms: C_15  and  C_16
REMARK                            x       y       z     vdW  Elec       q    Type
REMARK                         _______ _______ _______ _____ _____    ______ ____
ROOT
ATOM      1  C   UNL     1       7.761   5.812  18.687  0.00  0.00    +0.000 C 
ATOM      2  C   UNL     1       6.831   5.199  17.682  0.00  0.00    +0.000 C 
ATOM      3  N   UNL     1       7.265   4.892  16.503  0.00  0.00    +0.000 NA
ATOM      4  C   UNL     1       6.124   4.462  15.690  0.00  0.00    +0.000 C 
ATOM      5  C   UNL     1       5.058   4.109  16.696  0.00  0.00    +0.000 C 
ATOM      6  N   UNL     1       5.387   5.032  17.871  0.00  0.00    +0.000 NA
ENDROOT
BRANCH   6   7
ATOM      7  C   UNL     1       4.801   6.499  17.757  0.00  0.00    +0.000 C 
BRANCH   7   8
ATOM      8  C   UNL     1       3.274   6.539  17.617  0.00  0.00    +0.000 C 
BRANCH   8   9
ATOM      9  C   UNL     1       2.513   7.641  18.324  0.00  0.00    +0.000 A 
ATOM     10  C   UNL     1       1.944   8.749  17.676  0.00  0.00    +0.000 A 
ATOM     11  C   UNL     1       1.140   9.651  18.390  0.00  0.00    +0.000 A 
ATOM     12  C   UNL     1       0.884   9.454  19.746  0.00  0.00    +0.000 A 
ATOM     13  C   UNL     1       1.434   8.357  20.399  0.00  0.00    +0.000 A 
ATOM     14  C   UNL     1       2.239   7.459  19.692  0.00  0.00    +0.000 A 
ENDBRANCH   8   9
ENDBRANCH   7   8
ENDBRANCH   6   7
BRANCH   6  15
ATOM     15  C   UNL     1       5.009   4.423  19.231  0.00  0.00    +0.000 C 
BRANCH  15  16
ATOM     16  C   UNL     1       3.605   3.876  19.414  0.00  0.00    +0.000 A 
ATOM     17  C   UNL     1       2.790   4.305  20.477  0.00  0.00    +0.000 A 
ATOM     18  C   UNL     1       1.496   3.802  20.644  0.00  0.00    +0.000 A 
ATOM     19  C   UNL     1       0.977   2.878  19.744  0.00  0.00    +0.000 A 
ATOM     20  C   UNL     1       1.754   2.464  18.666  0.00  0.00    +0.000 A 
ATOM     21  C   UNL     1       3.051   2.959  18.499  0.00  0.00    +0.000 A 
ENDBRANCH  15  16
ENDBRANCH   6  15
TORSDOF 5
ENDMDL
MODEL 7
REMARK VINA RESULT:      -6.9      1.768      5.593
REMARK  Name = 
REMARK  6 active torsions:
REMARK  status: ('A' for Active; 'I' for Inactive)
REMARK    1  A    between atoms: C_1  and  C_2
REMARK    2  A    between atoms: N_6  and  C_7
REMARK    3  A    between atoms: N_6  and  C_15
REMARK    4  A    between atoms: C_7  and  C_8
REMARK    5  A    between atoms: C_8  and  C_9
REMARK    6  A    between atoms: C_15  and  C_16
REMARK                            x       y       z     vdW  Elec       q    Type
REMARK                         _______ _______ _______ _____ _____    ______ ____
ROOT
ATOM      1  C   UNL     1       2.285   2.919  21.813  0.00  0.00    +0.000 C 
ATOM      2  C   UNL     1       1.904   3.224  20.394  0.00  0.00    +0.000 C 
ATOM      3  N   UNL     1       0.897   2.620  19.852  0.00  0.00    +0.000 NA
ATOM      4  C   UNL     1       0.848   2.990  18.435  0.00  0.00    +0.000 C 
ATOM      5  C   UNL     1       1.667   4.251  18.347  0.00  0.00    +0.000 C 
ATOM      6  N   UNL     1       2.674   4.077  19.485  0.00  0.00    +0.000 NA
ENDROOT
BRANCH   6   7
ATOM      7  C   UNL     1       3.954   3.215  19.124  0.00  0.00    +0.000 C 
BRANCH   7   8
ATOM      8  C   UNL     1       5.233   4.049  18.980  0.00  0.00    +0.000 C 
BRANCH   8   9
ATOM      9  C   UNL     1       5.719   4.390  17.587  0.00  0.00    +0.000 A 
ATOM     10  C   UNL     1       7.046   4.724  17.274  0.00  0.00    +0.000 A 
ATOM     11  C   UNL     1       7.437   4.893  15.936  0.00  0.00    +0.000 A 
ATOM     12  C   UNL     1       6.519   4.719  14.901  0.00  0.00    +0.000 A 
ATOM     13  C   UNL     1       5.204   4.380  15.196  0.00  0.00    +0.000 A 
ATOM     14  C   UNL     1       4.810   4.215  16.527  0.00  0.00    +0.000 A 
ENDBRANCH   8   9
ENDBRANCH   7   8
ENDBRANCH   6   7
BRANCH   6  15
ATOM     15  C   UNL     1       3.105   5.414  20.109  0.00  0.00    +0.000 C 
BRANCH  15  16
ATOM     16  C   UNL     1       2.630   6.702  19.461  0.00  0.00    +0.000 A 
ATOM     17  C   UNL     1       1.788   7.595  20.149  0.00  0.00    +0.000 A 
ATOM     18  C   UNL     1       1.353   8.783  19.552  0.00  0.00    +0.000 A 
ATOM     19  C   UNL     1       1.763   9.116  18.266  0.00  0.00    +0.000 A 
ATOM     20  C   UNL     1       2.621   8.263  17.579  0.00  0.00    +0.000 A 
ATOM     21  C   UNL     1       3.054   7.071  18.169  0.00  0.00    +0.000 A 
ENDBRANCH  15  16
ENDBRANCH   6  15
TORSDOF 5
ENDMDL
MODEL 8
REMARK VINA RESULT:      -6.9      1.790      5.347
REMARK  Name = 
REMARK  6 active torsions:
REMARK  status: ('A' for Active; 'I' for Inactive)
REMARK    1  A    between atoms: C_1  and  C_2
REMARK    2  A    between atoms: N_6  and  C_7
REMARK    3  A    between atoms: N_6  and  C_15
REMARK    4  A    between atoms: C_7  and  C_8
REMARK    5  A    between atoms: C_8  and  C_9
REMARK    6  A    between atoms: C_15  and  C_16
REMARK                            x       y       z     vdW  Elec       q    Type
REMARK                         _______ _______ _______ _____ _____    ______ ____
ROOT
ATOM      1  C   UNL     1       2.582   2.833  21.530  0.00  0.00    +0.000 C 
ATOM      2  C   UNL     1       2.141   3.254  20.159  0.00  0.00    +0.000 C 
ATOM      3  N   UNL     1       1.215   2.591  19.547  0.00  0.00    +0.000 NA
ATOM      4  C   UNL     1       1.094   3.119  18.185  0.00  0.00    +0.000 C 
ATOM      5  C   UNL     1       1.738   4.480  18.252  0.00  0.00    +0.000 C 
ATOM      6  N   UNL     1       2.777   4.305  19.361  0.00  0.00    +0.000 NA
ENDROOT
BRANCH   6   7
ATOM      7  C   UNL     1       4.154   3.671  18.898  0.00  0.00    +0.000 C 
BRANCH   7   8
ATOM      8  C   UNL     1       4.724   4.309  17.624  0.00  0.00    +0.000 C 
BRANCH   8   9
ATOM      9  C   UNL     1       5.892   5.264  17.756  0.00  0.00    +0.000 A 
ATOM     10  C   UNL     1       6.082   6.395  16.947  0.00  0.00    +0.000 A 
ATOM     11  C   UNL     1       7.118   7.300  17.227  0.00  0.00    +0.000 A 
ATOM     12  C   UNL     1       7.963   7.096  18.317  0.00  0.00    +0.000 A 
ATOM     13  C   UNL     1       7.781   5.985  19.132  0.00  0.00    +0.000 A 
ATOM     14  C   UNL     1       6.754   5.080  18.854  0.00  0.00    +0.000 A 
ENDBRANCH   8   9
ENDBRANCH   7   8
ENDBRANCH   6   7
BRANCH   6  15
ATOM     15  C   UNL     1       3.037   5.602  20.143  0.00  0.00    +0.000 C 
BRANCH  15  16
ATOM     16  C   UNL     1       2.526   6.911  19.567  0.00  0.00    +0.000 A 
ATOM     17  C   UNL     1       2.844   7.301  18.254  0.00  0.00    +0.000 A 
ATOM     18  C   UNL     1       2.371   8.505  17.723  0.00  0.00    +0.000 A 
ATOM     19  C   UNL     1       1.553   9.336  18.481  0.00  0.00    +0.000 A 
ATOM     20  C   UNL     1       1.199   8.954  19.772  0.00  0.00    +0.000 A 
ATOM     21  C   UNL     1       1.675   7.754  20.309  0.00  0.00    +0.000 A 
ENDBRANCH  15  16
ENDBRANCH   6  15
TORSDOF 5
ENDMDL
MODEL 9
REMARK VINA RESULT:      -6.9      1.188      4.385
REMARK  Name = 
REMARK  6 active torsions:
REMARK  status: ('A' for Active; 'I' for Inactive)
REMARK    1  A    between atoms: C_1  and  C_2
REMARK    2  A    between atoms: N_6  and  C_7
REMARK    3  A    between atoms: N_6  and  C_15
REMARK    4  A    between atoms: C_7  and  C_8
REMARK    5  A    between atoms: C_8  and  C_9
REMARK    6  A    between atoms: C_15  and  C_16
REMARK                            x       y       z     vdW  Elec       q    Type
REMARK                         _______ _______ _______ _____ _____    ______ ____
ROOT
ATOM      1  C   UNL     1       5.398   5.879  15.522  0.00  0.00    +0.000 C 
ATOM      2  C   UNL     1       5.553   5.718  17.006  0.00  0.00    +0.000 C 
ATOM      3  N   UNL     1       6.661   6.057  17.580  0.00  0.00    +0.000 NA
ATOM      4  C   UNL     1       6.592   5.654  18.988  0.00  0.00    +0.000 C 
ATOM      5  C   UNL     1       5.120   5.471  19.254  0.00  0.00    +0.000 C 
ATOM      6  N   UNL     1       4.579   5.062  17.883  0.00  0.00    +0.000 NA
ENDROOT
BRANCH   6   7
ATOM      7  C   UNL     1       4.714   3.521  17.540  0.00  0.00    +0.000 C 
BRANCH   7   8
ATOM      8  C   UNL     1       3.392   2.751  17.652  0.00  0.00    +0.000 C 
BRANCH   8   9
ATOM      9  C   UNL     1       2.711   2.679  19.003  0.00  0.00    +0.000 A 
ATOM     10  C   UNL     1       3.393   2.571  20.225  0.00  0.00    +0.000 A 
ATOM     11  C   UNL     1       2.689   2.647  21.438  0.00  0.00    +0.000 A 
ATOM     12  C   UNL     1       1.308   2.843  21.446  0.00  0.00    +0.000 A 
ATOM     13  C   UNL     1       0.622   2.960  20.243  0.00  0.00    +0.000 A 
ATOM     14  C   UNL     1       1.319   2.880  19.034  0.00  0.00    +0.000 A 
ENDBRANCH   8   9
ENDBRANCH   7   8
ENDBRANCH   6   7
BRANCH   6  15
ATOM     15  C   UNL     1       3.131   5.523  17.651  0.00  0.00    +0.000 C 
BRANCH  15  16
ATOM     16  C   UNL     1       2.559   6.595  18.561  0.00  0.00    +0.000 A 
ATOM     17  C   UNL     1       2.333   7.902  18.093  0.00  0.00    +0.000 A 
ATOM     18  C   UNL     1       1.804   8.889  18.931  0.00  0.00    +0.000 A 
ATOM     19  C   UNL     1       1.468   8.590  20.247  0.00  0.00    +0.000 A 
ATOM     20  C   UNL     1       1.653   7.295  20.722  0.00  0.00    +0.000 A 
ATOM     21  C   UNL     1       2.189   6.306  19.889  0.00  0.00    +0.000 A 
ENDBRANCH  15  16
ENDBRANCH   6  15
TORSDOF 5
ENDMDL
