MODEL 1
REMARK VINA RESULT:      -7.0      0.000      0.000
REMARK  Name = 
REMARK  3 active torsions:
REMARK  status: ('A' for Active; 'I' for Inactive)
REMARK    1  A    between atoms: C_1  and  C_2
REMARK    2  A    between atoms: C_12  and  S_13
REMARK    3  A    between atoms: S_13  and  N_16
REMARK                            x       y       z     vdW  Elec       q    Type
REMARK                         _______ _______ _______ _____ _____    ______ ____
ROOT
ATOM      1  C   UNL     1      -2.151  13.585  23.885  0.00  0.00    +0.000 C 
ATOM      2  C   UNL     1      -1.527  12.973  22.642  0.00  0.00    +0.000 C 
ATOM      3  O   UNL     1      -0.313  12.821  22.643  0.00  0.00    +0.000 OA
ATOM      4  N   UNL     1      -2.372  12.656  21.590  0.00  0.00    +0.000 N 
ATOM      5  C   UNL     1      -3.745  13.178  21.528  0.00  0.00    +0.000 C 
ATOM      6  C   UNL     1      -4.300  12.911  20.147  0.00  0.00    +0.000 C 
ATOM      7  C   UNL     1      -3.226  12.066  19.550  0.00  0.00    +0.000 A 
ATOM      8  C   UNL     1      -3.336  11.502  18.283  0.00  0.00    +0.000 A 
ATOM      9  C   UNL     1      -2.292  10.728  17.832  0.00  0.00    +0.000 A 
ATOM     10 BR   UNL     1      -2.373   9.910  16.132  0.00  0.00    +0.000 Br
ATOM     11  C   UNL     1      -1.173  10.537  18.638  0.00  0.00    +0.000 A 
ATOM     12  C   UNL     1      -1.041  11.126  19.920  0.00  0.00    +0.000 A 
ATOM     13  C   UNL     1      -2.096  11.919  20.393  0.00  0.00    +0.000 A 
ENDROOT
BRANCH  12  14
ATOM     14  S   UNL     1       0.435  10.736  20.844  0.00  0.00    +0.000 S 
ATOM     15  O   UNL     1       1.123  11.989  21.079  0.00  0.00    +0.000 OA
ATOM     16  O   UNL     1       0.046   9.819  21.898  0.00  0.00    +0.000 OA
BRANCH  14  17
ATOM     17  N   UNL     1       1.473   9.889  19.807  0.00  0.00    +0.000 N 
ATOM     18  C   UNL     1       1.748  10.434  18.447  0.00  0.00    +0.000 C 
ATOM     19  C   UNL     1       2.083   9.217  17.561  0.00  0.00    +0.000 C 
ATOM     20  C   UNL     1       2.053   8.072  18.524  0.00  0.00    +0.000 A 
ATOM     21  C   UNL     1       2.351   6.744  18.259  0.00  0.00    +0.000 A 
ATOM     22  C   UNL     1       2.226   5.819  19.294  0.00  0.00    +0.000 A 
ATOM     23  C   UNL     1       1.797   6.227  20.566  0.00  0.00    +0.000 A 
ATOM     24  C   UNL     1       1.503   7.569  20.824  0.00  0.00    +0.000 A 
ATOM     25  C   UNL     1       1.620   8.477  19.788  0.00  0.00    +0.000 A 
ENDBRANCH  14  17
ENDBRANCH  12  14
TORSDOF 2
ENDMDL
MODEL 2
REMARK VINA RESULT:      -6.9      2.931      7.233
REMARK  Name = 
REMARK  3 active torsions:
REMARK  status: ('A' for Active; 'I' for Inactive)
REMARK    1  A    between atoms: C_1  and  C_2
REMARK    2  A    between atoms: C_12  and  S_13
REMARK    3  A    between atoms: S_13  and  N_16
REMARK                            x       y       z     vdW  Elec       q    Type
REMARK                         _______ _______ _______ _____ _____    ______ ____
ROOT
ATOM      1  C   UNL     1       0.979  10.711  19.774  0.00  0.00    +0.000 C 
ATOM      2  C   UNL     1      -0.446  11.151  20.065  0.00  0.00    +0.000 C 
ATOM      3  O   UNL     1      -0.688  11.546  21.198  0.00  0.00    +0.000 OA
ATOM      4  N   UNL     1      -1.370  11.051  19.038  0.00  0.00    +0.000 N 
ATOM      5  C   UNL     1      -1.090  10.259  17.832  0.00  0.00    +0.000 C 
ATOM      6  C   UNL     1      -2.376  10.099  17.052  0.00  0.00    +0.000 C 
ATOM      7  C   UNL     1      -3.299  10.995  17.806  0.00  0.00    +0.000 A 
ATOM      8  C   UNL     1      -4.608  11.235  17.399  0.00  0.00    +0.000 A 
ATOM      9  C   UNL     1      -5.371  12.088  18.161  0.00  0.00    +0.000 A 
ATOM     10 BR   UNL     1      -7.149  12.482  17.664  0.00  0.00    +0.000 Br
ATOM     11  C   UNL     1      -4.826  12.676  19.299  0.00  0.00    +0.000 A 
ATOM     12  C   UNL     1      -3.501  12.420  19.735  0.00  0.00    +0.000 A 
ATOM     13  C   UNL     1      -2.711  11.550  18.971  0.00  0.00    +0.000 A 
ENDROOT
BRANCH  12  14
ATOM     14  S   UNL     1      -2.942  13.296  21.186  0.00  0.00    +0.000 S 
ATOM     15  O   UNL     1      -2.914  12.334  22.269  0.00  0.00    +0.000 OA
ATOM     16  O   UNL     1      -1.799  14.094  20.785  0.00  0.00    +0.000 OA
BRANCH  14  17
ATOM     17  N   UNL     1      -4.169  14.376  21.631  0.00  0.00    +0.000 N 
ATOM     18  C   UNL     1      -3.850  15.826  21.762  0.00  0.00    +0.000 C 
ATOM     19  C   UNL     1      -4.853  16.391  22.788  0.00  0.00    +0.000 C 
ATOM     20  C   UNL     1      -5.727  15.217  23.097  0.00  0.00    +0.000 A 
ATOM     21  C   UNL     1      -6.842  15.194  23.922  0.00  0.00    +0.000 A 
ATOM     22  C   UNL     1      -7.501  13.979  24.109  0.00  0.00    +0.000 A 
ATOM     23  C   UNL     1      -7.035  12.813  23.484  0.00  0.00    +0.000 A 
ATOM     24  C   UNL     1      -5.912  12.847  22.652  0.00  0.00    +0.000 A 
ATOM     25  C   UNL     1      -5.260  14.054  22.482  0.00  0.00    +0.000 A 
ENDBRANCH  14  17
ENDBRANCH  12  14
TORSDOF 2
ENDMDL
MODEL 3
REMARK VINA RESULT:      -6.9      2.142      2.812
REMARK  Name = 
REMARK  3 active torsions:
REMARK  status: ('A' for Active; 'I' for Inactive)
REMARK    1  A    between atoms: C_1  and  C_2
REMARK    2  A    between atoms: C_12  and  S_13
REMARK    3  A    between atoms: S_13  and  N_16
REMARK                            x       y       z     vdW  Elec       q    Type
REMARK                         _______ _______ _______ _____ _____    ______ ____
ROOT
ATOM      1  C   UNL     1      -5.988  13.933  23.162  0.00  0.00    +0.000 C 
ATOM      2  C   UNL     1      -4.921  13.690  22.107  0.00  0.00    +0.000 C 
ATOM      3  O   UNL     1      -3.835  14.228  22.278  0.00  0.00    +0.000 OA
ATOM      4  N   UNL     1      -5.261  12.902  21.020  0.00  0.00    +0.000 N 
ATOM      5  C   UNL     1      -6.664  12.581  20.717  0.00  0.00    +0.000 C 
ATOM      6  C   UNL     1      -6.731  11.974  19.333  0.00  0.00    +0.000 C 
ATOM      7  C   UNL     1      -5.285  11.821  19.002  0.00  0.00    +0.000 A 
ATOM      8  C   UNL     1      -4.847  11.215  17.828  0.00  0.00    +0.000 A 
ATOM      9  C   UNL     1      -3.490  11.115  17.627  0.00  0.00    +0.000 A 
ATOM     10 BR   UNL     1      -2.814  10.287  16.070  0.00  0.00    +0.000 Br
ATOM     11  C   UNL     1      -2.608  11.615  18.580  0.00  0.00    +0.000 A 
ATOM     12  C   UNL     1      -3.045  12.255  19.768  0.00  0.00    +0.000 A 
ATOM     13  C   UNL     1      -4.425  12.367  19.988  0.00  0.00    +0.000 A 
ENDROOT
BRANCH  12  14
ATOM     14  S   UNL     1      -1.783  12.792  20.910  0.00  0.00    +0.000 S 
ATOM     15  O   UNL     1      -1.556  14.198  20.649  0.00  0.00    +0.000 OA
ATOM     16  O   UNL     1      -2.136  12.259  22.213  0.00  0.00    +0.000 OA
BRANCH  14  17
ATOM     17  N   UNL     1      -0.331  12.051  20.448  0.00  0.00    +0.000 N 
ATOM     18  C   UNL     1       0.364  12.519  19.215  0.00  0.00    +0.000 C 
ATOM     19  C   UNL     1       1.162  11.308  18.691  0.00  0.00    +0.000 C 
ATOM     20  C   UNL     1       0.918  10.260  19.731  0.00  0.00    +0.000 A 
ATOM     21  C   UNL     1       1.461   8.985  19.781  0.00  0.00    +0.000 A 
ATOM     22  C   UNL     1       1.073   8.142  20.822  0.00  0.00    +0.000 A 
ATOM     23  C   UNL     1       0.148   8.576  21.783  0.00  0.00    +0.000 A 
ATOM     24  C   UNL     1      -0.392   9.864  21.724  0.00  0.00    +0.000 A 
ATOM     25  C   UNL     1      -0.008  10.688  20.683  0.00  0.00    +0.000 A 
ENDBRANCH  14  17
ENDBRANCH  12  14
TORSDOF 2
ENDMDL
MODEL 4
REMARK VINA RESULT:      -6.9      2.844      4.304
REMARK  Name = 
REMARK  3 active torsions:
REMARK  status: ('A' for Active; 'I' for Inactive)
REMARK    1  A    between atoms: C_1  and  C_2
REMARK    2  A    between atoms: C_12  and  S_13
REMARK    3  A    between atoms: S_13  and  N_16
REMARK                            x       y       z     vdW  Elec       q    Type
REMARK                         _______ _______ _______ _____ _____    ______ ____
ROOT
ATOM      1  C   UNL     1      -5.358  13.089  23.156  0.00  0.00    +0.000 C 
ATOM      2  C   UNL     1      -4.498  13.071  21.903  0.00  0.00    +0.000 C 
ATOM      3  O   UNL     1      -3.436  13.680  21.947  0.00  0.00    +0.000 OA
ATOM      4  N   UNL     1      -4.985  12.392  20.799  0.00  0.00    +0.000 N 
ATOM      5  C   UNL     1      -6.396  11.986  20.713  0.00  0.00    +0.000 C 
ATOM      6  C   UNL     1      -6.684  11.545  19.295  0.00  0.00    +0.000 C 
ATOM      7  C   UNL     1      -5.321  11.563  18.691  0.00  0.00    +0.000 A 
ATOM      8  C   UNL     1      -5.075  11.144  17.388  0.00  0.00    +0.000 A 
ATOM      9  C   UNL     1      -3.777  11.191  16.933  0.00  0.00    +0.000 A 
ATOM     10 BR   UNL     1      -3.357  10.620  15.183  0.00  0.00    +0.000 Br
ATOM     11  C   UNL     1      -2.766  11.650  17.771  0.00  0.00    +0.000 A 
ATOM     12  C   UNL     1      -3.009  12.101  19.093  0.00  0.00    +0.000 A 
ATOM     13  C   UNL     1      -4.327  12.062  19.571  0.00  0.00    +0.000 A 
ENDROOT
BRANCH  12  14
ATOM     14  S   UNL     1      -1.592  12.608  20.052  0.00  0.00    +0.000 S 
ATOM     15  O   UNL     1      -1.710  14.038  20.247  0.00  0.00    +0.000 OA
ATOM     16  O   UNL     1      -1.449  11.653  21.135  0.00  0.00    +0.000 OA
BRANCH  14  17
ATOM     17  N   UNL     1      -0.226  12.443  19.063  0.00  0.00    +0.000 N 
ATOM     18  C   UNL     1       0.391  11.096  18.893  0.00  0.00    +0.000 C 
ATOM     19  C   UNL     1       1.881  11.347  18.586  0.00  0.00    +0.000 C 
ATOM     20  C   UNL     1       1.973  12.839  18.523  0.00  0.00    +0.000 A 
ATOM     21  C   UNL     1       3.090  13.599  18.209  0.00  0.00    +0.000 A 
ATOM     22  C   UNL     1       2.975  14.988  18.243  0.00  0.00    +0.000 A 
ATOM     23  C   UNL     1       1.760  15.594  18.597  0.00  0.00    +0.000 A 
ATOM     24  C   UNL     1       0.639  14.819  18.908  0.00  0.00    +0.000 A 
ATOM     25  C   UNL     1       0.766  13.442  18.881  0.00  0.00    +0.000 A 
ENDBRANCH  14  17
ENDBRANCH  12  14
TORSDOF 2
ENDMDL
MODEL 5
REMARK VINA RESULT:      -6.8      8.026      9.367
REMARK  Name = 
REMARK  3 active torsions:
REMARK  status: ('A' for Active; 'I' for Inactive)
REMARK    1  A    between atoms: C_1  and  C_2
REMARK    2  A    between atoms: C_12  and  S_13
REMARK    3  A    between atoms: S_13  and  N_16
REMARK                            x       y       z     vdW  Elec       q    Type
REMARK                         _______ _______ _______ _____ _____    ______ ____
ROOT
ATOM      1  C   UNL     1       2.343  16.579  17.985  0.00  0.00    +0.000 C 
ATOM      2  C   UNL     1       3.641  15.893  18.378  0.00  0.00    +0.000 C 
ATOM      3  O   UNL     1       4.409  15.591  17.474  0.00  0.00    +0.000 OA
ATOM      4  N   UNL     1       3.850  15.637  19.723  0.00  0.00    +0.000 N 
ATOM      5  C   UNL     1       2.751  15.715  20.696  0.00  0.00    +0.000 C 
ATOM      6  C   UNL     1       3.215  15.102  21.998  0.00  0.00    +0.000 C 
ATOM      7  C   UNL     1       4.661  14.867  21.721  0.00  0.00    +0.000 A 
ATOM      8  C   UNL     1       5.537  14.376  22.684  0.00  0.00    +0.000 A 
ATOM      9  C   UNL     1       6.855  14.208  22.326  0.00  0.00    +0.000 A 
ATOM     10 BR   UNL     1       8.111  13.566  23.582  0.00  0.00    +0.000 Br
ATOM     11  C   UNL     1       7.268  14.524  21.036  0.00  0.00    +0.000 A 
ATOM     12  C   UNL     1       6.379  15.003  20.041  0.00  0.00    +0.000 A 
ATOM     13  C   UNL     1       5.032  15.177  20.388  0.00  0.00    +0.000 A 
ENDROOT
BRANCH  12  14
ATOM     14  S   UNL     1       7.083  15.410  18.452  0.00  0.00    +0.000 S 
ATOM     15  O   UNL     1       6.599  14.417  17.515  0.00  0.00    +0.000 OA
ATOM     16  O   UNL     1       6.921  16.840  18.270  0.00  0.00    +0.000 OA
BRANCH  14  17
ATOM     17  N   UNL     1       8.748  15.108  18.542  0.00  0.00    +0.000 N 
ATOM     18  C   UNL     1       9.705  16.221  18.282  0.00  0.00    +0.000 C 
ATOM     19  C   UNL     1      10.994  15.560  17.755  0.00  0.00    +0.000 C 
ATOM     20  C   UNL     1      10.689  14.097  17.839  0.00  0.00    +0.000 A 
ATOM     21  C   UNL     1      11.541  13.044  17.545  0.00  0.00    +0.000 A 
ATOM     22  C   UNL     1      11.048  11.744  17.653  0.00  0.00    +0.000 A 
ATOM     23  C   UNL     1       9.718  11.517  18.039  0.00  0.00    +0.000 A 
ATOM     24  C   UNL     1       8.868  12.586  18.337  0.00  0.00    +0.000 A 
ATOM     25  C   UNL     1       9.364  13.871  18.217  0.00  0.00    +0.000 A 
ENDBRANCH  14  17
ENDBRANCH  12  14
TORSDOF 2
ENDMDL
MODEL 6
REMARK VINA RESULT:      -6.8      2.575      2.928
REMARK  Name = 
REMARK  3 active torsions:
REMARK  status: ('A' for Active; 'I' for Inactive)
REMARK    1  A    between atoms: C_1  and  C_2
REMARK    2  A    between atoms: C_12  and  S_13
REMARK    3  A    between atoms: S_13  and  N_16
REMARK                            x       y       z     vdW  Elec       q    Type
REMARK                         _______ _______ _______ _____ _____    ______ ____
ROOT
ATOM      1  C   UNL     1      -3.160  12.285  23.579  0.00  0.00    +0.000 C 
ATOM      2  C   UNL     1      -1.818  12.034  22.912  0.00  0.00    +0.000 C 
ATOM      3  O   UNL     1      -1.302  10.939  23.090  0.00  0.00    +0.000 OA
ATOM      4  N   UNL     1      -1.265  13.068  22.174  0.00  0.00    +0.000 N 
ATOM      5  C   UNL     1      -1.769  14.444  22.289  0.00  0.00    +0.000 C 
ATOM      6  C   UNL     1      -0.790  15.374  21.607  0.00  0.00    +0.000 C 
ATOM      7  C   UNL     1       0.150  14.407  20.972  0.00  0.00    +0.000 A 
ATOM      8  C   UNL     1       1.198  14.812  20.150  0.00  0.00    +0.000 A 
ATOM      9  C   UNL     1       2.000  13.836  19.605  0.00  0.00    +0.000 A 
ATOM     10 BR   UNL     1       3.429  14.303  18.463  0.00  0.00    +0.000 Br
ATOM     11  C   UNL     1       1.749  12.497  19.887  0.00  0.00    +0.000 A 
ATOM     12  C   UNL     1       0.700  12.075  20.741  0.00  0.00    +0.000 A 
ATOM     13  C   UNL     1      -0.126  13.057  21.306  0.00  0.00    +0.000 A 
ENDROOT
BRANCH  12  14
ATOM     14  S   UNL     1       0.484  10.316  20.954  0.00  0.00    +0.000 S 
ATOM     15  O   UNL     1       1.056   9.979  22.241  0.00  0.00    +0.000 OA
ATOM     16  O   UNL     1      -0.880  10.006  20.570  0.00  0.00    +0.000 OA
BRANCH  14  17
ATOM     17  N   UNL     1       1.500   9.542  19.841  0.00  0.00    +0.000 N 
ATOM     18  C   UNL     1       1.672  10.130  18.481  0.00  0.00    +0.000 C 
ATOM     19  C   UNL     1       2.013   8.951  17.548  0.00  0.00    +0.000 C 
ATOM     20  C   UNL     1       2.091   7.785  18.483  0.00  0.00    +0.000 A 
ATOM     21  C   UNL     1       2.435   6.478  18.168  0.00  0.00    +0.000 A 
ATOM     22  C   UNL     1       2.411   5.525  19.186  0.00  0.00    +0.000 A 
ATOM     23  C   UNL     1       2.036   5.884  20.489  0.00  0.00    +0.000 A 
ATOM     24  C   UNL     1       1.695   7.204  20.796  0.00  0.00    +0.000 A 
ATOM     25  C   UNL     1       1.712   8.139  19.778  0.00  0.00    +0.000 A 
ENDBRANCH  14  17
ENDBRANCH  12  14
TORSDOF 2
ENDMDL
MODEL 7
REMARK VINA RESULT:      -6.8      1.430      1.710
REMARK  Name = 
REMARK  3 active torsions:
REMARK  status: ('A' for Active; 'I' for Inactive)
REMARK    1  A    between atoms: C_1  and  C_2
REMARK    2  A    between atoms: C_12  and  S_13
REMARK    3  A    between atoms: S_13  and  N_16
REMARK                            x       y       z     vdW  Elec       q    Type
REMARK                         _______ _______ _______ _____ _____    ______ ____
ROOT
ATOM      1  C   UNL     1      -4.419  13.647  23.639  0.00  0.00    +0.000 C 
ATOM      2  C   UNL     1      -3.521  13.390  22.441  0.00  0.00    +0.000 C 
ATOM      3  O   UNL     1      -2.351  13.739  22.535  0.00  0.00    +0.000 OA
ATOM      4  N   UNL     1      -4.092  12.803  21.324  0.00  0.00    +0.000 N 
ATOM      5  C   UNL     1      -5.552  12.729  21.163  0.00  0.00    +0.000 C 
ATOM      6  C   UNL     1      -5.858  12.319  19.739  0.00  0.00    +0.000 C 
ATOM      7  C   UNL     1      -4.498  12.003  19.218  0.00  0.00    +0.000 A 
ATOM      8  C   UNL     1      -4.286  11.495  17.940  0.00  0.00    +0.000 A 
ATOM      9  C   UNL     1      -2.990  11.227  17.563  0.00  0.00    +0.000 A 
ATOM     10 BR   UNL     1      -2.621  10.516  15.853  0.00  0.00    +0.000 Br
ATOM     11  C   UNL     1      -1.946  11.470  18.450  0.00  0.00    +0.000 A 
ATOM     12  C   UNL     1      -2.149  12.009  19.745  0.00  0.00    +0.000 A 
ATOM     13  C   UNL     1      -3.464  12.290  20.144  0.00  0.00    +0.000 A 
ENDROOT
BRANCH  12  14
ATOM     14  S   UNL     1      -0.706  12.209  20.776  0.00  0.00    +0.000 S 
ATOM     15  O   UNL     1      -0.331  13.606  20.702  0.00  0.00    +0.000 OA
ATOM     16  O   UNL     1      -0.973  11.509  22.019  0.00  0.00    +0.000 OA
BRANCH  14  17
ATOM     17  N   UNL     1       0.575  11.401  20.017  0.00  0.00    +0.000 N 
ATOM     18  C   UNL     1       1.044  11.872  18.683  0.00  0.00    +0.000 C 
ATOM     19  C   UNL     1       1.643  10.636  17.982  0.00  0.00    +0.000 C 
ATOM     20  C   UNL     1       1.540   9.567  19.024  0.00  0.00    +0.000 A 
ATOM     21  C   UNL     1       1.999   8.261  18.935  0.00  0.00    +0.000 A 
ATOM     22  C   UNL     1       1.769   7.405  20.012  0.00  0.00    +0.000 A 
ATOM     23  C   UNL     1       1.080   7.857  21.147  0.00  0.00    +0.000 A 
ATOM     24  C   UNL     1       0.625   9.176  21.228  0.00  0.00    +0.000 A 
ATOM     25  C   UNL     1       0.849  10.014  20.151  0.00  0.00    +0.000 A 
ENDBRANCH  14  17
ENDBRANCH  12  14
TORSDOF 2
ENDMDL
MODEL 8
REMARK VINA RESULT:      -6.8      2.449      3.914
REMARK  Name = 
REMARK  3 active torsions:
REMARK  status: ('A' for Active; 'I' for Inactive)
REMARK    1  A    between atoms: C_1  and  C_2
REMARK    2  A    between atoms: C_12  and  S_13
REMARK    3  A    between atoms: S_13  and  N_16
REMARK                            x       y       z     vdW  Elec       q    Type
REMARK                         _______ _______ _______ _____ _____    ______ ____
ROOT
ATOM      1  C   UNL     1      -3.620  10.676  16.993  0.00  0.00    +0.000 C 
ATOM      2  C   UNL     1      -2.714  10.987  18.173  0.00  0.00    +0.000 C 
ATOM      3  O   UNL     1      -1.625  10.428  18.203  0.00  0.00    +0.000 OA
ATOM      4  N   UNL     1      -3.193  11.857  19.138  0.00  0.00    +0.000 N 
ATOM      5  C   UNL     1      -4.618  12.212  19.208  0.00  0.00    +0.000 C 
ATOM      6  C   UNL     1      -4.874  12.922  20.519  0.00  0.00    +0.000 C 
ATOM      7  C   UNL     1      -3.489  13.086  21.047  0.00  0.00    +0.000 A 
ATOM      8  C   UNL     1      -3.215  13.773  22.225  0.00  0.00    +0.000 A 
ATOM      9  C   UNL     1      -1.900  13.876  22.616  0.00  0.00    +0.000 A 
ATOM     10 BR   UNL     1      -1.443  14.811  24.192  0.00  0.00    +0.000 Br
ATOM     11  C   UNL     1      -0.899  13.299  21.841  0.00  0.00    +0.000 A 
ATOM     12  C   UNL     1      -1.170  12.576  20.652  0.00  0.00    +0.000 A 
ATOM     13  C   UNL     1      -2.505  12.460  20.240  0.00  0.00    +0.000 A 
ENDROOT
BRANCH  12  14
ATOM     14  S   UNL     1       0.234  11.944  19.749  0.00  0.00    +0.000 S 
ATOM     15  O   UNL     1      -0.087  12.065  18.342  0.00  0.00    +0.000 OA
ATOM     16  O   UNL     1       1.421  12.511  20.359  0.00  0.00    +0.000 OA
BRANCH  14  17
ATOM     17  N   UNL     1       0.293  10.271  20.011  0.00  0.00    +0.000 N 
ATOM     18  C   UNL     1      -0.075   9.730  21.351  0.00  0.00    +0.000 C 
ATOM     19  C   UNL     1       0.704   8.408  21.505  0.00  0.00    +0.000 C 
ATOM     20  C   UNL     1       1.396   8.262  20.186  0.00  0.00    +0.000 A 
ATOM     21  C   UNL     1       2.185   7.201  19.765  0.00  0.00    +0.000 A 
ATOM     22  C   UNL     1       2.774   7.276  18.504  0.00  0.00    +0.000 A 
ATOM     23  C   UNL     1       2.578   8.403  17.691  0.00  0.00    +0.000 A 
ATOM     24  C   UNL     1       1.778   9.464  18.124  0.00  0.00    +0.000 A 
ATOM     25  C   UNL     1       1.207   9.386  19.380  0.00  0.00    +0.000 A 
ENDBRANCH  14  17
ENDBRANCH  12  14
TORSDOF 2
ENDMDL
MODEL 9
REMARK VINA RESULT:      -6.7      9.700     11.073
REMARK  Name = 
REMARK  3 active torsions:
REMARK  status: ('A' for Active; 'I' for Inactive)
REMARK    1  A    between atoms: C_1  and  C_2
REMARK    2  A    between atoms: C_12  and  S_13
REMARK    3  A    between atoms: S_13  and  N_16
REMARK                            x       y       z     vdW  Elec       q    Type
REMARK                         _______ _______ _______ _____ _____    ______ ____
ROOT
ATOM      1  C   UNL     1       6.011  11.270  26.150  0.00  0.00    +0.000 C 
ATOM      2  C   UNL     1       6.988  11.894  25.168  0.00  0.00    +0.000 C 
ATOM      3  O   UNL     1       7.200  11.284  24.128  0.00  0.00    +0.000 OA
ATOM      4  N   UNL     1       7.585  13.090  25.529  0.00  0.00    +0.000 N 
ATOM      5  C   UNL     1       7.543  13.577  26.916  0.00  0.00    +0.000 C 
ATOM      6  C   UNL     1       8.517  14.726  27.053  0.00  0.00    +0.000 C 
ATOM      7  C   UNL     1       8.932  14.938  25.637  0.00  0.00    +0.000 A 
ATOM      8  C   UNL     1       9.782  15.971  25.253  0.00  0.00    +0.000 A 
ATOM      9  C   UNL     1      10.092  16.084  23.917  0.00  0.00    +0.000 A 
ATOM     10 BR   UNL     1      11.221  17.471  23.313  0.00  0.00    +0.000 Br
ATOM     11  C   UNL     1       9.560  15.179  23.004  0.00  0.00    +0.000 A 
ATOM     12  C   UNL     1       8.712  14.110  23.387  0.00  0.00    +0.000 A 
ATOM     13  C   UNL     1       8.389  13.979  24.745  0.00  0.00    +0.000 A 
ENDROOT
BRANCH  12  14
ATOM     14  S   UNL     1       8.075  13.071  22.083  0.00  0.00    +0.000 S 
ATOM     15  O   UNL     1       8.650  11.757  22.278  0.00  0.00    +0.000 OA
ATOM     16  O   UNL     1       6.649  13.325  21.997  0.00  0.00    +0.000 OA
BRANCH  14  17
ATOM     17  N   UNL     1       8.761  13.606  20.629  0.00  0.00    +0.000 N 
ATOM     18  C   UNL     1       7.928  14.395  19.677  0.00  0.00    +0.000 C 
ATOM     19  C   UNL     1       8.515  14.129  18.276  0.00  0.00    +0.000 C 
ATOM     20  C   UNL     1       9.703  13.265  18.560  0.00  0.00    +0.000 A 
ATOM     21  C   UNL     1      10.631  12.788  17.647  0.00  0.00    +0.000 A 
ATOM     22  C   UNL     1      11.652  11.959  18.113  0.00  0.00    +0.000 A 
ATOM     23  C   UNL     1      11.724  11.613  19.470  0.00  0.00    +0.000 A 
ATOM     24  C   UNL     1      10.785  12.102  20.383  0.00  0.00    +0.000 A 
ATOM     25  C   UNL     1       9.771  12.914  19.909  0.00  0.00    +0.000 A 
ENDBRANCH  14  17
ENDBRANCH  12  14
TORSDOF 2
ENDMDL
