MODEL 1
REMARK VINA RESULT:      -7.9      0.000      0.000
REMARK  Name = 
REMARK  2 active torsions:
REMARK  status: ('A' for Active; 'I' for Inactive)
REMARK    1  A    between atoms: C_7  and  C_8
REMARK    2  A    between atoms: C_11  and  C_12
REMARK                            x       y       z     vdW  Elec       q    Type
REMARK                         _______ _______ _______ _____ _____    ______ ____
ROOT
ATOM      1  O   UNL     1      -0.706  10.247  20.481  0.00  0.00    +0.000 OA
ATOM      2  C   UNL     1       0.144   9.662  19.813  0.00  0.00    +0.000 C 
ATOM      3  C   UNL     1       0.418  10.009  18.367  0.00  0.00    +0.000 C 
ATOM      4  C   UNL     1       1.882   9.809  18.013  0.00  0.00    +0.000 C 
ATOM      5  C   UNL     1       2.356   8.454  18.460  0.00  0.00    +0.000 A 
ATOM      6  C   UNL     1       3.385   7.788  17.784  0.00  0.00    +0.000 A 
ATOM      7  C   UNL     1       3.872   6.558  18.255  0.00  0.00    +0.000 A 
ATOM      8  C   UNL     1       3.316   6.012  19.421  0.00  0.00    +0.000 A 
ATOM      9  C   UNL     1       2.306   6.686  20.115  0.00  0.00    +0.000 A 
ATOM     10  C   UNL     1       1.824   7.897  19.626  0.00  0.00    +0.000 A 
ATOM     11  N   UNL     1       0.811   8.574  20.312  0.00  0.00    +0.000 N 
ATOM     12  H   UNL     1       0.520   8.261  21.229  0.00  0.00    +0.000 HD
ENDROOT
BRANCH   7  13
ATOM     13  C   UNL     1       4.943   5.849  17.565  0.00  0.00    +0.000 A 
ATOM     14  C   UNL     1       6.058   5.340  18.199  0.00  0.00    +0.000 A 
ATOM     15  S   UNL     1       7.083   4.578  17.065  0.00  0.00    +0.000 S 
ATOM     16  C   UNL     1       5.966   4.950  15.803  0.00  0.00    +0.000 A 
ATOM     17  N   UNL     1       4.896   5.616  16.199  0.00  0.00    +0.000 NA
BRANCH  16  18
ATOM     18  C   UNL     1       6.260   4.588  14.405  0.00  0.00    +0.000 A 
ATOM     19  C   UNL     1       5.464   3.689  13.674  0.00  0.00    +0.000 A 
ATOM     20  C   UNL     1       5.795   3.340  12.361  0.00  0.00    +0.000 A 
ATOM     21  C   UNL     1       6.921   3.890  11.756  0.00  0.00    +0.000 A 
ATOM     22  C   UNL     1       7.711   4.799  12.456  0.00  0.00    +0.000 A 
ATOM     23  C   UNL     1       7.380   5.150  13.769  0.00  0.00    +0.000 A 
ENDBRANCH  16  18
ENDBRANCH   7  13
TORSDOF 2
ENDMDL
MODEL 2
REMARK VINA RESULT:      -7.8      4.298      8.878
REMARK  Name = 
REMARK  2 active torsions:
REMARK  status: ('A' for Active; 'I' for Inactive)
REMARK    1  A    between atoms: C_7  and  C_8
REMARK    2  A    between atoms: C_11  and  C_12
REMARK                            x       y       z     vdW  Elec       q    Type
REMARK                         _______ _______ _______ _____ _____    ______ ____
ROOT
ATOM      1  O   UNL     1       4.099   0.846  18.299  0.00  0.00    +0.000 OA
ATOM      2  C   UNL     1       3.546   1.938  18.414  0.00  0.00    +0.000 C 
ATOM      3  C   UNL     1       2.073   2.069  18.729  0.00  0.00    +0.000 C 
ATOM      4  C   UNL     1       1.790   3.301  19.572  0.00  0.00    +0.000 C 
ATOM      5  C   UNL     1       2.440   4.517  18.970  0.00  0.00    +0.000 A 
ATOM      6  C   UNL     1       1.895   5.793  19.151  0.00  0.00    +0.000 A 
ATOM      7  C   UNL     1       2.551   6.929  18.649  0.00  0.00    +0.000 A 
ATOM      8  C   UNL     1       3.768   6.764  17.971  0.00  0.00    +0.000 A 
ATOM      9  C   UNL     1       4.330   5.494  17.811  0.00  0.00    +0.000 A 
ATOM     10  C   UNL     1       3.659   4.376  18.302  0.00  0.00    +0.000 A 
ATOM     11  N   UNL     1       4.214   3.102  18.141  0.00  0.00    +0.000 N 
ATOM     12  H   UNL     1       5.158   2.999  17.793  0.00  0.00    +0.000 HD
ENDROOT
BRANCH   7  13
ATOM     13  C   UNL     1       1.999   8.267  18.826  0.00  0.00    +0.000 A 
ATOM     14  C   UNL     1       2.129   9.279  17.897  0.00  0.00    +0.000 A 
ATOM     15  S   UNL     1       1.352  10.694  18.455  0.00  0.00    +0.000 S 
ATOM     16  C   UNL     1       0.867   9.864  19.889  0.00  0.00    +0.000 A 
ATOM     17  N   UNL     1       1.272   8.608  19.957  0.00  0.00    +0.000 NA
BRANCH  16  18
ATOM     18  C   UNL     1       0.118  10.563  20.948  0.00  0.00    +0.000 A 
ATOM     19  C   UNL     1      -0.192   9.960  22.179  0.00  0.00    +0.000 A 
ATOM     20  C   UNL     1      -0.936  10.642  23.147  0.00  0.00    +0.000 A 
ATOM     21  C   UNL     1      -1.374  11.940  22.902  0.00  0.00    +0.000 A 
ATOM     22  C   UNL     1      -1.060  12.563  21.696  0.00  0.00    +0.000 A 
ATOM     23  C   UNL     1      -0.313  11.883  20.728  0.00  0.00    +0.000 A 
ENDBRANCH  16  18
ENDBRANCH   7  13
TORSDOF 2
ENDMDL
MODEL 3
REMARK VINA RESULT:      -7.8      2.092      3.686
REMARK  Name = 
REMARK  2 active torsions:
REMARK  status: ('A' for Active; 'I' for Inactive)
REMARK    1  A    between atoms: C_7  and  C_8
REMARK    2  A    between atoms: C_11  and  C_12
REMARK                            x       y       z     vdW  Elec       q    Type
REMARK                         _______ _______ _______ _____ _____    ______ ____
ROOT
ATOM      1  O   UNL     1      -1.531  12.434  22.281  0.00  0.00    +0.000 OA
ATOM      2  C   UNL     1      -0.859  11.426  22.070  0.00  0.00    +0.000 C 
ATOM      3  C   UNL     1      -0.455  10.477  23.175  0.00  0.00    +0.000 C 
ATOM      4  C   UNL     1      -0.384   9.042  22.681  0.00  0.00    +0.000 C 
ATOM      5  C   UNL     1       0.427   8.956  21.418  0.00  0.00    +0.000 A 
ATOM      6  C   UNL     1       1.137   7.795  21.090  0.00  0.00    +0.000 A 
ATOM      7  C   UNL     1       1.828   7.697  19.871  0.00  0.00    +0.000 A 
ATOM      8  C   UNL     1       1.788   8.782  18.982  0.00  0.00    +0.000 A 
ATOM      9  C   UNL     1       1.059   9.934  19.292  0.00  0.00    +0.000 A 
ATOM     10  C   UNL     1       0.392  10.020  20.512  0.00  0.00    +0.000 A 
ATOM     11  N   UNL     1      -0.335  11.172  20.830  0.00  0.00    +0.000 N 
ATOM     12  H   UNL     1      -0.491  11.884  20.130  0.00  0.00    +0.000 HD
ENDROOT
BRANCH   7  13
ATOM     13  C   UNL     1       2.573   6.496  19.513  0.00  0.00    +0.000 A 
ATOM     14  C   UNL     1       2.418   5.281  20.148  0.00  0.00    +0.000 A 
ATOM     15  S   UNL     1       3.456   4.117  19.452  0.00  0.00    +0.000 S 
ATOM     16  C   UNL     1       4.029   5.297  18.329  0.00  0.00    +0.000 A 
ATOM     17  N   UNL     1       3.489   6.494  18.472  0.00  0.00    +0.000 NA
BRANCH  16  18
ATOM     18  C   UNL     1       5.080   4.961  17.353  0.00  0.00    +0.000 A 
ATOM     19  C   UNL     1       6.448   5.004  17.670  0.00  0.00    +0.000 A 
ATOM     20  C   UNL     1       7.420   4.714  16.707  0.00  0.00    +0.000 A 
ATOM     21  C   UNL     1       7.038   4.367  15.414  0.00  0.00    +0.000 A 
ATOM     22  C   UNL     1       5.686   4.297  15.085  0.00  0.00    +0.000 A 
ATOM     23  C   UNL     1       4.713   4.585  16.049  0.00  0.00    +0.000 A 
ENDBRANCH  16  18
ENDBRANCH   7  13
TORSDOF 2
ENDMDL
MODEL 4
REMARK VINA RESULT:      -7.8      2.288      3.885
REMARK  Name = 
REMARK  2 active torsions:
REMARK  status: ('A' for Active; 'I' for Inactive)
REMARK    1  A    between atoms: C_7  and  C_8
REMARK    2  A    between atoms: C_11  and  C_12
REMARK                            x       y       z     vdW  Elec       q    Type
REMARK                         _______ _______ _______ _____ _____    ______ ____
ROOT
ATOM      1  O   UNL     1      -2.146  12.642  22.081  0.00  0.00    +0.000 OA
ATOM      2  C   UNL     1      -1.391  11.686  21.919  0.00  0.00    +0.000 C 
ATOM      3  C   UNL     1      -0.842  10.883  23.076  0.00  0.00    +0.000 C 
ATOM      4  C   UNL     1      -0.655   9.422  22.703  0.00  0.00    +0.000 C 
ATOM      5  C   UNL     1       0.097   9.297  21.407  0.00  0.00    +0.000 A 
ATOM      6  C   UNL     1       0.900   8.182  21.140  0.00  0.00    +0.000 A 
ATOM      7  C   UNL     1       1.536   8.039  19.897  0.00  0.00    +0.000 A 
ATOM      8  C   UNL     1       1.347   9.030  18.922  0.00  0.00    +0.000 A 
ATOM      9  C   UNL     1       0.525  10.133  19.173  0.00  0.00    +0.000 A 
ATOM     10  C   UNL     1      -0.087  10.266  20.417  0.00  0.00    +0.000 A 
ATOM     11  N   UNL     1      -0.906  11.370  20.677  0.00  0.00    +0.000 N 
ATOM     12  H   UNL     1      -1.165  11.998  19.929  0.00  0.00    +0.000 HD
ENDROOT
BRANCH   7  13
ATOM     13  C   UNL     1       2.376   6.885  19.600  0.00  0.00    +0.000 A 
ATOM     14  C   UNL     1       2.318   5.695  20.298  0.00  0.00    +0.000 A 
ATOM     15  S   UNL     1       3.449   4.584  19.661  0.00  0.00    +0.000 S 
ATOM     16  C   UNL     1       3.927   5.746  18.478  0.00  0.00    +0.000 A 
ATOM     17  N   UNL     1       3.292   6.902  18.559  0.00  0.00    +0.000 NA
BRANCH  16  18
ATOM     18  C   UNL     1       5.004   5.445  17.519  0.00  0.00    +0.000 A 
ATOM     19  C   UNL     1       4.909   5.759  16.152  0.00  0.00    +0.000 A 
ATOM     20  C   UNL     1       5.937   5.425  15.264  0.00  0.00    +0.000 A 
ATOM     21  C   UNL     1       7.079   4.781  15.731  0.00  0.00    +0.000 A 
ATOM     22  C   UNL     1       7.202   4.480  17.085  0.00  0.00    +0.000 A 
ATOM     23  C   UNL     1       6.175   4.816  17.975  0.00  0.00    +0.000 A 
ENDBRANCH  16  18
ENDBRANCH   7  13
TORSDOF 2
ENDMDL
MODEL 5
REMARK VINA RESULT:      -7.5      0.816      1.682
REMARK  Name = 
REMARK  2 active torsions:
REMARK  status: ('A' for Active; 'I' for Inactive)
REMARK    1  A    between atoms: C_7  and  C_8
REMARK    2  A    between atoms: C_11  and  C_12
REMARK                            x       y       z     vdW  Elec       q    Type
REMARK                         _______ _______ _______ _____ _____    ______ ____
ROOT
ATOM      1  O   UNL     1      -0.714  10.043  21.321  0.00  0.00    +0.000 OA
ATOM      2  C   UNL     1       0.202   9.326  20.923  0.00  0.00    +0.000 C 
ATOM      3  C   UNL     1       0.949   8.383  21.839  0.00  0.00    +0.000 C 
ATOM      4  C   UNL     1       1.395   7.129  21.106  0.00  0.00    +0.000 C 
ATOM      5  C   UNL     1       2.096   7.485  19.825  0.00  0.00    +0.000 A 
ATOM      6  C   UNL     1       3.084   6.654  19.284  0.00  0.00    +0.000 A 
ATOM      7  C   UNL     1       3.678   6.956  18.048  0.00  0.00    +0.000 A 
ATOM      8  C   UNL     1       3.257   8.103  17.358  0.00  0.00    +0.000 A 
ATOM      9  C   UNL     1       2.251   8.922  17.880  0.00  0.00    +0.000 A 
ATOM     10  C   UNL     1       1.683   8.616  19.114  0.00  0.00    +0.000 A 
ATOM     11  N   UNL     1       0.681   9.435  19.644  0.00  0.00    +0.000 N 
ATOM     12  H   UNL     1       0.271  10.167  19.079  0.00  0.00    +0.000 HD
ENDROOT
BRANCH   7  13
ATOM     13  C   UNL     1       4.709   6.103  17.471  0.00  0.00    +0.000 A 
ATOM     14  C   UNL     1       5.653   5.428  18.218  0.00  0.00    +0.000 A 
ATOM     15  S   UNL     1       6.686   4.534  17.193  0.00  0.00    +0.000 S 
ATOM     16  C   UNL     1       5.796   5.080  15.818  0.00  0.00    +0.000 A 
ATOM     17  N   UNL     1       4.795   5.893  16.102  0.00  0.00    +0.000 NA
BRANCH  16  18
ATOM     18  C   UNL     1       6.202   4.692  14.455  0.00  0.00    +0.000 A 
ATOM     19  C   UNL     1       5.474   3.770  13.684  0.00  0.00    +0.000 A 
ATOM     20  C   UNL     1       5.909   3.397  12.408  0.00  0.00    +0.000 A 
ATOM     21  C   UNL     1       7.074   3.947  11.881  0.00  0.00    +0.000 A 
ATOM     22  C   UNL     1       7.799   4.878  12.621  0.00  0.00    +0.000 A 
ATOM     23  C   UNL     1       7.363   5.253  13.897  0.00  0.00    +0.000 A 
ENDBRANCH  16  18
ENDBRANCH   7  13
TORSDOF 2
ENDMDL
MODEL 6
REMARK VINA RESULT:      -7.5      4.556      9.220
REMARK  Name = 
REMARK  2 active torsions:
REMARK  status: ('A' for Active; 'I' for Inactive)
REMARK    1  A    between atoms: C_7  and  C_8
REMARK    2  A    between atoms: C_11  and  C_12
REMARK                            x       y       z     vdW  Elec       q    Type
REMARK                         _______ _______ _______ _____ _____    ______ ____
ROOT
ATOM      1  O   UNL     1       4.212   1.697  19.653  0.00  0.00    +0.000 OA
ATOM      2  C   UNL     1       3.607   2.764  19.724  0.00  0.00    +0.000 C 
ATOM      3  C   UNL     1       2.359   2.933  20.561  0.00  0.00    +0.000 C 
ATOM      4  C   UNL     1       2.259   4.335  21.138  0.00  0.00    +0.000 C 
ATOM      5  C   UNL     1       2.468   5.366  20.064  0.00  0.00    +0.000 A 
ATOM      6  C   UNL     1       1.872   6.630  20.147  0.00  0.00    +0.000 A 
ATOM      7  C   UNL     1       2.136   7.612  19.178  0.00  0.00    +0.000 A 
ATOM      8  C   UNL     1       3.016   7.308  18.129  0.00  0.00    +0.000 A 
ATOM      9  C   UNL     1       3.637   6.057  18.056  0.00  0.00    +0.000 A 
ATOM     10  C   UNL     1       3.352   5.089  19.017  0.00  0.00    +0.000 A 
ATOM     11  N   UNL     1       3.964   3.834  18.947  0.00  0.00    +0.000 N 
ATOM     12  H   UNL     1       4.712   3.669  18.285  0.00  0.00    +0.000 HD
ENDROOT
BRANCH   7  13
ATOM     13  C   UNL     1       1.523   8.933  19.247  0.00  0.00    +0.000 A 
ATOM     14  C   UNL     1       1.767   9.939  18.334  0.00  0.00    +0.000 A 
ATOM     15  S   UNL     1       0.870  11.334  18.743  0.00  0.00    +0.000 S 
ATOM     16  C   UNL     1       0.193  10.504  20.097  0.00  0.00    +0.000 A 
ATOM     17  N   UNL     1       0.619   9.262  20.246  0.00  0.00    +0.000 NA
BRANCH  16  18
ATOM     18  C   UNL     1      -0.732  11.190  21.016  0.00  0.00    +0.000 A 
ATOM     19  C   UNL     1      -0.825  10.862  22.379  0.00  0.00    +0.000 A 
ATOM     20  C   UNL     1      -1.741  11.510  23.214  0.00  0.00    +0.000 A 
ATOM     21  C   UNL     1      -2.572  12.501  22.700  0.00  0.00    +0.000 A 
ATOM     22  C   UNL     1      -2.482  12.855  21.356  0.00  0.00    +0.000 A 
ATOM     23  C   UNL     1      -1.564  12.209  20.521  0.00  0.00    +0.000 A 
ENDBRANCH  16  18
ENDBRANCH   7  13
TORSDOF 2
ENDMDL
MODEL 7
REMARK VINA RESULT:      -7.4      4.431      9.061
REMARK  Name = 
REMARK  2 active torsions:
REMARK  status: ('A' for Active; 'I' for Inactive)
REMARK    1  A    between atoms: C_7  and  C_8
REMARK    2  A    between atoms: C_11  and  C_12
REMARK                            x       y       z     vdW  Elec       q    Type
REMARK                         _______ _______ _______ _____ _____    ______ ____
ROOT
ATOM      1  O   UNL     1       4.432   1.372  19.500  0.00  0.00    +0.000 OA
ATOM      2  C   UNL     1       3.817   2.435  19.554  0.00  0.00    +0.000 C 
ATOM      3  C   UNL     1       2.517   2.581  20.311  0.00  0.00    +0.000 C 
ATOM      4  C   UNL     1       2.373   3.971  20.909  0.00  0.00    +0.000 C 
ATOM      5  C   UNL     1       2.646   5.025  19.873  0.00  0.00    +0.000 A 
ATOM      6  C   UNL     1       2.039   6.284  19.943  0.00  0.00    +0.000 A 
ATOM      7  C   UNL     1       2.360   7.287  19.014  0.00  0.00    +0.000 A 
ATOM      8  C   UNL     1       3.308   7.009  18.018  0.00  0.00    +0.000 A 
ATOM      9  C   UNL     1       3.938   5.762  17.959  0.00  0.00    +0.000 A 
ATOM     10  C   UNL     1       3.597   4.774  18.879  0.00  0.00    +0.000 A 
ATOM     11  N   UNL     1       4.219   3.522  18.823  0.00  0.00    +0.000 N 
ATOM     12  H   UNL     1       5.008   3.374  18.208  0.00  0.00    +0.000 HD
ENDROOT
BRANCH   7  13
ATOM     13  C   UNL     1       1.737   8.604  19.070  0.00  0.00    +0.000 A 
ATOM     14  C   UNL     1       1.927   9.583  18.116  0.00  0.00    +0.000 A 
ATOM     15  S   UNL     1       1.036  10.982  18.523  0.00  0.00    +0.000 S 
ATOM     16  C   UNL     1       0.431  10.189  19.932  0.00  0.00    +0.000 A 
ATOM     17  N   UNL     1       0.877   8.957  20.100  0.00  0.00    +0.000 NA
BRANCH  16  18
ATOM     18  C   UNL     1      -0.457  10.896  20.872  0.00  0.00    +0.000 A 
ATOM     19  C   UNL     1      -1.344  11.905  20.460  0.00  0.00    +0.000 A 
ATOM     20  C   UNL     1      -2.146  12.580  21.385  0.00  0.00    +0.000 A 
ATOM     21  C   UNL     1      -2.080  12.250  22.736  0.00  0.00    +0.000 A 
ATOM     22  C   UNL     1      -1.223  11.238  23.162  0.00  0.00    +0.000 A 
ATOM     23  C   UNL     1      -0.422  10.561  22.236  0.00  0.00    +0.000 A 
ENDBRANCH  16  18
ENDBRANCH   7  13
TORSDOF 2
ENDMDL
MODEL 8
REMARK VINA RESULT:      -7.4      3.701      4.849
REMARK  Name = 
REMARK  2 active torsions:
REMARK  status: ('A' for Active; 'I' for Inactive)
REMARK    1  A    between atoms: C_7  and  C_8
REMARK    2  A    between atoms: C_11  and  C_12
REMARK                            x       y       z     vdW  Elec       q    Type
REMARK                         _______ _______ _______ _____ _____    ______ ____
ROOT
ATOM      1  O   UNL     1      -2.212  12.300  22.925  0.00  0.00    +0.000 OA
ATOM      2  C   UNL     1      -1.424  11.475  22.466  0.00  0.00    +0.000 C 
ATOM      3  C   UNL     1      -0.715  10.462  23.336  0.00  0.00    +0.000 C 
ATOM      4  C   UNL     1      -0.485   9.155  22.596  0.00  0.00    +0.000 C 
ATOM      5  C   UNL     1       0.137   9.409  21.251  0.00  0.00    +0.000 A 
ATOM      6  C   UNL     1       0.970   8.460  20.647  0.00  0.00    +0.000 A 
ATOM      7  C   UNL     1       1.484   8.675  19.358  0.00  0.00    +0.000 A 
ATOM      8  C   UNL     1       1.142   9.854  18.681  0.00  0.00    +0.000 A 
ATOM      9  C   UNL     1       0.288  10.794  19.268  0.00  0.00    +0.000 A 
ATOM     10  C   UNL     1      -0.201  10.572  20.553  0.00  0.00    +0.000 A 
ATOM     11  N   UNL     1      -1.050  11.510  21.148  0.00  0.00    +0.000 N 
ATOM     12  H   UNL     1      -1.419  12.279  20.605  0.00  0.00    +0.000 HD
ENDROOT
BRANCH   7  13
ATOM     13  C   UNL     1       2.354   7.698  18.714  0.00  0.00    +0.000 A 
ATOM     14  C   UNL     1       3.276   8.020  17.738  0.00  0.00    +0.000 A 
ATOM     15  S   UNL     1       4.105   6.616  17.227  0.00  0.00    +0.000 S 
ATOM     16  C   UNL     1       3.203   5.671  18.356  0.00  0.00    +0.000 A 
ATOM     17  N   UNL     1       2.324   6.357  19.064  0.00  0.00    +0.000 NA
BRANCH  16  18
ATOM     18  C   UNL     1       3.393   4.212  18.438  0.00  0.00    +0.000 A 
ATOM     19  C   UNL     1       2.882   3.328  17.472  0.00  0.00    +0.000 A 
ATOM     20  C   UNL     1       3.050   1.945  17.601  0.00  0.00    +0.000 A 
ATOM     21  C   UNL     1       3.739   1.427  18.694  0.00  0.00    +0.000 A 
ATOM     22  C   UNL     1       4.271   2.287  19.652  0.00  0.00    +0.000 A 
ATOM     23  C   UNL     1       4.105   3.670  19.521  0.00  0.00    +0.000 A 
ENDBRANCH  16  18
ENDBRANCH   7  13
TORSDOF 2
ENDMDL
MODEL 9
REMARK VINA RESULT:      -7.4      3.838      4.927
REMARK  Name = 
REMARK  2 active torsions:
REMARK  status: ('A' for Active; 'I' for Inactive)
REMARK    1  A    between atoms: C_7  and  C_8
REMARK    2  A    between atoms: C_11  and  C_12
REMARK                            x       y       z     vdW  Elec       q    Type
REMARK                         _______ _______ _______ _____ _____    ______ ____
ROOT
ATOM      1  O   UNL     1      -2.366  12.670  22.383  0.00  0.00    +0.000 OA
ATOM      2  C   UNL     1      -1.547  11.835  22.005  0.00  0.00    +0.000 C 
ATOM      3  C   UNL     1      -0.752  10.986  22.970  0.00  0.00    +0.000 C 
ATOM      4  C   UNL     1      -0.469   9.607  22.399  0.00  0.00    +0.000 C 
ATOM      5  C   UNL     1       0.093   9.714  21.008  0.00  0.00    +0.000 A 
ATOM      6  C   UNL     1       0.960   8.739  20.500  0.00  0.00    +0.000 A 
ATOM      7  C   UNL     1       1.418   8.808  19.175  0.00  0.00    +0.000 A 
ATOM      8  C   UNL     1       0.985   9.867  18.363  0.00  0.00    +0.000 A 
ATOM      9  C   UNL     1       0.097  10.829  18.857  0.00  0.00    +0.000 A 
ATOM     10  C   UNL     1      -0.336  10.754  20.178  0.00  0.00    +0.000 A 
ATOM     11  N   UNL     1      -1.219  11.715  20.680  0.00  0.00    +0.000 N 
ATOM     12  H   UNL     1      -1.651  12.384  20.055  0.00  0.00    +0.000 HD
ENDROOT
BRANCH   7  13
ATOM     13  C   UNL     1       2.322   7.803  18.629  0.00  0.00    +0.000 A 
ATOM     14  C   UNL     1       3.351   8.092  17.756  0.00  0.00    +0.000 A 
ATOM     15  S   UNL     1       4.189   6.662  17.340  0.00  0.00    +0.000 S 
ATOM     16  C   UNL     1       3.145   5.750  18.369  0.00  0.00    +0.000 A 
ATOM     17  N   UNL     1       2.217   6.465  18.979  0.00  0.00    +0.000 NA
BRANCH  16  18
ATOM     18  C   UNL     1       3.282   4.287  18.475  0.00  0.00    +0.000 A 
ATOM     19  C   UNL     1       4.171   3.674  19.376  0.00  0.00    +0.000 A 
ATOM     20  C   UNL     1       4.301   2.283  19.423  0.00  0.00    +0.000 A 
ATOM     21  C   UNL     1       3.539   1.482  18.577  0.00  0.00    +0.000 A 
ATOM     22  C   UNL     1       2.638   2.069  17.691  0.00  0.00    +0.000 A 
ATOM     23  C   UNL     1       2.505   3.461  17.645  0.00  0.00    +0.000 A 
ENDBRANCH  16  18
ENDBRANCH   7  13
TORSDOF 2
ENDMDL
