MODEL 1
REMARK VINA RESULT:      -7.3      0.000      0.000
REMARK  Name = 
REMARK  8 active torsions:
REMARK  status: ('A' for Active; 'I' for Inactive)
REMARK    1  A    between atoms: C_1  and  C_2
REMARK    2  A    between atoms: C_2  and  C_3
REMARK    3  A    between atoms: C_3  and  N_4
REMARK    4  A    between atoms: C_3  and  C_5
REMARK    5  A    between atoms: C_10  and  C_11
REMARK    6  A    between atoms: C_11  and  C_13
REMARK    7  A    between atoms: C_16  and  C_17
REMARK    8  A    between atoms: C_17  and  O_18
REMARK                            x       y       z     vdW  Elec       q    Type
REMARK                         _______ _______ _______ _____ _____    ______ ____
ROOT
ATOM      1  C   UNL     1       5.679   4.739  17.590  0.00  0.00    +0.000 A 
ATOM      2  C   UNL     1       5.067   3.855  16.696  0.00  0.00    +0.000 A 
ATOM      3  C   UNL     1       3.700   3.594  16.781  0.00  0.00    +0.000 A 
ATOM      4  C   UNL     1       2.911   4.236  17.746  0.00  0.00    +0.000 A 
ATOM      5 CL   UNL     1       1.221   3.880  17.695  0.00  0.00    +0.000 Cl
ATOM      6  C   UNL     1       3.496   5.130  18.653  0.00  0.00    +0.000 A 
ATOM      7  C   UNL     1       4.885   5.335  18.584  0.00  0.00    +0.000 A 
ATOM      8  F   UNL     1       5.498   6.097  19.502  0.00  0.00    +0.000 F 
ENDROOT
BRANCH   6   9
ATOM      9  C   UNL     1       2.706   5.792  19.728  0.00  0.00    +0.000 C 
ATOM     10  O   UNL     1       2.543   5.215  20.799  0.00  0.00    +0.000 OA
BRANCH   9  11
ATOM     11  C   UNL     1       2.168   7.179  19.596  0.00  0.00    +0.000 A 
ATOM     12  C   UNL     1       2.293   7.805  18.349  0.00  0.00    +0.000 A 
ATOM     13  C   UNL     1       1.737   9.067  18.130  0.00  0.00    +0.000 A 
ATOM     14  C   UNL     1       1.046   9.728  19.153  0.00  0.00    +0.000 A 
ATOM     15  C   UNL     1       0.986   9.128  20.421  0.00  0.00    +0.000 A 
ATOM     16  C   UNL     1       1.550   7.866  20.646  0.00  0.00    +0.000 A 
BRANCH  14  17
ATOM     17  C   UNL     1       0.447  11.086  18.891  0.00  0.00    +0.000 C 
BRANCH  17  18
ATOM     18  O   UNL     1       1.363  11.947  18.227  0.00  0.00    +0.000 OA
ATOM     19  H   UNL     1       0.926  12.241  17.408  0.00  0.00    +0.000 HD
ENDBRANCH  17  18
ENDBRANCH  14  17
ENDBRANCH   9  11
ENDBRANCH   6   9
BRANCH   1  20
ATOM     20  C   UNL     1       7.156   5.074  17.493  0.00  0.00    +0.000 C 
BRANCH  20  21
ATOM     21  N   UNL     1       7.824   4.696  18.745  0.00  0.00    +0.000 NA
ATOM     22  H   UNL     1       7.982   3.690  18.763  0.00  0.00    +0.000 HD
ATOM     23  H   UNL     1       7.212   4.899  19.533  0.00  0.00    +0.000 HD
ENDBRANCH  20  21
BRANCH  20  25
ATOM     24  C   UNL     1       8.056   7.360  18.233  0.00  0.00    +0.000 C 
ATOM     25  C   UNL     1       7.374   6.557  17.132  0.00  0.00    +0.000 C 
ENDBRANCH  20  25
ENDBRANCH   1  20
TORSDOF 7
ENDMDL
MODEL 2
REMARK VINA RESULT:      -7.2      3.483      6.675
REMARK  Name = 
REMARK  8 active torsions:
REMARK  status: ('A' for Active; 'I' for Inactive)
REMARK    1  A    between atoms: C_1  and  C_2
REMARK    2  A    between atoms: C_2  and  C_3
REMARK    3  A    between atoms: C_3  and  N_4
REMARK    4  A    between atoms: C_3  and  C_5
REMARK    5  A    between atoms: C_10  and  C_11
REMARK    6  A    between atoms: C_11  and  C_13
REMARK    7  A    between atoms: C_16  and  C_17
REMARK    8  A    between atoms: C_17  and  O_18
REMARK                            x       y       z     vdW  Elec       q    Type
REMARK                         _______ _______ _______ _____ _____    ______ ____
ROOT
ATOM      1  C   UNL     1       2.393   4.414  20.155  0.00  0.00    +0.000 A 
ATOM      2  C   UNL     1       1.769   5.630  19.859  0.00  0.00    +0.000 A 
ATOM      3  C   UNL     1       2.416   6.586  19.077  0.00  0.00    +0.000 A 
ATOM      4  C   UNL     1       3.691   6.333  18.551  0.00  0.00    +0.000 A 
ATOM      5 CL   UNL     1       4.347   7.571  17.539  0.00  0.00    +0.000 Cl
ATOM      6  C   UNL     1       4.339   5.122  18.828  0.00  0.00    +0.000 A 
ATOM      7  C   UNL     1       3.691   4.196  19.664  0.00  0.00    +0.000 A 
ATOM      8  F   UNL     1       4.323   3.074  20.041  0.00  0.00    +0.000 F 
ENDROOT
BRANCH   6   9
ATOM      9  C   UNL     1       5.714   4.833  18.335  0.00  0.00    +0.000 C 
ATOM     10  O   UNL     1       6.635   4.735  19.141  0.00  0.00    +0.000 OA
BRANCH   9  11
ATOM     11  C   UNL     1       6.018   4.568  16.898  0.00  0.00    +0.000 A 
ATOM     12  C   UNL     1       5.115   3.769  16.184  0.00  0.00    +0.000 A 
ATOM     13  C   UNL     1       5.290   3.549  14.816  0.00  0.00    +0.000 A 
ATOM     14  C   UNL     1       6.370   4.125  14.135  0.00  0.00    +0.000 A 
ATOM     15  C   UNL     1       7.311   4.865  14.868  0.00  0.00    +0.000 A 
ATOM     16  C   UNL     1       7.142   5.079  16.243  0.00  0.00    +0.000 A 
BRANCH  14  17
ATOM     17  C   UNL     1       6.533   3.882  12.656  0.00  0.00    +0.000 C 
BRANCH  17  18
ATOM     18  O   UNL     1       6.092   2.582  12.284  0.00  0.00    +0.000 OA
ATOM     19  H   UNL     1       5.993   2.588  11.316  0.00  0.00    +0.000 HD
ENDBRANCH  17  18
ENDBRANCH  14  17
ENDBRANCH   9  11
ENDBRANCH   6   9
BRANCH   1  20
ATOM     20  C   UNL     1       1.696   3.339  20.967  0.00  0.00    +0.000 C 
BRANCH  20  21
ATOM     21  N   UNL     1       2.475   3.062  22.180  0.00  0.00    +0.000 NA
ATOM     22  H   UNL     1       3.356   3.572  22.150  0.00  0.00    +0.000 HD
ATOM     23  H   UNL     1       2.722   2.075  22.209  0.00  0.00    +0.000 HD
ENDBRANCH  20  21
BRANCH  20  25
ATOM     24  C   UNL     1       0.858   2.360  18.747  0.00  0.00    +0.000 C 
ATOM     25  C   UNL     1       1.445   2.071  20.125  0.00  0.00    +0.000 C 
ENDBRANCH  20  25
ENDBRANCH   1  20
TORSDOF 7
ENDMDL
MODEL 3
REMARK VINA RESULT:      -7.2      3.956      6.960
REMARK  Name = 
REMARK  8 active torsions:
REMARK  status: ('A' for Active; 'I' for Inactive)
REMARK    1  A    between atoms: C_1  and  C_2
REMARK    2  A    between atoms: C_2  and  C_3
REMARK    3  A    between atoms: C_3  and  N_4
REMARK    4  A    between atoms: C_3  and  C_5
REMARK    5  A    between atoms: C_10  and  C_11
REMARK    6  A    between atoms: C_11  and  C_13
REMARK    7  A    between atoms: C_16  and  C_17
REMARK    8  A    between atoms: C_17  and  O_18
REMARK                            x       y       z     vdW  Elec       q    Type
REMARK                         _______ _______ _______ _____ _____    ______ ____
ROOT
ATOM      1  C   UNL     1       2.276   3.757  18.947  0.00  0.00    +0.000 A 
ATOM      2  C   UNL     1       1.645   5.000  18.828  0.00  0.00    +0.000 A 
ATOM      3  C   UNL     1       2.337   6.099  18.321  0.00  0.00    +0.000 A 
ATOM      4  C   UNL     1       3.667   5.970  17.895  0.00  0.00    +0.000 A 
ATOM      5 CL   UNL     1       4.381   7.391  17.219  0.00  0.00    +0.000 Cl
ATOM      6  C   UNL     1       4.323   4.737  17.999  0.00  0.00    +0.000 A 
ATOM      7  C   UNL     1       3.624   3.656  18.565  0.00  0.00    +0.000 A 
ATOM      8  F   UNL     1       4.250   2.490  18.781  0.00  0.00    +0.000 F 
ENDROOT
BRANCH   6   9
ATOM      9  C   UNL     1       5.750   4.568  17.608  0.00  0.00    +0.000 C 
ATOM     10  O   UNL     1       6.605   4.462  18.483  0.00  0.00    +0.000 OA
BRANCH   9  11
ATOM     11  C   UNL     1       6.188   4.431  16.188  0.00  0.00    +0.000 A 
ATOM     12  C   UNL     1       5.530   3.479  15.398  0.00  0.00    +0.000 A 
ATOM     13  C   UNL     1       5.829   3.357  14.039  0.00  0.00    +0.000 A 
ATOM     14  C   UNL     1       6.790   4.183  13.444  0.00  0.00    +0.000 A 
ATOM     15  C   UNL     1       7.497   5.085  14.255  0.00  0.00    +0.000 A 
ATOM     16  C   UNL     1       7.205   5.205  15.620  0.00  0.00    +0.000 A 
BRANCH  14  17
ATOM     17  C   UNL     1       7.089   4.039  11.973  0.00  0.00    +0.000 C 
BRANCH  17  18
ATOM     18  O   UNL     1       7.060   2.678  11.561  0.00  0.00    +0.000 OA
ATOM     19  H   UNL     1       6.464   2.633  10.793  0.00  0.00    +0.000 HD
ENDBRANCH  17  18
ENDBRANCH  14  17
ENDBRANCH   9  11
ENDBRANCH   6   9
BRANCH   1  20
ATOM     20  C   UNL     1       1.535   2.534  19.456  0.00  0.00    +0.000 C 
BRANCH  20  21
ATOM     21  N   UNL     1       0.387   2.261  18.582  0.00  0.00    +0.000 NA
ATOM     22  H   UNL     1       0.010   3.137  18.224  0.00  0.00    +0.000 HD
ATOM     23  H   UNL     1      -0.360   1.834  19.125  0.00  0.00    +0.000 HD
ENDBRANCH  20  21
BRANCH  20  25
ATOM     24  C   UNL     1       2.306   2.931  21.872  0.00  0.00    +0.000 C 
ATOM     25  C   UNL     1       1.126   2.699  20.934  0.00  0.00    +0.000 C 
ENDBRANCH  20  25
ENDBRANCH   1  20
TORSDOF 7
ENDMDL
MODEL 4
REMARK VINA RESULT:      -7.2      3.625      6.764
REMARK  Name = 
REMARK  8 active torsions:
REMARK  status: ('A' for Active; 'I' for Inactive)
REMARK    1  A    between atoms: C_1  and  C_2
REMARK    2  A    between atoms: C_2  and  C_3
REMARK    3  A    between atoms: C_3  and  N_4
REMARK    4  A    between atoms: C_3  and  C_5
REMARK    5  A    between atoms: C_10  and  C_11
REMARK    6  A    between atoms: C_11  and  C_13
REMARK    7  A    between atoms: C_16  and  C_17
REMARK    8  A    between atoms: C_17  and  O_18
REMARK                            x       y       z     vdW  Elec       q    Type
REMARK                         _______ _______ _______ _____ _____    ______ ____
ROOT
ATOM      1  C   UNL     1       2.483   4.429  20.079  0.00  0.00    +0.000 A 
ATOM      2  C   UNL     1       1.958   5.714  19.902  0.00  0.00    +0.000 A 
ATOM      3  C   UNL     1       2.631   6.652  19.119  0.00  0.00    +0.000 A 
ATOM      4  C   UNL     1       3.828   6.314  18.474  0.00  0.00    +0.000 A 
ATOM      5 CL   UNL     1       4.518   7.545  17.476  0.00  0.00    +0.000 Cl
ATOM      6  C   UNL     1       4.376   5.034  18.629  0.00  0.00    +0.000 A 
ATOM      7  C   UNL     1       3.711   4.123  19.467  0.00  0.00    +0.000 A 
ATOM      8  F   UNL     1       4.258   2.926  19.728  0.00  0.00    +0.000 F 
ENDROOT
BRANCH   6   9
ATOM      9  C   UNL     1       5.672   4.650  18.005  0.00  0.00    +0.000 C 
ATOM     10  O   UNL     1       6.626   4.367  18.724  0.00  0.00    +0.000 OA
BRANCH   9  11
ATOM     11  C   UNL     1       5.847   4.506  16.530  0.00  0.00    +0.000 A 
ATOM     12  C   UNL     1       7.088   4.866  15.988  0.00  0.00    +0.000 A 
ATOM     13  C   UNL     1       7.350   4.677  14.629  0.00  0.00    +0.000 A 
ATOM     14  C   UNL     1       6.379   4.123  13.786  0.00  0.00    +0.000 A 
ATOM     15  C   UNL     1       5.113   3.831  14.320  0.00  0.00    +0.000 A 
ATOM     16  C   UNL     1       4.844   4.028  15.680  0.00  0.00    +0.000 A 
BRANCH  14  17
ATOM     17  C   UNL     1       6.688   3.920  12.325  0.00  0.00    +0.000 C 
BRANCH  17  18
ATOM     18  O   UNL     1       6.622   2.548  11.959  0.00  0.00    +0.000 OA
ATOM     19  H   UNL     1       7.157   2.060  12.609  0.00  0.00    +0.000 HD
ENDBRANCH  17  18
ENDBRANCH  14  17
ENDBRANCH   9  11
ENDBRANCH   6   9
BRANCH   1  20
ATOM     20  C   UNL     1       1.752   3.376  20.890  0.00  0.00    +0.000 C 
BRANCH  20  21
ATOM     21  N   UNL     1       2.527   3.067  22.098  0.00  0.00    +0.000 NA
ATOM     22  H   UNL     1       1.897   2.801  22.854  0.00  0.00    +0.000 HD
ATOM     23  H   UNL     1       3.010   3.904  22.417  0.00  0.00    +0.000 HD
ENDBRANCH  20  21
BRANCH  20  25
ATOM     24  C   UNL     1       0.589   2.402  18.819  0.00  0.00    +0.000 C 
ATOM     25  C   UNL     1       1.454   2.121  20.043  0.00  0.00    +0.000 C 
ENDBRANCH  20  25
ENDBRANCH   1  20
TORSDOF 7
ENDMDL
MODEL 5
REMARK VINA RESULT:      -7.1      0.392      1.099
REMARK  Name = 
REMARK  8 active torsions:
REMARK  status: ('A' for Active; 'I' for Inactive)
REMARK    1  A    between atoms: C_1  and  C_2
REMARK    2  A    between atoms: C_2  and  C_3
REMARK    3  A    between atoms: C_3  and  N_4
REMARK    4  A    between atoms: C_3  and  C_5
REMARK    5  A    between atoms: C_10  and  C_11
REMARK    6  A    between atoms: C_11  and  C_13
REMARK    7  A    between atoms: C_16  and  C_17
REMARK    8  A    between atoms: C_17  and  O_18
REMARK                            x       y       z     vdW  Elec       q    Type
REMARK                         _______ _______ _______ _____ _____    ______ ____
ROOT
ATOM      1  C   UNL     1       5.529   4.646  17.482  0.00  0.00    +0.000 A 
ATOM      2  C   UNL     1       4.877   3.716  16.666  0.00  0.00    +0.000 A 
ATOM      3  C   UNL     1       3.519   3.451  16.839  0.00  0.00    +0.000 A 
ATOM      4  C   UNL     1       2.778   4.133  17.815  0.00  0.00    +0.000 A 
ATOM      5 CL   UNL     1       1.091   3.765  17.874  0.00  0.00    +0.000 Cl
ATOM      6  C   UNL     1       3.404   5.073  18.645  0.00  0.00    +0.000 A 
ATOM      7  C   UNL     1       4.786   5.283  18.490  0.00  0.00    +0.000 A 
ATOM      8  F   UNL     1       5.442   6.092  19.335  0.00  0.00    +0.000 F 
ENDROOT
BRANCH   6   9
ATOM      9  C   UNL     1       2.669   5.782  19.729  0.00  0.00    +0.000 C 
ATOM     10  O   UNL     1       2.579   5.259  20.836  0.00  0.00    +0.000 OA
BRANCH   9  11
ATOM     11  C   UNL     1       2.103   7.152  19.559  0.00  0.00    +0.000 A 
ATOM     12  C   UNL     1       1.491   7.742  20.673  0.00  0.00    +0.000 A 
ATOM     13  C   UNL     1       1.016   9.054  20.610  0.00  0.00    +0.000 A 
ATOM     14  C   UNL     1       1.145   9.802  19.434  0.00  0.00    +0.000 A 
ATOM     15  C   UNL     1       1.693   9.183  18.299  0.00  0.00    +0.000 A 
ATOM     16  C   UNL     1       2.162   7.864  18.357  0.00  0.00    +0.000 A 
BRANCH  14  17
ATOM     17  C   UNL     1       0.633  11.220  19.393  0.00  0.00    +0.000 C 
BRANCH  17  18
ATOM     18  O   UNL     1      -0.035  11.502  18.169  0.00  0.00    +0.000 OA
ATOM     19  H   UNL     1       0.596  11.302  17.456  0.00  0.00    +0.000 HD
ENDBRANCH  17  18
ENDBRANCH  14  17
ENDBRANCH   9  11
ENDBRANCH   6   9
BRANCH   1  20
ATOM     20  C   UNL     1       6.995   4.984  17.288  0.00  0.00    +0.000 C 
BRANCH  20  21
ATOM     21  N   UNL     1       7.777   4.417  18.394  0.00  0.00    +0.000 NA
ATOM     22  H   UNL     1       7.337   4.649  19.283  0.00  0.00    +0.000 HD
ATOM     23  H   UNL     1       8.699   4.848  18.416  0.00  0.00    +0.000 HD
ENDBRANCH  20  21
BRANCH  20  25
ATOM     24  C   UNL     1       8.018   7.126  18.266  0.00  0.00    +0.000 C 
ATOM     25  C   UNL     1       7.206   6.505  17.135  0.00  0.00    +0.000 C 
ENDBRANCH  20  25
ENDBRANCH   1  20
TORSDOF 7
ENDMDL
MODEL 6
REMARK VINA RESULT:      -7.0      3.410      6.442
REMARK  Name = 
REMARK  8 active torsions:
REMARK  status: ('A' for Active; 'I' for Inactive)
REMARK    1  A    between atoms: C_1  and  C_2
REMARK    2  A    between atoms: C_2  and  C_3
REMARK    3  A    between atoms: C_3  and  N_4
REMARK    4  A    between atoms: C_3  and  C_5
REMARK    5  A    between atoms: C_10  and  C_11
REMARK    6  A    between atoms: C_11  and  C_13
REMARK    7  A    between atoms: C_16  and  C_17
REMARK    8  A    between atoms: C_17  and  O_18
REMARK                            x       y       z     vdW  Elec       q    Type
REMARK                         _______ _______ _______ _____ _____    ______ ____
ROOT
ATOM      1  C   UNL     1       2.751   6.307  19.575  0.00  0.00    +0.000 A 
ATOM      2  C   UNL     1       2.088   5.241  20.192  0.00  0.00    +0.000 A 
ATOM      3  C   UNL     1       2.633   3.957  20.163  0.00  0.00    +0.000 A 
ATOM      4  C   UNL     1       3.867   3.721  19.541  0.00  0.00    +0.000 A 
ATOM      5 CL   UNL     1       4.463   2.102  19.643  0.00  0.00    +0.000 Cl
ATOM      6  C   UNL     1       4.555   4.771  18.919  0.00  0.00    +0.000 A 
ATOM      7  C   UNL     1       3.961   6.044  18.912  0.00  0.00    +0.000 A 
ATOM      8  F   UNL     1       4.534   7.050  18.234  0.00  0.00    +0.000 F 
ENDROOT
BRANCH   6   9
ATOM      9  C   UNL     1       5.842   4.554  18.201  0.00  0.00    +0.000 C 
ATOM     10  O   UNL     1       6.873   4.391  18.848  0.00  0.00    +0.000 OA
BRANCH   9  11
ATOM     11  C   UNL     1       5.928   4.438  16.716  0.00  0.00    +0.000 A 
ATOM     12  C   UNL     1       7.101   4.891  16.099  0.00  0.00    +0.000 A 
ATOM     13  C   UNL     1       7.285   4.735  14.723  0.00  0.00    +0.000 A 
ATOM     14  C   UNL     1       6.301   4.122  13.938  0.00  0.00    +0.000 A 
ATOM     15  C   UNL     1       5.097   3.736  14.549  0.00  0.00    +0.000 A 
ATOM     16  C   UNL     1       4.906   3.899  15.927  0.00  0.00    +0.000 A 
BRANCH  14  17
ATOM     17  C   UNL     1       6.525   3.956  12.456  0.00  0.00    +0.000 C 
BRANCH  17  18
ATOM     18  O   UNL     1       6.433   2.594  12.059  0.00  0.00    +0.000 OA
ATOM     19  H   UNL     1       7.258   2.385  11.588  0.00  0.00    +0.000 HD
ENDBRANCH  17  18
ENDBRANCH  14  17
ENDBRANCH   9  11
ENDBRANCH   6   9
BRANCH   1  20
ATOM     20  C   UNL     1       2.202   7.721  19.627  0.00  0.00    +0.000 C 
BRANCH  20  21
ATOM     21  N   UNL     1       1.264   7.839  20.750  0.00  0.00    +0.000 NA
ATOM     22  H   UNL     1       0.719   6.983  20.837  0.00  0.00    +0.000 HD
ATOM     23  H   UNL     1       0.594   8.581  20.558  0.00  0.00    +0.000 HD
ENDBRANCH  20  21
BRANCH  20  25
ATOM     24  C   UNL     1       1.915   9.547  17.847  0.00  0.00    +0.000 C 
ATOM     25  C   UNL     1       1.567   8.128  18.282  0.00  0.00    +0.000 C 
ENDBRANCH  20  25
ENDBRANCH   1  20
TORSDOF 7
ENDMDL
MODEL 7
REMARK VINA RESULT:      -7.0      3.200      5.967
REMARK  Name = 
REMARK  8 active torsions:
REMARK  status: ('A' for Active; 'I' for Inactive)
REMARK    1  A    between atoms: C_1  and  C_2
REMARK    2  A    between atoms: C_2  and  C_3
REMARK    3  A    between atoms: C_3  and  N_4
REMARK    4  A    between atoms: C_3  and  C_5
REMARK    5  A    between atoms: C_10  and  C_11
REMARK    6  A    between atoms: C_11  and  C_13
REMARK    7  A    between atoms: C_16  and  C_17
REMARK    8  A    between atoms: C_17  and  O_18
REMARK                            x       y       z     vdW  Elec       q    Type
REMARK                         _______ _______ _______ _____ _____    ______ ____
ROOT
ATOM      1  C   UNL     1       2.102   6.304  20.098  0.00  0.00    +0.000 A 
ATOM      2  C   UNL     1       0.947   5.534  20.271  0.00  0.00    +0.000 A 
ATOM      3  C   UNL     1       0.984   4.152  20.091  0.00  0.00    +0.000 A 
ATOM      4  C   UNL     1       2.186   3.508  19.762  0.00  0.00    +0.000 A 
ATOM      5 CL   UNL     1       2.108   1.786  19.642  0.00  0.00    +0.000 Cl
ATOM      6  C   UNL     1       3.359   4.253  19.587  0.00  0.00    +0.000 A 
ATOM      7  C   UNL     1       3.286   5.651  19.718  0.00  0.00    +0.000 A 
ATOM      8  F   UNL     1       4.361   6.408  19.452  0.00  0.00    +0.000 F 
ENDROOT
BRANCH   6   9
ATOM      9  C   UNL     1       4.645   3.617  19.186  0.00  0.00    +0.000 C 
ATOM     10  O   UNL     1       5.145   2.761  19.910  0.00  0.00    +0.000 OA
BRANCH   9  11
ATOM     11  C   UNL     1       5.320   3.911  17.888  0.00  0.00    +0.000 A 
ATOM     12  C   UNL     1       4.575   3.726  16.716  0.00  0.00    +0.000 A 
ATOM     13  C   UNL     1       5.114   4.062  15.472  0.00  0.00    +0.000 A 
ATOM     14  C   UNL     1       6.407   4.590  15.375  0.00  0.00    +0.000 A 
ATOM     15  C   UNL     1       7.175   4.706  16.545  0.00  0.00    +0.000 A 
ATOM     16  C   UNL     1       6.640   4.362  17.793  0.00  0.00    +0.000 A 
BRANCH  14  17
ATOM     17  C   UNL     1       6.965   4.954  14.023  0.00  0.00    +0.000 C 
BRANCH  17  18
ATOM     18  O   UNL     1       8.187   5.673  14.134  0.00  0.00    +0.000 OA
ATOM     19  H   UNL     1       8.669   5.288  14.886  0.00  0.00    +0.000 HD
ENDBRANCH  17  18
ENDBRANCH  14  17
ENDBRANCH   9  11
ENDBRANCH   6   9
BRANCH   1  20
ATOM     20  C   UNL     1       2.099   7.804  20.328  0.00  0.00    +0.000 C 
BRANCH  20  21
ATOM     21  N   UNL     1       1.442   8.100  21.608  0.00  0.00    +0.000 NA
ATOM     22  H   UNL     1       1.615   9.069  21.869  0.00  0.00    +0.000 HD
ATOM     23  H   UNL     1       1.857   7.531  22.343  0.00  0.00    +0.000 HD
ENDBRANCH  20  21
BRANCH  20  25
ATOM     24  C   UNL     1       2.154   8.313  17.813  0.00  0.00    +0.000 C 
ATOM     25  C   UNL     1       1.453   8.554  19.146  0.00  0.00    +0.000 C 
ENDBRANCH  20  25
ENDBRANCH   1  20
TORSDOF 7
ENDMDL
MODEL 8
REMARK VINA RESULT:      -7.0      0.974      1.030
REMARK  Name = 
REMARK  8 active torsions:
REMARK  status: ('A' for Active; 'I' for Inactive)
REMARK    1  A    between atoms: C_1  and  C_2
REMARK    2  A    between atoms: C_2  and  C_3
REMARK    3  A    between atoms: C_3  and  N_4
REMARK    4  A    between atoms: C_3  and  C_5
REMARK    5  A    between atoms: C_10  and  C_11
REMARK    6  A    between atoms: C_11  and  C_13
REMARK    7  A    between atoms: C_16  and  C_17
REMARK    8  A    between atoms: C_17  and  O_18
REMARK                            x       y       z     vdW  Elec       q    Type
REMARK                         _______ _______ _______ _____ _____    ______ ____
ROOT
ATOM      1  C   UNL     1       5.355   4.730  17.401  0.00  0.00    +0.000 A 
ATOM      2  C   UNL     1       4.744   3.688  16.697  0.00  0.00    +0.000 A 
ATOM      3  C   UNL     1       3.428   3.321  16.974  0.00  0.00    +0.000 A 
ATOM      4  C   UNL     1       2.685   4.009  17.943  0.00  0.00    +0.000 A 
ATOM      5 CL   UNL     1       1.045   3.502  18.135  0.00  0.00    +0.000 Cl
ATOM      6  C   UNL     1       3.269   5.061  18.662  0.00  0.00    +0.000 A 
ATOM      7  C   UNL     1       4.615   5.377  18.406  0.00  0.00    +0.000 A 
ATOM      8  F   UNL     1       5.241   6.302  19.147  0.00  0.00    +0.000 F 
ENDROOT
BRANCH   6   9
ATOM      9  C   UNL     1       2.535   5.784  19.737  0.00  0.00    +0.000 C 
ATOM     10  O   UNL     1       2.353   5.232  20.819  0.00  0.00    +0.000 OA
BRANCH   9  11
ATOM     11  C   UNL     1       2.079   7.198  19.593  0.00  0.00    +0.000 A 
ATOM     12  C   UNL     1       2.238   7.803  18.339  0.00  0.00    +0.000 A 
ATOM     13  C   UNL     1       1.757   9.094  18.108  0.00  0.00    +0.000 A 
ATOM     14  C   UNL     1       1.106   9.804  19.124  0.00  0.00    +0.000 A 
ATOM     15  C   UNL     1       1.013   9.221  20.398  0.00  0.00    +0.000 A 
ATOM     16  C   UNL     1       1.503   7.930  20.636  0.00  0.00    +0.000 A 
BRANCH  14  17
ATOM     17  C   UNL     1       0.587  11.192  18.849  0.00  0.00    +0.000 C 
BRANCH  17  18
ATOM     18  O   UNL     1      -0.400  11.192  17.825  0.00  0.00    +0.000 OA
ATOM     19  H   UNL     1      -0.650  10.262  17.680  0.00  0.00    +0.000 HD
ENDBRANCH  17  18
ENDBRANCH  14  17
ENDBRANCH   9  11
ENDBRANCH   6   9
BRANCH   1  20
ATOM     20  C   UNL     1       6.771   5.178  17.091  0.00  0.00    +0.000 C 
BRANCH  20  21
ATOM     21  N   UNL     1       7.135   4.740  15.738  0.00  0.00    +0.000 NA
ATOM     22  H   UNL     1       7.617   5.493  15.249  0.00  0.00    +0.000 HD
ATOM     23  H   UNL     1       6.291   4.551  15.202  0.00  0.00    +0.000 HD
ENDBRANCH  20  21
BRANCH  20  25
ATOM     24  C   UNL     1       8.179   5.758  19.158  0.00  0.00    +0.000 C 
ATOM     25  C   UNL     1       7.765   4.681  18.161  0.00  0.00    +0.000 C 
ENDBRANCH  20  25
ENDBRANCH   1  20
TORSDOF 7
ENDMDL
MODEL 9
REMARK VINA RESULT:      -6.9      0.958      1.442
REMARK  Name = 
REMARK  8 active torsions:
REMARK  status: ('A' for Active; 'I' for Inactive)
REMARK    1  A    between atoms: C_1  and  C_2
REMARK    2  A    between atoms: C_2  and  C_3
REMARK    3  A    between atoms: C_3  and  N_4
REMARK    4  A    between atoms: C_3  and  C_5
REMARK    5  A    between atoms: C_10  and  C_11
REMARK    6  A    between atoms: C_11  and  C_13
REMARK    7  A    between atoms: C_16  and  C_17
REMARK    8  A    between atoms: C_17  and  O_18
REMARK                            x       y       z     vdW  Elec       q    Type
REMARK                         _______ _______ _______ _____ _____    ______ ____
ROOT
ATOM      1  C   UNL     1       5.373   4.831  17.322  0.00  0.00    +0.000 A 
ATOM      2  C   UNL     1       4.778   3.730  16.698  0.00  0.00    +0.000 A 
ATOM      3  C   UNL     1       3.462   3.374  16.994  0.00  0.00    +0.000 A 
ATOM      4  C   UNL     1       2.706   4.131  17.901  0.00  0.00    +0.000 A 
ATOM      5 CL   UNL     1       1.069   3.625  18.121  0.00  0.00    +0.000 Cl
ATOM      6  C   UNL     1       3.275   5.241  18.539  0.00  0.00    +0.000 A 
ATOM      7  C   UNL     1       4.620   5.548  18.267  0.00  0.00    +0.000 A 
ATOM      8  F   UNL     1       5.233   6.535  18.938  0.00  0.00    +0.000 F 
ENDROOT
BRANCH   6   9
ATOM      9  C   UNL     1       2.527   6.040  19.548  0.00  0.00    +0.000 C 
ATOM     10  O   UNL     1       2.364   5.584  20.676  0.00  0.00    +0.000 OA
BRANCH   9  11
ATOM     11  C   UNL     1       2.034   7.423  19.279  0.00  0.00    +0.000 A 
ATOM     12  C   UNL     1       1.483   8.133  20.354  0.00  0.00    +0.000 A 
ATOM     13  C   UNL     1       1.080   9.461  20.194  0.00  0.00    +0.000 A 
ATOM     14  C   UNL     1       1.221  10.104  18.958  0.00  0.00    +0.000 A 
ATOM     15  C   UNL     1       1.705   9.366  17.867  0.00  0.00    +0.000 A 
ATOM     16  C   UNL     1       2.102   8.031  18.021  0.00  0.00    +0.000 A 
BRANCH  14  17
ATOM     17  C   UNL     1       0.787  11.541  18.812  0.00  0.00    +0.000 C 
BRANCH  17  18
ATOM     18  O   UNL     1       1.708  12.292  18.031  0.00  0.00    +0.000 OA
ATOM     19  H   UNL     1       1.416  12.215  17.106  0.00  0.00    +0.000 HD
ENDBRANCH  17  18
ENDBRANCH  14  17
ENDBRANCH   9  11
ENDBRANCH   6   9
BRANCH   1  20
ATOM     20  C   UNL     1       6.788   5.266  16.988  0.00  0.00    +0.000 C 
BRANCH  20  21
ATOM     21  N   UNL     1       7.105   4.876  15.608  0.00  0.00    +0.000 NA
ATOM     22  H   UNL     1       8.107   4.954  15.448  0.00  0.00    +0.000 HD
ATOM     23  H   UNL     1       6.665   5.527  14.960  0.00  0.00    +0.000 HD
ENDBRANCH  20  21
BRANCH  20  25
ATOM     24  C   UNL     1       8.111   5.670  19.150  0.00  0.00    +0.000 C 
ATOM     25  C   UNL     1       7.804   4.710  18.006  0.00  0.00    +0.000 C 
ENDBRANCH  20  25
ENDBRANCH   1  20
TORSDOF 7
ENDMDL
