MODEL 1
REMARK VINA RESULT:      -6.3      0.000      0.000
REMARK  Name = 
REMARK  3 active torsions:
REMARK  status: ('A' for Active; 'I' for Inactive)
REMARK    1  A    between atoms: C_1  and  C_2
REMARK    2  A    between atoms: C_2  and  C_3
REMARK    3  A    between atoms: C_6  and  C_7
REMARK                            x       y       z     vdW  Elec       q    Type
REMARK                         _______ _______ _______ _____ _____    ______ ____
ROOT
ATOM      1  C   UNL     1       3.205   5.016  18.183  0.00  0.00    +0.000 C 
ATOM      2  O   UNL     1       2.155   5.642  18.262  0.00  0.00    +0.000 OA
ATOM      3  N   UNL     1       3.593   4.018  19.049  0.00  0.00    +0.000 N 
ATOM      4  C   UNL     1       2.886   3.506  20.102  0.00  0.00    +0.000 A 
ATOM      5  N   UNL     1       3.431   2.691  20.979  0.00  0.00    +0.000 NA
ATOM      6  N   UNL     1       2.537   2.307  21.960  0.00  0.00    +0.000 NA
ATOM      7  C   UNL     1       1.343   2.821  21.750  0.00  0.00    +0.000 A 
ATOM      8  S   UNL     1       1.229   3.810  20.357  0.00  0.00    +0.000 S 
ATOM      9  H   UNL     1       4.534   3.658  18.967  0.00  0.00    +0.000 HD
ENDROOT
BRANCH   1  13
ATOM     10  C   UNL     1       5.863   5.197  15.315  0.00  0.00    +0.000 A 
ATOM     11  C   UNL     1       5.529   6.497  15.634  0.00  0.00    +0.000 A 
ATOM     12  C   UNL     1       4.558   6.562  16.680  0.00  0.00    +0.000 A 
ATOM     13  C   UNL     1       4.185   5.313  17.138  0.00  0.00    +0.000 A 
ATOM     14  S   UNL     1       5.025   4.077  16.297  0.00  0.00    +0.000 S 
BRANCH  10  16
ATOM     15  C   UNL     1       6.142   3.769  13.286  0.00  0.00    +0.000 C 
ATOM     16  C   UNL     1       6.820   4.711  14.269  0.00  0.00    +0.000 C 
ENDBRANCH  10  16
ENDBRANCH   1  13
TORSDOF 2
ENDMDL
MODEL 2
REMARK VINA RESULT:      -6.1      3.275      3.855
REMARK  Name = 
REMARK  3 active torsions:
REMARK  status: ('A' for Active; 'I' for Inactive)
REMARK    1  A    between atoms: C_1  and  C_2
REMARK    2  A    between atoms: C_2  and  C_3
REMARK    3  A    between atoms: C_6  and  C_7
REMARK                            x       y       z     vdW  Elec       q    Type
REMARK                         _______ _______ _______ _____ _____    ______ ____
ROOT
ATOM      1  C   UNL     1       5.045   4.198  18.991  0.00  0.00    +0.000 C 
ATOM      2  O   UNL     1       5.272   3.188  19.646  0.00  0.00    +0.000 OA
ATOM      3  N   UNL     1       3.841   4.491  18.388  0.00  0.00    +0.000 N 
ATOM      4  C   UNL     1       2.684   3.766  18.443  0.00  0.00    +0.000 A 
ATOM      5  N   UNL     1       1.652   4.037  17.674  0.00  0.00    +0.000 NA
ATOM      6  N   UNL     1       0.597   3.173  17.891  0.00  0.00    +0.000 NA
ATOM      7  C   UNL     1       0.869   2.313  18.849  0.00  0.00    +0.000 A 
ATOM      8  S   UNL     1       2.425   2.489  19.543  0.00  0.00    +0.000 S 
ATOM      9  H   UNL     1       3.803   5.287  17.767  0.00  0.00    +0.000 HD
ENDROOT
BRANCH   1  13
ATOM     10  C   UNL     1       7.426   7.137  17.986  0.00  0.00    +0.000 A 
ATOM     11  C   UNL     1       8.083   6.402  18.950  0.00  0.00    +0.000 A 
ATOM     12  C   UNL     1       7.308   5.290  19.400  0.00  0.00    +0.000 A 
ATOM     13  C   UNL     1       6.086   5.200  18.761  0.00  0.00    +0.000 A 
ATOM     14  S   UNL     1       5.900   6.463  17.616  0.00  0.00    +0.000 S 
BRANCH  10  16
ATOM     15  C   UNL     1       8.479   9.386  18.258  0.00  0.00    +0.000 C 
ATOM     16  C   UNL     1       7.890   8.377  17.283  0.00  0.00    +0.000 C 
ENDBRANCH  10  16
ENDBRANCH   1  13
TORSDOF 2
ENDMDL
MODEL 3
REMARK VINA RESULT:      -6.1      3.024      3.666
REMARK  Name = 
REMARK  3 active torsions:
REMARK  status: ('A' for Active; 'I' for Inactive)
REMARK    1  A    between atoms: C_1  and  C_2
REMARK    2  A    between atoms: C_2  and  C_3
REMARK    3  A    between atoms: C_6  and  C_7
REMARK                            x       y       z     vdW  Elec       q    Type
REMARK                         _______ _______ _______ _____ _____    ______ ____
ROOT
ATOM      1  C   UNL     1       4.818   4.526  17.785  0.00  0.00    +0.000 C 
ATOM      2  O   UNL     1       4.754   3.795  16.804  0.00  0.00    +0.000 OA
ATOM      3  N   UNL     1       3.876   4.580  18.789  0.00  0.00    +0.000 N 
ATOM      4  C   UNL     1       2.748   3.818  18.915  0.00  0.00    +0.000 A 
ATOM      5  N   UNL     1       1.821   4.085  19.809  0.00  0.00    +0.000 NA
ATOM      6  N   UNL     1       0.769   3.193  19.752  0.00  0.00    +0.000 NA
ATOM      7  C   UNL     1       0.974   2.264  18.843  0.00  0.00    +0.000 A 
ATOM      8  S   UNL     1       2.451   2.418  17.990  0.00  0.00    +0.000 S 
ATOM      9  H   UNL     1       3.965   5.309  19.483  0.00  0.00    +0.000 HD
ENDROOT
BRANCH   1  13
ATOM     10  C   UNL     1       7.473   7.400  17.873  0.00  0.00    +0.000 A 
ATOM     11  C   UNL     1       7.917   6.418  18.735  0.00  0.00    +0.000 A 
ATOM     12  C   UNL     1       7.025   5.305  18.787  0.00  0.00    +0.000 A 
ATOM     13  C   UNL     1       5.930   5.461  17.959  0.00  0.00    +0.000 A 
ATOM     14  S   UNL     1       6.004   6.955  17.121  0.00  0.00    +0.000 S 
BRANCH  10  16
ATOM     15  C   UNL     1       8.765   9.333  18.785  0.00  0.00    +0.000 C 
ATOM     16  C   UNL     1       8.110   8.719  17.557  0.00  0.00    +0.000 C 
ENDBRANCH  10  16
ENDBRANCH   1  13
TORSDOF 2
ENDMDL
MODEL 4
REMARK VINA RESULT:      -6.0      1.064      1.232
REMARK  Name = 
REMARK  3 active torsions:
REMARK  status: ('A' for Active; 'I' for Inactive)
REMARK    1  A    between atoms: C_1  and  C_2
REMARK    2  A    between atoms: C_2  and  C_3
REMARK    3  A    between atoms: C_6  and  C_7
REMARK                            x       y       z     vdW  Elec       q    Type
REMARK                         _______ _______ _______ _____ _____    ______ ____
ROOT
ATOM      1  C   UNL     1       4.065   4.549  18.222  0.00  0.00    +0.000 C 
ATOM      2  O   UNL     1       3.133   5.336  18.108  0.00  0.00    +0.000 OA
ATOM      3  N   UNL     1       4.170   3.591  19.206  0.00  0.00    +0.000 N 
ATOM      4  C   UNL     1       3.263   3.301  20.187  0.00  0.00    +0.000 A 
ATOM      5  N   UNL     1       3.550   2.499  21.190  0.00  0.00    +0.000 NA
ATOM      6  N   UNL     1       2.491   2.357  22.064  0.00  0.00    +0.000 NA
ATOM      7  C   UNL     1       1.435   3.027  21.654  0.00  0.00    +0.000 A 
ATOM      8  S   UNL     1       1.661   3.883  20.188  0.00  0.00    +0.000 S 
ATOM      9  H   UNL     1       5.040   3.082  19.281  0.00  0.00    +0.000 HD
ENDROOT
BRANCH   1  13
ATOM     10  C   UNL     1       6.681   4.665  15.314  0.00  0.00    +0.000 A 
ATOM     11  C   UNL     1       7.394   4.701  16.494  0.00  0.00    +0.000 A 
ATOM     12  C   UNL     1       6.540   4.661  17.639  0.00  0.00    +0.000 A 
ATOM     13  C   UNL     1       5.202   4.587  17.302  0.00  0.00    +0.000 A 
ATOM     14  S   UNL     1       5.000   4.557  15.600  0.00  0.00    +0.000 S 
BRANCH  10  16
ATOM     15  C   UNL     1       6.417   3.781  12.993  0.00  0.00    +0.000 C 
ATOM     16  C   UNL     1       7.203   4.707  13.909  0.00  0.00    +0.000 C 
ENDBRANCH  10  16
ENDBRANCH   1  13
TORSDOF 2
ENDMDL
MODEL 5
REMARK VINA RESULT:      -6.0      3.888      6.658
REMARK  Name = 
REMARK  3 active torsions:
REMARK  status: ('A' for Active; 'I' for Inactive)
REMARK    1  A    between atoms: C_1  and  C_2
REMARK    2  A    between atoms: C_2  and  C_3
REMARK    3  A    between atoms: C_6  and  C_7
REMARK                            x       y       z     vdW  Elec       q    Type
REMARK                         _______ _______ _______ _____ _____    ______ ____
ROOT
ATOM      1  C   UNL     1       3.356   6.476  17.882  0.00  0.00    +0.000 C 
ATOM      2  O   UNL     1       3.021   5.303  18.002  0.00  0.00    +0.000 OA
ATOM      3  N   UNL     1       4.520   6.905  17.284  0.00  0.00    +0.000 N 
ATOM      4  C   UNL     1       5.476   6.139  16.677  0.00  0.00    +0.000 A 
ATOM      5  N   UNL     1       6.639   6.634  16.310  0.00  0.00    +0.000 NA
ATOM      6  N   UNL     1       7.451   5.681  15.726  0.00  0.00    +0.000 NA
ATOM      7  C   UNL     1       6.842   4.517  15.642  0.00  0.00    +0.000 A 
ATOM      8  S   UNL     1       5.250   4.499  16.273  0.00  0.00    +0.000 S 
ATOM      9  H   UNL     1       4.756   7.885  17.354  0.00  0.00    +0.000 HD
ENDROOT
BRANCH   1  13
ATOM     10  C   UNL     1       1.158   9.053  19.843  0.00  0.00    +0.000 A 
ATOM     11  C   UNL     1       1.345   9.568  18.578  0.00  0.00    +0.000 A 
ATOM     12  C   UNL     1       2.138   8.708  17.758  0.00  0.00    +0.000 A 
ATOM     13  C   UNL     1       2.527   7.556  18.416  0.00  0.00    +0.000 A 
ATOM     14  S   UNL     1       1.916   7.531  20.018  0.00  0.00    +0.000 S 
BRANCH  10  16
ATOM     15  C   UNL     1       0.975   9.200  22.330  0.00  0.00    +0.000 C 
ATOM     16  C   UNL     1       0.408   9.655  20.993  0.00  0.00    +0.000 C 
ENDBRANCH  10  16
ENDBRANCH   1  13
TORSDOF 2
ENDMDL
MODEL 6
REMARK VINA RESULT:      -5.9      4.025      6.539
REMARK  Name = 
REMARK  3 active torsions:
REMARK  status: ('A' for Active; 'I' for Inactive)
REMARK    1  A    between atoms: C_1  and  C_2
REMARK    2  A    between atoms: C_2  and  C_3
REMARK    3  A    between atoms: C_6  and  C_7
REMARK                            x       y       z     vdW  Elec       q    Type
REMARK                         _______ _______ _______ _____ _____    ______ ____
ROOT
ATOM      1  C   UNL     1       3.408   6.264  18.058  0.00  0.00    +0.000 C 
ATOM      2  O   UNL     1       3.114   5.078  18.147  0.00  0.00    +0.000 OA
ATOM      3  N   UNL     1       4.516   6.753  17.401  0.00  0.00    +0.000 N 
ATOM      4  C   UNL     1       5.447   6.043  16.695  0.00  0.00    +0.000 A 
ATOM      5  N   UNL     1       6.567   6.588  16.271  0.00  0.00    +0.000 NA
ATOM      6  N   UNL     1       7.360   5.686  15.590  0.00  0.00    +0.000 NA
ATOM      7  C   UNL     1       6.778   4.509  15.494  0.00  0.00    +0.000 A 
ATOM      8  S   UNL     1       5.236   4.416  16.233  0.00  0.00    +0.000 S 
ATOM      9  H   UNL     1       4.731   7.736  17.500  0.00  0.00    +0.000 HD
ENDROOT
BRANCH   1  13
ATOM     10  C   UNL     1       1.219   9.295  19.214  0.00  0.00    +0.000 A 
ATOM     11  C   UNL     1       1.326   8.444  20.294  0.00  0.00    +0.000 A 
ATOM     12  C   UNL     1       2.111   7.290  19.994  0.00  0.00    +0.000 A 
ATOM     13  C   UNL     1       2.591   7.295  18.698  0.00  0.00    +0.000 A 
ATOM     14  S   UNL     1       2.088   8.707  17.865  0.00  0.00    +0.000 S 
BRANCH  10  16
ATOM     15  C   UNL     1      -0.920  10.392  18.537  0.00  0.00    +0.000 C 
ATOM     16  C   UNL     1       0.471  10.591  19.119  0.00  0.00    +0.000 C 
ENDBRANCH  10  16
ENDBRANCH   1  13
TORSDOF 2
ENDMDL
MODEL 7
REMARK VINA RESULT:      -5.8      3.477      6.608
REMARK  Name = 
REMARK  3 active torsions:
REMARK  status: ('A' for Active; 'I' for Inactive)
REMARK    1  A    between atoms: C_1  and  C_2
REMARK    2  A    between atoms: C_2  and  C_3
REMARK    3  A    between atoms: C_6  and  C_7
REMARK                            x       y       z     vdW  Elec       q    Type
REMARK                         _______ _______ _______ _____ _____    ______ ____
ROOT
ATOM      1  C   UNL     1       3.721   5.274  17.644  0.00  0.00    +0.000 C 
ATOM      2  O   UNL     1       3.360   4.186  17.213  0.00  0.00    +0.000 OA
ATOM      3  N   UNL     1       4.856   5.944  17.240  0.00  0.00    +0.000 N 
ATOM      4  C   UNL     1       5.744   5.567  16.272  0.00  0.00    +0.000 A 
ATOM      5  N   UNL     1       6.894   6.184  16.101  0.00  0.00    +0.000 NA
ATOM      6  N   UNL     1       7.635   5.631  15.075  0.00  0.00    +0.000 NA
ATOM      7  C   UNL     1       6.987   4.647  14.490  0.00  0.00    +0.000 A 
ATOM      8  S   UNL     1       5.441   4.320  15.151  0.00  0.00    +0.000 S 
ATOM      9  H   UNL     1       5.126   6.772  17.753  0.00  0.00    +0.000 HD
ENDROOT
BRANCH   1  13
ATOM     10  C   UNL     1       1.720   7.607  20.067  0.00  0.00    +0.000 A 
ATOM     11  C   UNL     1       1.750   6.358  20.650  0.00  0.00    +0.000 A 
ATOM     12  C   UNL     1       2.462   5.410  19.853  0.00  0.00    +0.000 A 
ATOM     13  C   UNL     1       2.964   5.963  18.690  0.00  0.00    +0.000 A 
ATOM     14  S   UNL     1       2.571   7.629  18.585  0.00  0.00    +0.000 S 
BRANCH  10  16
ATOM     15  C   UNL     1      -0.047   8.540  21.566  0.00  0.00    +0.000 C 
ATOM     16  C   UNL     1       1.062   8.856  20.573  0.00  0.00    +0.000 C 
ENDBRANCH  10  16
ENDBRANCH   1  13
TORSDOF 2
ENDMDL
MODEL 8
REMARK VINA RESULT:      -5.8      2.075      2.114
REMARK  Name = 
REMARK  3 active torsions:
REMARK  status: ('A' for Active; 'I' for Inactive)
REMARK    1  A    between atoms: C_1  and  C_2
REMARK    2  A    between atoms: C_2  and  C_3
REMARK    3  A    between atoms: C_6  and  C_7
REMARK                            x       y       z     vdW  Elec       q    Type
REMARK                         _______ _______ _______ _____ _____    ______ ____
ROOT
ATOM      1  C   UNL     1       4.918   3.972  18.246  0.00  0.00    +0.000 C 
ATOM      2  O   UNL     1       5.397   3.786  19.358  0.00  0.00    +0.000 OA
ATOM      3  N   UNL     1       3.593   3.784  17.918  0.00  0.00    +0.000 N 
ATOM      4  C   UNL     1       2.573   3.416  18.750  0.00  0.00    +0.000 A 
ATOM      5  N   UNL     1       1.386   3.079  18.294  0.00  0.00    +0.000 NA
ATOM      6  N   UNL     1       0.515   2.736  19.310  0.00  0.00    +0.000 NA
ATOM      7  C   UNL     1       1.076   2.874  20.492  0.00  0.00    +0.000 A 
ATOM      8  S   UNL     1       2.699   3.418  20.450  0.00  0.00    +0.000 S 
ATOM      9  H   UNL     1       3.333   3.843  16.943  0.00  0.00    +0.000 HD
ENDROOT
BRANCH   1  13
ATOM     10  C   UNL     1       6.796   4.742  14.900  0.00  0.00    +0.000 A 
ATOM     11  C   UNL     1       7.382   5.521  15.875  0.00  0.00    +0.000 A 
ATOM     12  C   UNL     1       6.778   5.325  17.154  0.00  0.00    +0.000 A 
ATOM     13  C   UNL     1       5.755   4.396  17.124  0.00  0.00    +0.000 A 
ATOM     14  S   UNL     1       5.547   3.767  15.542  0.00  0.00    +0.000 S 
BRANCH  10  16
ATOM     15  C   UNL     1       6.282   3.629  12.723  0.00  0.00    +0.000 C 
ATOM     16  C   UNL     1       7.126   4.673  13.439  0.00  0.00    +0.000 C 
ENDBRANCH  10  16
ENDBRANCH   1  13
TORSDOF 2
ENDMDL
MODEL 9
REMARK VINA RESULT:      -5.7      3.077      6.730
REMARK  Name = 
REMARK  3 active torsions:
REMARK  status: ('A' for Active; 'I' for Inactive)
REMARK    1  A    between atoms: C_1  and  C_2
REMARK    2  A    between atoms: C_2  and  C_3
REMARK    3  A    between atoms: C_6  and  C_7
REMARK                            x       y       z     vdW  Elec       q    Type
REMARK                         _______ _______ _______ _____ _____    ______ ____
ROOT
ATOM      1  C   UNL     1       4.649   4.776  16.811  0.00  0.00    +0.000 C 
ATOM      2  O   UNL     1       5.363   5.704  17.174  0.00  0.00    +0.000 OA
ATOM      3  N   UNL     1       4.784   4.100  15.619  0.00  0.00    +0.000 N 
ATOM      4  C   UNL     1       5.740   4.285  14.659  0.00  0.00    +0.000 A 
ATOM      5  N   UNL     1       5.660   3.717  13.475  0.00  0.00    +0.000 NA
ATOM      6  N   UNL     1       6.727   4.050  12.664  0.00  0.00    +0.000 NA
ATOM      7  C   UNL     1       7.587   4.822  13.293  0.00  0.00    +0.000 A 
ATOM      8  S   UNL     1       7.154   5.204  14.905  0.00  0.00    +0.000 S 
ATOM      9  H   UNL     1       4.063   3.438  15.365  0.00  0.00    +0.000 HD
ENDROOT
BRANCH   1  13
ATOM     10  C   UNL     1       1.908   3.893  19.461  0.00  0.00    +0.000 A 
ATOM     11  C   UNL     1       1.541   3.274  18.285  0.00  0.00    +0.000 A 
ATOM     12  C   UNL     1       2.474   3.523  17.232  0.00  0.00    +0.000 A 
ATOM     13  C   UNL     1       3.532   4.316  17.635  0.00  0.00    +0.000 A 
ATOM     14  S   UNL     1       3.382   4.741  19.290  0.00  0.00    +0.000 S 
BRANCH  10  16
ATOM     15  C   UNL     1       1.577   2.687  21.623  0.00  0.00    +0.000 C 
ATOM     16  C   UNL     1       1.191   3.892  20.778  0.00  0.00    +0.000 C 
ENDBRANCH  10  16
ENDBRANCH   1  13
TORSDOF 2
ENDMDL
