MODEL 1
REMARK VINA RESULT:      -7.2      0.000      0.000
REMARK  Name = 
REMARK  10 active torsions:
REMARK  status: ('A' for Active; 'I' for Inactive)
REMARK    1  A    between atoms: C_1  and  O_2
REMARK    2  A    between atoms: O_2  and  C_3
REMARK    3  A    between atoms: C_9  and  N_10
REMARK    4  A    between atoms: C_15  and  N_16
REMARK    5  A    between atoms: N_16  and  C_17
REMARK    6  A    between atoms: C_17  and  C_18
REMARK    7  A    between atoms: C_18  and  N_19
REMARK    8  A    between atoms: N_19  and  C_20
REMARK    9  A    between atoms: N_19  and  C_21
REMARK   10  A    between atoms: C_23  and  N_24
REMARK                            x       y       z     vdW  Elec       q    Type
REMARK                         _______ _______ _______ _____ _____    ______ ____
ROOT
ATOM      1  C   UNL     1       1.048   9.761  19.874  0.00  0.00    +0.000 A 
ATOM      2  C   UNL     1       0.501   9.118  20.972  0.00  0.00    +0.000 A 
ATOM      3  C   UNL     1       0.774   7.763  21.181  0.00  0.00    +0.000 A 
ATOM      4  C   UNL     1       1.582   7.032  20.313  0.00  0.00    +0.000 A 
ATOM      5  N   UNL     1       1.807   5.746  20.577  0.00  0.00    +0.000 NA
ATOM      6  C   UNL     1       2.556   4.974  19.761  0.00  0.00    +0.000 A 
ATOM      7  C   UNL     1       2.696   3.621  20.077  0.00  0.00    +0.000 A 
ATOM      8  C   UNL     1       3.465   2.721  19.348  0.00  0.00    +0.000 A 
ATOM      9  C   UNL     1       4.132   3.180  18.234  0.00  0.00    +0.000 A 
ATOM     10  C   UNL     1       4.027   4.522  17.809  0.00  0.00    +0.000 A 
ATOM     11  C   UNL     1       3.223   5.464  18.605  0.00  0.00    +0.000 A 
ATOM     12  C   UNL     1       2.974   6.863  18.342  0.00  0.00    +0.000 A 
ATOM     13  C   UNL     1       2.147   7.658  19.202  0.00  0.00    +0.000 A 
ATOM     14  C   UNL     1       1.882   9.039  19.021  0.00  0.00    +0.000 A 
ENDROOT
BRANCH   7  15
ATOM     15  N   UNL     1       2.014   3.084  21.234  0.00  0.00    +0.000 N 
ATOM     16  O   UNL     1       0.822   2.764  21.108  0.00  0.00    +0.000 OA
ATOM     17  O   UNL     1       2.715   2.857  22.233  0.00  0.00    +0.000 OA
ENDBRANCH   7  15
BRANCH  12  18
ATOM     18  N   UNL     1       3.477   7.453  17.160  0.00  0.00    +0.000 N 
ATOM     19  H   UNL     1       4.045   8.274  17.319  0.00  0.00    +0.000 HD
ATOM     20  H   UNL     1       2.887   7.503  16.346  0.00  0.00    +0.000 HD
ENDBRANCH  12  18
BRANCH   1  22
ATOM     21  C   UNL     1       0.776  11.859  20.915  0.00  0.00    +0.000 C 
ATOM     22  O   UNL     1       0.744  11.085  19.717  0.00  0.00    +0.000 OA
ENDBRANCH   1  22
BRANCH  10  23
ATOM     23  N   UNL     1       4.735   4.925  16.629  0.00  0.00    +0.000 N 
ATOM     24  H   UNL     1       4.842   5.937  16.606  0.00  0.00    +0.000 HD
BRANCH  23  25
ATOM     25  C   UNL     1       6.038   4.270  16.374  0.00  0.00    +0.000 C 
BRANCH  25  26
ATOM     26  C   UNL     1       7.262   4.926  17.052  0.00  0.00    +0.000 C 
BRANCH  26  27
ATOM     27  N   UNL     1       7.028   5.982  18.064  0.00  0.00    +0.000 NA
ATOM     28  C   UNL     1       7.780   5.752  19.300  0.00  0.00    +0.000 C 
ATOM     29  C   UNL     1       7.442   7.278  17.497  0.00  0.00    +0.000 C 
ENDBRANCH  26  27
ENDBRANCH  25  26
ENDBRANCH  23  25
ENDBRANCH  10  23
TORSDOF 7
ENDMDL
MODEL 2
REMARK VINA RESULT:      -6.8      0.590      1.068
REMARK  Name = 
REMARK  10 active torsions:
REMARK  status: ('A' for Active; 'I' for Inactive)
REMARK    1  A    between atoms: C_1  and  O_2
REMARK    2  A    between atoms: O_2  and  C_3
REMARK    3  A    between atoms: C_9  and  N_10
REMARK    4  A    between atoms: C_15  and  N_16
REMARK    5  A    between atoms: N_16  and  C_17
REMARK    6  A    between atoms: C_17  and  C_18
REMARK    7  A    between atoms: C_18  and  N_19
REMARK    8  A    between atoms: N_19  and  C_20
REMARK    9  A    between atoms: N_19  and  C_21
REMARK   10  A    between atoms: C_23  and  N_24
REMARK                            x       y       z     vdW  Elec       q    Type
REMARK                         _______ _______ _______ _____ _____    ______ ____
ROOT
ATOM      1  C   UNL     1       1.256   9.513  19.991  0.00  0.00    +0.000 A 
ATOM      2  C   UNL     1       0.760   8.838  21.094  0.00  0.00    +0.000 A 
ATOM      3  C   UNL     1       1.014   7.471  21.236  0.00  0.00    +0.000 A 
ATOM      4  C   UNL     1       1.753   6.759  20.293  0.00  0.00    +0.000 A 
ATOM      5  N   UNL     1       1.965   5.460  20.495  0.00  0.00    +0.000 NA
ATOM      6  C   UNL     1       2.647   4.705  19.607  0.00  0.00    +0.000 A 
ATOM      7  C   UNL     1       2.775   3.338  19.862  0.00  0.00    +0.000 A 
ATOM      8  C   UNL     1       3.480   2.453  19.056  0.00  0.00    +0.000 A 
ATOM      9  C   UNL     1       4.090   2.941  17.922  0.00  0.00    +0.000 A 
ATOM     10  C   UNL     1       3.991   4.301  17.556  0.00  0.00    +0.000 A 
ATOM     11  C   UNL     1       3.256   5.227  18.433  0.00  0.00    +0.000 A 
ATOM     12  C   UNL     1       3.023   6.640  18.239  0.00  0.00    +0.000 A 
ATOM     13  C   UNL     1       2.266   7.417  19.176  0.00  0.00    +0.000 A 
ATOM     14  C   UNL     1       2.022   8.809  19.063  0.00  0.00    +0.000 A 
ENDROOT
BRANCH   7  15
ATOM     15  N   UNL     1       2.150   2.770  21.037  0.00  0.00    +0.000 N 
ATOM     16  O   UNL     1       2.868   2.543  22.023  0.00  0.00    +0.000 OA
ATOM     17  O   UNL     1       0.914   2.676  21.014  0.00  0.00    +0.000 OA
ENDBRANCH   7  15
BRANCH  12  18
ATOM     18  N   UNL     1       3.470   7.265  17.052  0.00  0.00    +0.000 N 
ATOM     19  H   UNL     1       2.868   7.109  16.254  0.00  0.00    +0.000 HD
ATOM     20  H   UNL     1       4.454   7.271  16.839  0.00  0.00    +0.000 HD
ENDBRANCH  12  18
BRANCH   1  22
ATOM     21  C   UNL     1       0.185  11.227  18.776  0.00  0.00    +0.000 C 
ATOM     22  O   UNL     1       0.973  10.848  19.903  0.00  0.00    +0.000 OA
ENDBRANCH   1  22
BRANCH  10  23
ATOM     23  N   UNL     1       4.638   4.735  16.352  0.00  0.00    +0.000 N 
ATOM     24  H   UNL     1       4.439   5.718  16.176  0.00  0.00    +0.000 HD
BRANCH  23  25
ATOM     25  C   UNL     1       6.093   4.483  16.245  0.00  0.00    +0.000 C 
BRANCH  25  26
ATOM     26  C   UNL     1       6.885   4.560  17.570  0.00  0.00    +0.000 C 
BRANCH  26  27
ATOM     27  N   UNL     1       7.713   5.759  17.830  0.00  0.00    +0.000 NA
ATOM     28  C   UNL     1       7.099   6.988  17.321  0.00  0.00    +0.000 C 
ATOM     29  C   UNL     1       7.899   5.896  19.286  0.00  0.00    +0.000 C 
ENDBRANCH  26  27
ENDBRANCH  25  26
ENDBRANCH  23  25
ENDBRANCH  10  23
TORSDOF 7
ENDMDL
MODEL 3
REMARK VINA RESULT:      -6.8      2.718      6.520
REMARK  Name = 
REMARK  10 active torsions:
REMARK  status: ('A' for Active; 'I' for Inactive)
REMARK    1  A    between atoms: C_1  and  O_2
REMARK    2  A    between atoms: O_2  and  C_3
REMARK    3  A    between atoms: C_9  and  N_10
REMARK    4  A    between atoms: C_15  and  N_16
REMARK    5  A    between atoms: N_16  and  C_17
REMARK    6  A    between atoms: C_17  and  C_18
REMARK    7  A    between atoms: C_18  and  N_19
REMARK    8  A    between atoms: N_19  and  C_20
REMARK    9  A    between atoms: N_19  and  C_21
REMARK   10  A    between atoms: C_23  and  N_24
REMARK                            x       y       z     vdW  Elec       q    Type
REMARK                         _______ _______ _______ _____ _____    ______ ____
ROOT
ATOM      1  C   UNL     1       6.315   5.096  14.933  0.00  0.00    +0.000 A 
ATOM      2  C   UNL     1       6.317   3.760  15.297  0.00  0.00    +0.000 A 
ATOM      3  C   UNL     1       5.540   3.340  16.380  0.00  0.00    +0.000 A 
ATOM      4  C   UNL     1       4.760   4.230  17.115  0.00  0.00    +0.000 A 
ATOM      5  N   UNL     1       4.037   3.761  18.130  0.00  0.00    +0.000 NA
ATOM      6  C   UNL     1       3.282   4.575  18.900  0.00  0.00    +0.000 A 
ATOM      7  C   UNL     1       2.600   4.015  19.981  0.00  0.00    +0.000 A 
ATOM      8  C   UNL     1       1.761   4.724  20.832  0.00  0.00    +0.000 A 
ATOM      9  C   UNL     1       1.588   6.073  20.609  0.00  0.00    +0.000 A 
ATOM     10  C   UNL     1       2.261   6.741  19.564  0.00  0.00    +0.000 A 
ATOM     11  C   UNL     1       3.131   5.968  18.662  0.00  0.00    +0.000 A 
ATOM     12  C   UNL     1       3.915   6.455  17.550  0.00  0.00    +0.000 A 
ATOM     13  C   UNL     1       4.737   5.580  16.766  0.00  0.00    +0.000 A 
ATOM     14  C   UNL     1       5.510   5.983  15.647  0.00  0.00    +0.000 A 
ENDROOT
BRANCH   7  15
ATOM     15  N   UNL     1       2.748   2.604  20.265  0.00  0.00    +0.000 N 
ATOM     16  O   UNL     1       3.668   2.258  21.022  0.00  0.00    +0.000 OA
ATOM     17  O   UNL     1       1.856   1.857  19.835  0.00  0.00    +0.000 OA
ENDBRANCH   7  15
BRANCH  12  18
ATOM     18  N   UNL     1       3.953   7.841  17.274  0.00  0.00    +0.000 N 
ATOM     19  H   UNL     1       3.661   8.422  18.049  0.00  0.00    +0.000 HD
ATOM     20  H   UNL     1       3.660   8.171  16.370  0.00  0.00    +0.000 HD
ENDBRANCH  12  18
BRANCH   1  22
ATOM     21  C   UNL     1       7.121   4.508  12.796  0.00  0.00    +0.000 C 
ATOM     22  O   UNL     1       7.096   5.449  13.868  0.00  0.00    +0.000 OA
ENDBRANCH   1  22
BRANCH  10  23
ATOM     23  N   UNL     1       2.047   8.150  19.402  0.00  0.00    +0.000 N 
ATOM     24  H   UNL     1       1.754   8.358  18.450  0.00  0.00    +0.000 HD
BRANCH  23  25
ATOM     25  C   UNL     1       1.138   8.805  20.369  0.00  0.00    +0.000 C 
BRANCH  25  26
ATOM     26  C   UNL     1       0.639  10.213  19.972  0.00  0.00    +0.000 C 
BRANCH  26  27
ATOM     27  N   UNL     1      -0.797  10.392  19.657  0.00  0.00    +0.000 NA
ATOM     28  C   UNL     1      -1.319  11.679  20.124  0.00  0.00    +0.000 C 
ATOM     29  C   UNL     1      -0.971  10.318  18.195  0.00  0.00    +0.000 C 
ENDBRANCH  26  27
ENDBRANCH  25  26
ENDBRANCH  23  25
ENDBRANCH  10  23
TORSDOF 7
ENDMDL
MODEL 4
REMARK VINA RESULT:      -6.7      2.690      4.627
REMARK  Name = 
REMARK  10 active torsions:
REMARK  status: ('A' for Active; 'I' for Inactive)
REMARK    1  A    between atoms: C_1  and  O_2
REMARK    2  A    between atoms: O_2  and  C_3
REMARK    3  A    between atoms: C_9  and  N_10
REMARK    4  A    between atoms: C_15  and  N_16
REMARK    5  A    between atoms: N_16  and  C_17
REMARK    6  A    between atoms: C_17  and  C_18
REMARK    7  A    between atoms: C_18  and  N_19
REMARK    8  A    between atoms: N_19  and  C_20
REMARK    9  A    between atoms: N_19  and  C_21
REMARK   10  A    between atoms: C_23  and  N_24
REMARK                            x       y       z     vdW  Elec       q    Type
REMARK                         _______ _______ _______ _____ _____    ______ ____
ROOT
ATOM      1  C   UNL     1       0.539   9.941  19.447  0.00  0.00    +0.000 A 
ATOM      2  C   UNL     1       1.199  10.429  18.331  0.00  0.00    +0.000 A 
ATOM      3  C   UNL     1       2.214   9.668  17.744  0.00  0.00    +0.000 A 
ATOM      4  C   UNL     1       2.590   8.426  18.252  0.00  0.00    +0.000 A 
ATOM      5  N   UNL     1       3.559   7.751  17.638  0.00  0.00    +0.000 NA
ATOM      6  C   UNL     1       3.991   6.555  18.095  0.00  0.00    +0.000 A 
ATOM      7  C   UNL     1       5.052   5.938  17.430  0.00  0.00    +0.000 A 
ATOM      8  C   UNL     1       5.572   4.695  17.768  0.00  0.00    +0.000 A 
ATOM      9  C   UNL     1       5.018   4.019  18.833  0.00  0.00    +0.000 A 
ATOM     10  C   UNL     1       3.965   4.573  19.593  0.00  0.00    +0.000 A 
ATOM     11  C   UNL     1       3.416   5.882  19.207  0.00  0.00    +0.000 A 
ATOM     12  C   UNL     1       2.358   6.628  19.852  0.00  0.00    +0.000 A 
ATOM     13  C   UNL     1       1.938   7.911  19.372  0.00  0.00    +0.000 A 
ATOM     14  C   UNL     1       0.892   8.684  19.937  0.00  0.00    +0.000 A 
ENDROOT
BRANCH   7  15
ATOM     15  N   UNL     1       5.675   6.604  16.307  0.00  0.00    +0.000 N 
ATOM     16  O   UNL     1       6.679   7.299  16.529  0.00  0.00    +0.000 OA
ATOM     17  O   UNL     1       5.236   6.321  15.182  0.00  0.00    +0.000 OA
ENDBRANCH   7  15
BRANCH  12  18
ATOM     18  N   UNL     1       1.779   6.131  21.042  0.00  0.00    +0.000 N 
ATOM     19  H   UNL     1       2.420   6.080  21.821  0.00  0.00    +0.000 HD
ATOM     20  H   UNL     1       1.123   5.369  20.989  0.00  0.00    +0.000 HD
ENDBRANCH  12  18
BRANCH   1  22
ATOM     21  C   UNL     1       0.019  11.777  20.833  0.00  0.00    +0.000 C 
ATOM     22  O   UNL     1      -0.442  10.729  19.980  0.00  0.00    +0.000 OA
ENDBRANCH   1  22
BRANCH  10  23
ATOM     23  N   UNL     1       3.450   3.819  20.699  0.00  0.00    +0.000 N 
ATOM     24  H   UNL     1       2.893   4.416  21.307  0.00  0.00    +0.000 HD
BRANCH  23  25
ATOM     25  C   UNL     1       2.702   2.583  20.377  0.00  0.00    +0.000 C 
BRANCH  25  26
ATOM     26  C   UNL     1       1.328   2.788  19.700  0.00  0.00    +0.000 C 
BRANCH  26  27
ATOM     27  N   UNL     1       1.240   2.665  18.227  0.00  0.00    +0.000 NA
ATOM     28  C   UNL     1       1.211   3.966  17.555  0.00  0.00    +0.000 C 
ATOM     29  C   UNL     1       2.415   1.915  17.746  0.00  0.00    +0.000 C 
ENDBRANCH  26  27
ENDBRANCH  25  26
ENDBRANCH  23  25
ENDBRANCH  10  23
TORSDOF 7
ENDMDL
MODEL 5
REMARK VINA RESULT:      -6.7      2.669      6.445
REMARK  Name = 
REMARK  10 active torsions:
REMARK  status: ('A' for Active; 'I' for Inactive)
REMARK    1  A    between atoms: C_1  and  O_2
REMARK    2  A    between atoms: O_2  and  C_3
REMARK    3  A    between atoms: C_9  and  N_10
REMARK    4  A    between atoms: C_15  and  N_16
REMARK    5  A    between atoms: N_16  and  C_17
REMARK    6  A    between atoms: C_17  and  C_18
REMARK    7  A    between atoms: C_18  and  N_19
REMARK    8  A    between atoms: N_19  and  C_20
REMARK    9  A    between atoms: N_19  and  C_21
REMARK   10  A    between atoms: C_23  and  N_24
REMARK                            x       y       z     vdW  Elec       q    Type
REMARK                         _______ _______ _______ _____ _____    ______ ____
ROOT
ATOM      1  C   UNL     1       6.080   5.254  14.999  0.00  0.00    +0.000 A 
ATOM      2  C   UNL     1       6.094   3.899  15.286  0.00  0.00    +0.000 A 
ATOM      3  C   UNL     1       5.348   3.415  16.365  0.00  0.00    +0.000 A 
ATOM      4  C   UNL     1       4.588   4.260  17.170  0.00  0.00    +0.000 A 
ATOM      5  N   UNL     1       3.894   3.732  18.176  0.00  0.00    +0.000 NA
ATOM      6  C   UNL     1       3.160   4.498  19.012  0.00  0.00    +0.000 A 
ATOM      7  C   UNL     1       2.509   3.875  20.079  0.00  0.00    +0.000 A 
ATOM      8  C   UNL     1       1.693   4.532  20.992  0.00  0.00    +0.000 A 
ATOM      9  C   UNL     1       1.512   5.890  20.851  0.00  0.00    +0.000 A 
ATOM     10  C   UNL     1       2.155   6.619  19.827  0.00  0.00    +0.000 A 
ATOM     11  C   UNL     1       3.000   5.902  18.859  0.00  0.00    +0.000 A 
ATOM     12  C   UNL     1       3.752   6.453  17.755  0.00  0.00    +0.000 A 
ATOM     13  C   UNL     1       4.553   5.628  16.899  0.00  0.00    +0.000 A 
ATOM     14  C   UNL     1       5.294   6.096  15.784  0.00  0.00    +0.000 A 
ENDROOT
BRANCH   7  15
ATOM     15  N   UNL     1       2.667   2.450  20.277  0.00  0.00    +0.000 N 
ATOM     16  O   UNL     1       1.920   1.690  19.643  0.00  0.00    +0.000 OA
ATOM     17  O   UNL     1       3.632   2.092  20.970  0.00  0.00    +0.000 OA
ENDBRANCH   7  15
BRANCH  12  18
ATOM     18  N   UNL     1       3.780   7.853  17.558  0.00  0.00    +0.000 N 
ATOM     19  H   UNL     1       3.108   8.360  18.118  0.00  0.00    +0.000 HD
ATOM     20  H   UNL     1       3.910   8.217  16.629  0.00  0.00    +0.000 HD
ENDBRANCH  12  18
BRANCH   1  22
ATOM     21  C   UNL     1       7.307   4.627  13.085  0.00  0.00    +0.000 C 
ATOM     22  O   UNL     1       6.831   5.669  13.935  0.00  0.00    +0.000 OA
ENDBRANCH   1  22
BRANCH  10  23
ATOM     23  N   UNL     1       1.934   8.035  19.752  0.00  0.00    +0.000 N 
ATOM     24  H   UNL     1       1.671   8.304  18.807  0.00  0.00    +0.000 HD
BRANCH  23  25
ATOM     25  C   UNL     1       0.988   8.618  20.730  0.00  0.00    +0.000 C 
BRANCH  25  26
ATOM     26  C   UNL     1       1.090  10.147  20.931  0.00  0.00    +0.000 C 
BRANCH  26  27
ATOM     27  N   UNL     1       0.390  10.757  22.084  0.00  0.00    +0.000 NA
ATOM     28  C   UNL     1      -0.729  11.610  21.675  0.00  0.00    +0.000 C 
ATOM     29  C   UNL     1      -0.133   9.678  22.942  0.00  0.00    +0.000 C 
ENDBRANCH  26  27
ENDBRANCH  25  26
ENDBRANCH  23  25
ENDBRANCH  10  23
TORSDOF 7
ENDMDL
MODEL 6
REMARK VINA RESULT:      -6.7      1.229      1.956
REMARK  Name = 
REMARK  10 active torsions:
REMARK  status: ('A' for Active; 'I' for Inactive)
REMARK    1  A    between atoms: C_1  and  O_2
REMARK    2  A    between atoms: O_2  and  C_3
REMARK    3  A    between atoms: C_9  and  N_10
REMARK    4  A    between atoms: C_15  and  N_16
REMARK    5  A    between atoms: N_16  and  C_17
REMARK    6  A    between atoms: C_17  and  C_18
REMARK    7  A    between atoms: C_18  and  N_19
REMARK    8  A    between atoms: N_19  and  C_20
REMARK    9  A    between atoms: N_19  and  C_21
REMARK   10  A    between atoms: C_23  and  N_24
REMARK                            x       y       z     vdW  Elec       q    Type
REMARK                         _______ _______ _______ _____ _____    ______ ____
ROOT
ATOM      1  C   UNL     1       1.060   9.718  19.897  0.00  0.00    +0.000 A 
ATOM      2  C   UNL     1       0.486   9.057  20.970  0.00  0.00    +0.000 A 
ATOM      3  C   UNL     1       0.762   7.701  21.170  0.00  0.00    +0.000 A 
ATOM      4  C   UNL     1       1.600   6.987  20.316  0.00  0.00    +0.000 A 
ATOM      5  N   UNL     1       1.827   5.700  20.571  0.00  0.00    +0.000 NA
ATOM      6  C   UNL     1       2.606   4.944  19.767  0.00  0.00    +0.000 A 
ATOM      7  C   UNL     1       2.747   3.588  20.070  0.00  0.00    +0.000 A 
ATOM      8  C   UNL     1       3.543   2.703  19.353  0.00  0.00    +0.000 A 
ATOM      9  C   UNL     1       4.240   3.181  18.265  0.00  0.00    +0.000 A 
ATOM     10  C   UNL     1       4.137   4.528  17.855  0.00  0.00    +0.000 A 
ATOM     11  C   UNL     1       3.303   5.453  18.638  0.00  0.00    +0.000 A 
ATOM     12  C   UNL     1       3.052   6.855  18.386  0.00  0.00    +0.000 A 
ATOM     13  C   UNL     1       2.194   7.632  19.232  0.00  0.00    +0.000 A 
ATOM     14  C   UNL     1       1.925   9.014  19.060  0.00  0.00    +0.000 A 
ENDROOT
BRANCH   7  15
ATOM     15  N   UNL     1       2.035   3.031  21.199  0.00  0.00    +0.000 N 
ATOM     16  O   UNL     1       2.643   2.929  22.275  0.00  0.00    +0.000 OA
ATOM     17  O   UNL     1       0.823   2.820  21.039  0.00  0.00    +0.000 OA
ENDBRANCH   7  15
BRANCH  12  18
ATOM     18  N   UNL     1       3.586   7.463  17.227  0.00  0.00    +0.000 N 
ATOM     19  H   UNL     1       4.057   6.819  16.605  0.00  0.00    +0.000 HD
ATOM     20  H   UNL     1       4.022   8.366  17.303  0.00  0.00    +0.000 HD
ENDBRANCH  12  18
BRANCH   1  22
ATOM     21  C   UNL     1      -0.561  11.409  20.171  0.00  0.00    +0.000 C 
ATOM     22  O   UNL     1       0.752  11.042  19.749  0.00  0.00    +0.000 OA
ENDBRANCH   1  22
BRANCH  10  23
ATOM     23  N   UNL     1       4.878   4.951  16.702  0.00  0.00    +0.000 N 
ATOM     24  H   UNL     1       5.105   5.941  16.768  0.00  0.00    +0.000 HD
BRANCH  23  25
ATOM     25  C   UNL     1       6.090   4.173  16.361  0.00  0.00    +0.000 C 
BRANCH  25  26
ATOM     26  C   UNL     1       7.105   4.884  15.438  0.00  0.00    +0.000 C 
BRANCH  26  27
ATOM     27  N   UNL     1       6.755   5.069  14.011  0.00  0.00    +0.000 NA
ATOM     28  C   UNL     1       7.930   5.320  13.172  0.00  0.00    +0.000 C 
ATOM     29  C   UNL     1       6.087   3.847  13.529  0.00  0.00    +0.000 C 
ENDBRANCH  26  27
ENDBRANCH  25  26
ENDBRANCH  23  25
ENDBRANCH  10  23
TORSDOF 7
ENDMDL
MODEL 7
REMARK VINA RESULT:      -6.6      1.161      1.692
REMARK  Name = 
REMARK  10 active torsions:
REMARK  status: ('A' for Active; 'I' for Inactive)
REMARK    1  A    between atoms: C_1  and  O_2
REMARK    2  A    between atoms: O_2  and  C_3
REMARK    3  A    between atoms: C_9  and  N_10
REMARK    4  A    between atoms: C_15  and  N_16
REMARK    5  A    between atoms: N_16  and  C_17
REMARK    6  A    between atoms: C_17  and  C_18
REMARK    7  A    between atoms: C_18  and  N_19
REMARK    8  A    between atoms: N_19  and  C_20
REMARK    9  A    between atoms: N_19  and  C_21
REMARK   10  A    between atoms: C_23  and  N_24
REMARK                            x       y       z     vdW  Elec       q    Type
REMARK                         _______ _______ _______ _____ _____    ______ ____
ROOT
ATOM      1  C   UNL     1       0.209  10.147  20.906  0.00  0.00    +0.000 A 
ATOM      2  C   UNL     1      -0.236   9.278  21.888  0.00  0.00    +0.000 A 
ATOM      3  C   UNL     1       0.189   7.946  21.872  0.00  0.00    +0.000 A 
ATOM      4  C   UNL     1       1.049   7.460  20.890  0.00  0.00    +0.000 A 
ATOM      5  N   UNL     1       1.420   6.182  20.939  0.00  0.00    +0.000 NA
ATOM      6  C   UNL     1       2.228   5.640  20.002  0.00  0.00    +0.000 A 
ATOM      7  C   UNL     1       2.523   4.279  20.092  0.00  0.00    +0.000 A 
ATOM      8  C   UNL     1       3.366   3.600  19.221  0.00  0.00    +0.000 A 
ATOM      9  C   UNL     1       3.950   4.304  18.191  0.00  0.00    +0.000 A 
ATOM     10  C   UNL     1       3.688   5.677  17.992  0.00  0.00    +0.000 A 
ATOM     11  C   UNL     1       2.807   6.382  18.936  0.00  0.00    +0.000 A 
ATOM     12  C   UNL     1       2.399   7.769  18.907  0.00  0.00    +0.000 A 
ATOM     13  C   UNL     1       1.513   8.317  19.892  0.00  0.00    +0.000 A 
ATOM     14  C   UNL     1       1.095   9.671  19.940  0.00  0.00    +0.000 A 
ENDROOT
BRANCH   7  15
ATOM     15  N   UNL     1       1.934   3.489  21.152  0.00  0.00    +0.000 N 
ATOM     16  O   UNL     1       2.477   3.518  22.267  0.00  0.00    +0.000 OA
ATOM     17  O   UNL     1       0.848   2.946  20.898  0.00  0.00    +0.000 OA
ENDBRANCH   7  15
BRANCH  12  18
ATOM     18  N   UNL     1       2.805   8.593  17.833  0.00  0.00    +0.000 N 
ATOM     19  H   UNL     1       2.768   8.140  16.930  0.00  0.00    +0.000 HD
ATOM     20  H   UNL     1       3.586   9.215  17.958  0.00  0.00    +0.000 HD
ENDBRANCH  12  18
BRANCH   1  22
ATOM     21  C   UNL     1      -1.217  11.688  21.980  0.00  0.00    +0.000 C 
ATOM     22  O   UNL     1      -0.242  11.436  20.970  0.00  0.00    +0.000 OA
ENDBRANCH   1  22
BRANCH  10  23
ATOM     23  N   UNL     1       4.318   6.341  16.887  0.00  0.00    +0.000 N 
ATOM     24  H   UNL     1       3.788   7.169  16.622  0.00  0.00    +0.000 HD
BRANCH  23  25
ATOM     25  C   UNL     1       5.751   6.679  17.038  0.00  0.00    +0.000 C 
BRANCH  25  26
ATOM     26  C   UNL     1       6.683   6.151  15.924  0.00  0.00    +0.000 C 
BRANCH  26  27
ATOM     27  N   UNL     1       7.343   4.840  16.116  0.00  0.00    +0.000 NA
ATOM     28  C   UNL     1       7.589   4.537  17.529  0.00  0.00    +0.000 C 
ATOM     29  C   UNL     1       6.475   3.789  15.556  0.00  0.00    +0.000 C 
ENDBRANCH  26  27
ENDBRANCH  25  26
ENDBRANCH  23  25
ENDBRANCH  10  23
TORSDOF 7
ENDMDL
MODEL 8
REMARK VINA RESULT:      -6.5      1.503      2.331
REMARK  Name = 
REMARK  10 active torsions:
REMARK  status: ('A' for Active; 'I' for Inactive)
REMARK    1  A    between atoms: C_1  and  O_2
REMARK    2  A    between atoms: O_2  and  C_3
REMARK    3  A    between atoms: C_9  and  N_10
REMARK    4  A    between atoms: C_15  and  N_16
REMARK    5  A    between atoms: N_16  and  C_17
REMARK    6  A    between atoms: C_17  and  C_18
REMARK    7  A    between atoms: C_18  and  N_19
REMARK    8  A    between atoms: N_19  and  C_20
REMARK    9  A    between atoms: N_19  and  C_21
REMARK   10  A    between atoms: C_23  and  N_24
REMARK                            x       y       z     vdW  Elec       q    Type
REMARK                         _______ _______ _______ _____ _____    ______ ____
ROOT
ATOM      1  C   UNL     1       1.107   9.638  19.866  0.00  0.00    +0.000 A 
ATOM      2  C   UNL     1       0.522   8.959  20.922  0.00  0.00    +0.000 A 
ATOM      3  C   UNL     1       0.811   7.605  21.113  0.00  0.00    +0.000 A 
ATOM      4  C   UNL     1       1.673   6.910  20.268  0.00  0.00    +0.000 A 
ATOM      5  N   UNL     1       1.911   5.623  20.513  0.00  0.00    +0.000 NA
ATOM      6  C   UNL     1       2.713   4.884  19.716  0.00  0.00    +0.000 A 
ATOM      7  C   UNL     1       2.865   3.527  20.008  0.00  0.00    +0.000 A 
ATOM      8  C   UNL     1       3.684   2.659  19.296  0.00  0.00    +0.000 A 
ATOM      9  C   UNL     1       4.394   3.157  18.225  0.00  0.00    +0.000 A 
ATOM     10  C   UNL     1       4.283   4.506  17.827  0.00  0.00    +0.000 A 
ATOM     11  C   UNL     1       3.424   5.414  18.605  0.00  0.00    +0.000 A 
ATOM     12  C   UNL     1       3.160   6.814  18.363  0.00  0.00    +0.000 A 
ATOM     13  C   UNL     1       2.278   7.573  19.200  0.00  0.00    +0.000 A 
ATOM     14  C   UNL     1       1.995   8.953  19.038  0.00  0.00    +0.000 A 
ENDROOT
BRANCH   7  15
ATOM     15  N   UNL     1       2.140   2.950  21.119  0.00  0.00    +0.000 N 
ATOM     16  O   UNL     1       0.935   2.701  20.958  0.00  0.00    +0.000 OA
ATOM     17  O   UNL     1       2.813   2.622  22.108  0.00  0.00    +0.000 OA
ENDBRANCH   7  15
BRANCH  12  18
ATOM     18  N   UNL     1       3.707   7.441  17.219  0.00  0.00    +0.000 N 
ATOM     19  H   UNL     1       4.173   8.316  17.414  0.00  0.00    +0.000 HD
ATOM     20  H   UNL     1       3.191   7.424  16.355  0.00  0.00    +0.000 HD
ENDBRANCH  12  18
BRANCH   1  22
ATOM     21  C   UNL     1       0.347  11.607  20.920  0.00  0.00    +0.000 C 
ATOM     22  O   UNL     1       0.785  10.960  19.726  0.00  0.00    +0.000 OA
ENDBRANCH   1  22
BRANCH  10  23
ATOM     23  N   UNL     1       5.038   4.950  16.692  0.00  0.00    +0.000 N 
ATOM     24  H   UNL     1       5.946   5.306  16.985  0.00  0.00    +0.000 HD
BRANCH  23  25
ATOM     25  C   UNL     1       5.205   3.987  15.580  0.00  0.00    +0.000 C 
BRANCH  25  26
ATOM     26  C   UNL     1       5.769   4.573  14.266  0.00  0.00    +0.000 C 
BRANCH  26  27
ATOM     27  N   UNL     1       6.120   3.641  13.169  0.00  0.00    +0.000 NA
ATOM     28  C   UNL     1       4.977   3.335  12.305  0.00  0.00    +0.000 C 
ATOM     29  C   UNL     1       7.178   4.256  12.348  0.00  0.00    +0.000 C 
ENDBRANCH  26  27
ENDBRANCH  25  26
ENDBRANCH  23  25
ENDBRANCH  10  23
TORSDOF 7
ENDMDL
MODEL 9
REMARK VINA RESULT:      -6.5      2.760      6.359
REMARK  Name = 
REMARK  10 active torsions:
REMARK  status: ('A' for Active; 'I' for Inactive)
REMARK    1  A    between atoms: C_1  and  O_2
REMARK    2  A    between atoms: O_2  and  C_3
REMARK    3  A    between atoms: C_9  and  N_10
REMARK    4  A    between atoms: C_15  and  N_16
REMARK    5  A    between atoms: N_16  and  C_17
REMARK    6  A    between atoms: C_17  and  C_18
REMARK    7  A    between atoms: C_18  and  N_19
REMARK    8  A    between atoms: N_19  and  C_20
REMARK    9  A    between atoms: N_19  and  C_21
REMARK   10  A    between atoms: C_23  and  N_24
REMARK                            x       y       z     vdW  Elec       q    Type
REMARK                         _______ _______ _______ _____ _____    ______ ____
ROOT
ATOM      1  C   UNL     1       6.449   5.135  15.155  0.00  0.00    +0.000 A 
ATOM      2  C   UNL     1       6.021   3.831  14.970  0.00  0.00    +0.000 A 
ATOM      3  C   UNL     1       4.982   3.329  15.759  0.00  0.00    +0.000 A 
ATOM      4  C   UNL     1       4.362   4.103  16.737  0.00  0.00    +0.000 A 
ATOM      5  N   UNL     1       3.373   3.564  17.448  0.00  0.00    +0.000 NA
ATOM      6  C   UNL     1       2.749   4.250  18.430  0.00  0.00    +0.000 A 
ATOM      7  C   UNL     1       1.762   3.594  19.169  0.00  0.00    +0.000 A 
ATOM      8  C   UNL     1       1.016   4.187  20.180  0.00  0.00    +0.000 A 
ATOM      9  C   UNL     1       1.262   5.507  20.490  0.00  0.00    +0.000 A 
ATOM     10  C   UNL     1       2.264   6.248  19.826  0.00  0.00    +0.000 A 
ATOM     11  C   UNL     1       3.030   5.607  18.745  0.00  0.00    +0.000 A 
ATOM     12  C   UNL     1       4.099   6.176  17.955  0.00  0.00    +0.000 A 
ATOM     13  C   UNL     1       4.772   5.420  16.940  0.00  0.00    +0.000 A 
ATOM     14  C   UNL     1       5.808   5.922  16.111  0.00  0.00    +0.000 A 
ENDROOT
BRANCH   7  15
ATOM     15  N   UNL     1       1.465   2.206  18.889  0.00  0.00    +0.000 N 
ATOM     16  O   UNL     1       2.276   1.351  19.275  0.00  0.00    +0.000 OA
ATOM     17  O   UNL     1       0.350   1.967  18.401  0.00  0.00    +0.000 OA
ENDBRANCH   7  15
BRANCH  12  18
ATOM     18  N   UNL     1       4.563   7.480  18.244  0.00  0.00    +0.000 N 
ATOM     19  H   UNL     1       4.041   7.951  18.971  0.00  0.00    +0.000 HD
ATOM     20  H   UNL     1       4.858   8.075  17.488  0.00  0.00    +0.000 HD
ENDBRANCH  12  18
BRANCH   1  22
ATOM     21  C   UNL     1       7.503   5.000  13.049  0.00  0.00    +0.000 C 
ATOM     22  O   UNL     1       7.470   5.571  14.357  0.00  0.00    +0.000 OA
ENDBRANCH   1  22
BRANCH  10  23
ATOM     23  N   UNL     1       2.476   7.612  20.214  0.00  0.00    +0.000 N 
ATOM     24  H   UNL     1       3.253   8.013  19.692  0.00  0.00    +0.000 HD
BRANCH  23  25
ATOM     25  C   UNL     1       1.305   8.515  20.157  0.00  0.00    +0.000 C 
BRANCH  25  26
ATOM     26  C   UNL     1       1.135   9.309  18.842  0.00  0.00    +0.000 C 
BRANCH  26  27
ATOM     27  N   UNL     1       0.330  10.552  18.866  0.00  0.00    +0.000 NA
ATOM     28  C   UNL     1      -0.952  10.404  18.172  0.00  0.00    +0.000 C 
ATOM     29  C   UNL     1       0.064  10.914  20.270  0.00  0.00    +0.000 C 
ENDBRANCH  26  27
ENDBRANCH  25  26
ENDBRANCH  23  25
ENDBRANCH  10  23
TORSDOF 7
ENDMDL
