MODEL 1
REMARK VINA RESULT:      -6.3      0.000      0.000
REMARK  Name = 
REMARK  5 active torsions:
REMARK  status: ('A' for Active; 'I' for Inactive)
REMARK    1  A    between atoms: C_1  and  C_2
REMARK    2  A    between atoms: C_2  and  N_3
REMARK    3  A    between atoms: N_3  and  C_4
REMARK    4  A    between atoms: C_4  and  C_5
REMARK    5  A    between atoms: C_8  and  C_10
REMARK                            x       y       z     vdW  Elec       q    Type
REMARK                         _______ _______ _______ _____ _____    ______ ____
ROOT
ATOM      1  N   UNL     1       6.044   5.298  17.254  0.00  0.00    +0.000 N 
ATOM      2  C   UNL     1       5.383   4.760  18.375  0.00  0.00    +0.000 C 
ATOM      3  O   UNL     1       5.921   4.748  19.484  0.00  0.00    +0.000 OA
ENDROOT
BRANCH   2   4
ATOM      4  C   UNL     1       4.022   4.139  18.238  0.00  0.00    +0.000 A 
ATOM      5  N   UNL     1       4.013   2.784  18.059  0.00  0.00    +0.000 NA
ATOM      6  C   UNL     1       2.809   2.175  17.974  0.00  0.00    +0.000 A 
ATOM      7  C   UNL     1       1.609   2.834  18.121  0.00  0.00    +0.000 A 
ATOM      8  C   UNL     1       1.629   4.213  18.318  0.00  0.00    +0.000 A 
ATOM      9  C   UNL     1       2.857   4.892  18.358  0.00  0.00    +0.000 A 
ATOM     10 BR   UNL     1       2.786   6.783  18.461  0.00  0.00    +0.000 Br
ENDBRANCH   2   4
BRANCH   1  12
ATOM     11  C   UNL     1       7.465   7.346  17.503  0.00  0.00    +0.000 C 
ATOM     12  C   UNL     1       7.394   5.826  17.472  0.00  0.00    +0.000 C 
ENDBRANCH   1  12
BRANCH   1  13
ATOM     13  C   UNL     1       5.413   5.528  15.936  0.00  0.00    +0.000 C 
BRANCH  13  14
ATOM     14  C   UNL     1       5.828   4.554  14.830  0.00  0.00    +0.000 C 
ATOM     15  F   UNL     1       6.950   4.960  14.193  0.00  0.00    +0.000 F 
ATOM     16  F   UNL     1       6.093   3.333  15.355  0.00  0.00    +0.000 F 
ENDBRANCH  13  14
ENDBRANCH   1  13
TORSDOF 4
ENDMDL
MODEL 2
REMARK VINA RESULT:      -6.1      0.947      1.110
REMARK  Name = 
REMARK  5 active torsions:
REMARK  status: ('A' for Active; 'I' for Inactive)
REMARK    1  A    between atoms: C_1  and  C_2
REMARK    2  A    between atoms: C_2  and  N_3
REMARK    3  A    between atoms: N_3  and  C_4
REMARK    4  A    between atoms: C_4  and  C_5
REMARK    5  A    between atoms: C_8  and  C_10
REMARK                            x       y       z     vdW  Elec       q    Type
REMARK                         _______ _______ _______ _____ _____    ______ ____
ROOT
ATOM      1  N   UNL     1       6.184   4.519  17.574  0.00  0.00    +0.000 N 
ATOM      2  C   UNL     1       5.241   4.638  18.614  0.00  0.00    +0.000 C 
ATOM      3  O   UNL     1       5.517   5.235  19.656  0.00  0.00    +0.000 OA
ENDROOT
BRANCH   2   4
ATOM      4  C   UNL     1       3.889   3.992  18.501  0.00  0.00    +0.000 A 
ATOM      5  N   UNL     1       3.885   2.627  18.571  0.00  0.00    +0.000 NA
ATOM      6  C   UNL     1       2.686   2.005  18.518  0.00  0.00    +0.000 A 
ATOM      7  C   UNL     1       1.483   2.671  18.460  0.00  0.00    +0.000 A 
ATOM      8  C   UNL     1       1.497   4.063  18.404  0.00  0.00    +0.000 A 
ATOM      9  C   UNL     1       2.723   4.747  18.402  0.00  0.00    +0.000 A 
ATOM     10 BR   UNL     1       2.656   6.625  18.152  0.00  0.00    +0.000 Br
ENDBRANCH   2   4
BRANCH   1  12
ATOM     11  C   UNL     1       7.509   6.644  17.660  0.00  0.00    +0.000 C 
ATOM     12  C   UNL     1       7.498   5.128  17.800  0.00  0.00    +0.000 C 
ENDBRANCH   1  12
BRANCH   1  13
ATOM     13  C   UNL     1       5.886   3.992  16.225  0.00  0.00    +0.000 C 
BRANCH  13  14
ATOM     14  C   UNL     1       5.505   5.043  15.178  0.00  0.00    +0.000 C 
ATOM     15  F   UNL     1       4.992   6.158  15.746  0.00  0.00    +0.000 F 
ATOM     16  F   UNL     1       6.600   5.425  14.477  0.00  0.00    +0.000 F 
ENDBRANCH  13  14
ENDBRANCH   1  13
TORSDOF 4
ENDMDL
MODEL 3
REMARK VINA RESULT:      -6.0      2.878      4.991
REMARK  Name = 
REMARK  5 active torsions:
REMARK  status: ('A' for Active; 'I' for Inactive)
REMARK    1  A    between atoms: C_1  and  C_2
REMARK    2  A    between atoms: C_2  and  N_3
REMARK    3  A    between atoms: N_3  and  C_4
REMARK    4  A    between atoms: C_4  and  C_5
REMARK    5  A    between atoms: C_8  and  C_10
REMARK                            x       y       z     vdW  Elec       q    Type
REMARK                         _______ _______ _______ _____ _____    ______ ____
ROOT
ATOM      1  N   UNL     1       2.390   3.534  19.238  0.00  0.00    +0.000 N 
ATOM      2  C   UNL     1       2.288   4.163  17.983  0.00  0.00    +0.000 C 
ATOM      3  O   UNL     1       1.208   4.231  17.393  0.00  0.00    +0.000 OA
ENDROOT
BRANCH   2   4
ATOM      4  C   UNL     1       3.505   4.725  17.304  0.00  0.00    +0.000 A 
ATOM      5  N   UNL     1       4.280   3.813  16.644  0.00  0.00    +0.000 NA
ATOM      6  C   UNL     1       5.362   4.279  15.982  0.00  0.00    +0.000 A 
ATOM      7  C   UNL     1       5.683   5.615  15.889  0.00  0.00    +0.000 A 
ATOM      8  C   UNL     1       4.878   6.538  16.552  0.00  0.00    +0.000 A 
ATOM      9  C   UNL     1       3.775   6.091  17.297  0.00  0.00    +0.000 A 
ATOM     10 BR   UNL     1       2.837   7.395  18.304  0.00  0.00    +0.000 Br
ENDBRANCH   2   4
BRANCH   1  12
ATOM     11  C   UNL     1       1.201   2.758  21.302  0.00  0.00    +0.000 C 
ATOM     12  C   UNL     1       1.162   2.961  19.794  0.00  0.00    +0.000 C 
ENDBRANCH   1  12
BRANCH   1  13
ATOM     13  C   UNL     1       3.591   3.570  20.102  0.00  0.00    +0.000 C 
BRANCH  13  14
ATOM     14  C   UNL     1       4.541   2.378  19.956  0.00  0.00    +0.000 C 
ATOM     15  F   UNL     1       4.746   1.748  21.134  0.00  0.00    +0.000 F 
ATOM     16  F   UNL     1       4.018   1.462  19.104  0.00  0.00    +0.000 F 
ENDBRANCH  13  14
ENDBRANCH   1  13
TORSDOF 4
ENDMDL
MODEL 4
REMARK VINA RESULT:      -5.9      2.519      3.006
REMARK  Name = 
REMARK  5 active torsions:
REMARK  status: ('A' for Active; 'I' for Inactive)
REMARK    1  A    between atoms: C_1  and  C_2
REMARK    2  A    between atoms: C_2  and  N_3
REMARK    3  A    between atoms: N_3  and  C_4
REMARK    4  A    between atoms: C_4  and  C_5
REMARK    5  A    between atoms: C_8  and  C_10
REMARK                            x       y       z     vdW  Elec       q    Type
REMARK                         _______ _______ _______ _____ _____    ______ ____
ROOT
ATOM      1  N   UNL     1       5.495   4.601  17.735  0.00  0.00    +0.000 N 
ATOM      2  C   UNL     1       4.241   3.961  17.789  0.00  0.00    +0.000 C 
ATOM      3  O   UNL     1       3.764   3.414  16.793  0.00  0.00    +0.000 OA
ENDROOT
BRANCH   2   4
ATOM      4  C   UNL     1       3.427   3.975  19.052  0.00  0.00    +0.000 A 
ATOM      5  N   UNL     1       3.472   2.826  19.790  0.00  0.00    +0.000 NA
ATOM      6  C   UNL     1       2.790   2.807  20.957  0.00  0.00    +0.000 A 
ATOM      7  C   UNL     1       2.113   3.894  21.461  0.00  0.00    +0.000 A 
ATOM      8  C   UNL     1       2.085   5.066  20.709  0.00  0.00    +0.000 A 
ATOM      9  C   UNL     1       2.735   5.111  19.466  0.00  0.00    +0.000 A 
ATOM     10 BR   UNL     1       2.505   6.685  18.435  0.00  0.00    +0.000 Br
ENDBRANCH   2   4
BRANCH   1  12
ATOM     11  C   UNL     1       5.695   5.647  15.468  0.00  0.00    +0.000 C 
ATOM     12  C   UNL     1       6.189   4.589  16.445  0.00  0.00    +0.000 C 
ENDBRANCH   1  12
BRANCH   1  13
ATOM     13  C   UNL     1       6.229   5.114  18.913  0.00  0.00    +0.000 C 
BRANCH  13  14
ATOM     14  C   UNL     1       7.653   5.604  18.637  0.00  0.00    +0.000 C 
ATOM     15  F   UNL     1       7.684   6.920  18.329  0.00  0.00    +0.000 F 
ATOM     16  F   UNL     1       8.428   5.437  19.736  0.00  0.00    +0.000 F 
ENDBRANCH  13  14
ENDBRANCH   1  13
TORSDOF 4
ENDMDL
MODEL 5
REMARK VINA RESULT:      -5.9      2.946      5.095
REMARK  Name = 
REMARK  5 active torsions:
REMARK  status: ('A' for Active; 'I' for Inactive)
REMARK    1  A    between atoms: C_1  and  C_2
REMARK    2  A    between atoms: C_2  and  N_3
REMARK    3  A    between atoms: N_3  and  C_4
REMARK    4  A    between atoms: C_4  and  C_5
REMARK    5  A    between atoms: C_8  and  C_10
REMARK                            x       y       z     vdW  Elec       q    Type
REMARK                         _______ _______ _______ _____ _____    ______ ____
ROOT
ATOM      1  N   UNL     1       3.273   4.264  19.703  0.00  0.00    +0.000 N 
ATOM      2  C   UNL     1       4.488   3.679  19.297  0.00  0.00    +0.000 C 
ATOM      3  O   UNL     1       4.650   2.458  19.339  0.00  0.00    +0.000 OA
ENDROOT
BRANCH   2   4
ATOM      4  C   UNL     1       5.639   4.533  18.849  0.00  0.00    +0.000 A 
ATOM      5  N   UNL     1       6.391   5.076  19.853  0.00  0.00    +0.000 NA
ATOM      6  C   UNL     1       7.464   5.817  19.497  0.00  0.00    +0.000 A 
ATOM      7  C   UNL     1       7.868   5.998  18.194  0.00  0.00    +0.000 A 
ATOM      8  C   UNL     1       7.104   5.428  17.177  0.00  0.00    +0.000 A 
ATOM      9  C   UNL     1       5.951   4.696  17.501  0.00  0.00    +0.000 A 
ATOM     10 BR   UNL     1       4.880   4.101  16.054  0.00  0.00    +0.000 Br
ENDBRANCH   2   4
BRANCH   1  12
ATOM     11  C   UNL     1       2.085   3.325  21.699  0.00  0.00    +0.000 C 
ATOM     12  C   UNL     1       2.229   3.356  20.184  0.00  0.00    +0.000 C 
ENDBRANCH   1  12
BRANCH   1  13
ATOM     13  C   UNL     1       2.920   5.688  19.512  0.00  0.00    +0.000 C 
BRANCH  13  14
ATOM     14  C   UNL     1       2.504   6.076  18.090  0.00  0.00    +0.000 C 
ATOM     15  F   UNL     1       1.572   5.234  17.589  0.00  0.00    +0.000 F 
ATOM     16  F   UNL     1       1.960   7.317  18.082  0.00  0.00    +0.000 F 
ENDBRANCH  13  14
ENDBRANCH   1  13
TORSDOF 4
ENDMDL
MODEL 6
REMARK VINA RESULT:      -5.8      2.786      4.650
REMARK  Name = 
REMARK  5 active torsions:
REMARK  status: ('A' for Active; 'I' for Inactive)
REMARK    1  A    between atoms: C_1  and  C_2
REMARK    2  A    between atoms: C_2  and  N_3
REMARK    3  A    between atoms: N_3  and  C_4
REMARK    4  A    between atoms: C_4  and  C_5
REMARK    5  A    between atoms: C_8  and  C_10
REMARK                            x       y       z     vdW  Elec       q    Type
REMARK                         _______ _______ _______ _____ _____    ______ ____
ROOT
ATOM      1  N   UNL     1       3.403   4.788  19.075  0.00  0.00    +0.000 N 
ATOM      2  C   UNL     1       4.600   4.104  18.784  0.00  0.00    +0.000 C 
ATOM      3  O   UNL     1       5.074   3.289  19.578  0.00  0.00    +0.000 OA
ENDROOT
BRANCH   2   4
ATOM      4  C   UNL     1       5.357   4.388  17.519  0.00  0.00    +0.000 A 
ATOM      5  N   UNL     1       4.801   3.882  16.377  0.00  0.00    +0.000 NA
ATOM      6  C   UNL     1       5.424   4.151  15.208  0.00  0.00    +0.000 A 
ATOM      7  C   UNL     1       6.541   4.949  15.105  0.00  0.00    +0.000 A 
ATOM      8  C   UNL     1       7.092   5.472  16.273  0.00  0.00    +0.000 A 
ATOM      9  C   UNL     1       6.507   5.174  17.513  0.00  0.00    +0.000 A 
ATOM     10 BR   UNL     1       7.418   5.786  19.059  0.00  0.00    +0.000 Br
ENDBRANCH   2   4
BRANCH   1  12
ATOM     11  C   UNL     1       1.274   4.211  20.262  0.00  0.00    +0.000 C 
ATOM     12  C   UNL     1       2.767   4.491  20.361  0.00  0.00    +0.000 C 
ENDBRANCH   1  12
BRANCH   1  13
ATOM     13  C   UNL     1       2.662   5.633  18.113  0.00  0.00    +0.000 C 
BRANCH  13  14
ATOM     14  C   UNL     1       2.940   7.136  18.209  0.00  0.00    +0.000 C 
ATOM     15  F   UNL     1       4.026   7.496  17.489  0.00  0.00    +0.000 F 
ATOM     16  F   UNL     1       1.890   7.839  17.720  0.00  0.00    +0.000 F 
ENDBRANCH  13  14
ENDBRANCH   1  13
TORSDOF 4
ENDMDL
MODEL 7
REMARK VINA RESULT:      -5.8      2.905      5.202
REMARK  Name = 
REMARK  5 active torsions:
REMARK  status: ('A' for Active; 'I' for Inactive)
REMARK    1  A    between atoms: C_1  and  C_2
REMARK    2  A    between atoms: C_2  and  N_3
REMARK    3  A    between atoms: N_3  and  C_4
REMARK    4  A    between atoms: C_4  and  C_5
REMARK    5  A    between atoms: C_8  and  C_10
REMARK                            x       y       z     vdW  Elec       q    Type
REMARK                         _______ _______ _______ _____ _____    ______ ____
ROOT
ATOM      1  N   UNL     1       3.486   4.288  18.892  0.00  0.00    +0.000 N 
ATOM      2  C   UNL     1       4.611   4.194  18.049  0.00  0.00    +0.000 C 
ATOM      3  O   UNL     1       4.681   3.324  17.179  0.00  0.00    +0.000 OA
ENDROOT
BRANCH   2   4
ATOM      4  C   UNL     1       5.779   5.122  18.223  0.00  0.00    +0.000 A 
ATOM      5  N   UNL     1       6.558   4.884  19.320  0.00  0.00    +0.000 NA
ATOM      6  C   UNL     1       7.646   5.666  19.494  0.00  0.00    +0.000 A 
ATOM      7  C   UNL     1       8.038   6.636  18.600  0.00  0.00    +0.000 A 
ATOM      8  C   UNL     1       7.246   6.862  17.476  0.00  0.00    +0.000 A 
ATOM      9  C   UNL     1       6.078   6.108  17.286  0.00  0.00    +0.000 A 
ATOM     10 BR   UNL     1       4.973   6.596  15.824  0.00  0.00    +0.000 Br
ENDBRANCH   2   4
BRANCH   1  12
ATOM     11  C   UNL     1       1.250   3.449  19.649  0.00  0.00    +0.000 C 
ATOM     12  C   UNL     1       2.422   3.301  18.689  0.00  0.00    +0.000 C 
ENDBRANCH   1  12
BRANCH   1  13
ATOM     13  C   UNL     1       3.228   5.404  19.828  0.00  0.00    +0.000 C 
BRANCH  13  14
ATOM     14  C   UNL     1       2.739   6.704  19.182  0.00  0.00    +0.000 C 
ATOM     15  F   UNL     1       2.201   6.489  17.960  0.00  0.00    +0.000 F 
ATOM     16  F   UNL     1       1.773   7.273  19.943  0.00  0.00    +0.000 F 
ENDBRANCH  13  14
ENDBRANCH   1  13
TORSDOF 4
ENDMDL
MODEL 8
REMARK VINA RESULT:      -5.8      2.704      4.712
REMARK  Name = 
REMARK  5 active torsions:
REMARK  status: ('A' for Active; 'I' for Inactive)
REMARK    1  A    between atoms: C_1  and  C_2
REMARK    2  A    between atoms: C_2  and  N_3
REMARK    3  A    between atoms: N_3  and  C_4
REMARK    4  A    between atoms: C_4  and  C_5
REMARK    5  A    between atoms: C_8  and  C_10
REMARK                            x       y       z     vdW  Elec       q    Type
REMARK                         _______ _______ _______ _____ _____    ______ ____
ROOT
ATOM      1  N   UNL     1       3.574   4.139  19.462  0.00  0.00    +0.000 N 
ATOM      2  C   UNL     1       4.091   5.165  18.647  0.00  0.00    +0.000 C 
ATOM      3  O   UNL     1       3.723   6.333  18.787  0.00  0.00    +0.000 OA
ENDROOT
BRANCH   2   4
ATOM      4  C   UNL     1       5.067   4.853  17.548  0.00  0.00    +0.000 A 
ATOM      5  N   UNL     1       4.513   4.406  16.382  0.00  0.00    +0.000 NA
ATOM      6  C   UNL     1       5.349   4.155  15.351  0.00  0.00    +0.000 A 
ATOM      7  C   UNL     1       6.706   4.383  15.396  0.00  0.00    +0.000 A 
ATOM      8  C   UNL     1       7.260   4.854  16.585  0.00  0.00    +0.000 A 
ATOM      9  C   UNL     1       6.434   5.076  17.697  0.00  0.00    +0.000 A 
ATOM     10 BR   UNL     1       7.292   5.553  19.319  0.00  0.00    +0.000 Br
ENDBRANCH   2   4
BRANCH   1  12
ATOM     11  C   UNL     1       1.151   4.151  20.100  0.00  0.00    +0.000 C 
ATOM     12  C   UNL     1       2.581   4.529  20.466  0.00  0.00    +0.000 C 
ENDBRANCH   1  12
BRANCH   1  13
ATOM     13  C   UNL     1       4.089   2.752  19.497  0.00  0.00    +0.000 C 
BRANCH  13  14
ATOM     14  C   UNL     1       3.233   1.715  18.765  0.00  0.00    +0.000 C 
ATOM     15  F   UNL     1       2.685   2.218  17.636  0.00  0.00    +0.000 F 
ATOM     16  F   UNL     1       3.992   0.655  18.397  0.00  0.00    +0.000 F 
ENDBRANCH  13  14
ENDBRANCH   1  13
TORSDOF 4
ENDMDL
MODEL 9
REMARK VINA RESULT:      -5.8      0.837      1.148
REMARK  Name = 
REMARK  5 active torsions:
REMARK  status: ('A' for Active; 'I' for Inactive)
REMARK    1  A    between atoms: C_1  and  C_2
REMARK    2  A    between atoms: C_2  and  N_3
REMARK    3  A    between atoms: N_3  and  C_4
REMARK    4  A    between atoms: C_4  and  C_5
REMARK    5  A    between atoms: C_8  and  C_10
REMARK                            x       y       z     vdW  Elec       q    Type
REMARK                         _______ _______ _______ _____ _____    ______ ____
ROOT
ATOM      1  N   UNL     1       5.969   5.711  17.906  0.00  0.00    +0.000 N 
ATOM      2  C   UNL     1       5.354   4.902  18.881  0.00  0.00    +0.000 C 
ATOM      3  O   UNL     1       5.902   4.684  19.963  0.00  0.00    +0.000 OA
ENDROOT
BRANCH   2   4
ATOM      4  C   UNL     1       4.034   4.240  18.606  0.00  0.00    +0.000 A 
ATOM      5  N   UNL     1       4.107   2.955  18.147  0.00  0.00    +0.000 NA
ATOM      6  C   UNL     1       2.944   2.304  17.928  0.00  0.00    +0.000 A 
ATOM      7  C   UNL     1       1.706   2.842  18.200  0.00  0.00    +0.000 A 
ATOM      8  C   UNL     1       1.641   4.147  18.682  0.00  0.00    +0.000 A 
ATOM      9  C   UNL     1       2.824   4.878  18.873  0.00  0.00    +0.000 A 
ATOM     10 BR   UNL     1       2.636   6.698  19.369  0.00  0.00    +0.000 Br
ENDBRANCH   2   4
BRANCH   1  12
ATOM     11  C   UNL     1       7.589   7.590  17.555  0.00  0.00    +0.000 C 
ATOM     12  C   UNL     1       7.284   6.264  18.239  0.00  0.00    +0.000 C 
ENDBRANCH   1  12
BRANCH   1  13
ATOM     13  C   UNL     1       5.312   6.181  16.666  0.00  0.00    +0.000 C 
BRANCH  13  14
ATOM     14  C   UNL     1       5.579   5.333  15.419  0.00  0.00    +0.000 C 
ATOM     15  F   UNL     1       4.818   4.215  15.396  0.00  0.00    +0.000 F 
ATOM     16  F   UNL     1       5.280   6.037  14.300  0.00  0.00    +0.000 F 
ENDBRANCH  13  14
ENDBRANCH   1  13
TORSDOF 4
ENDMDL
