MODEL 1
REMARK VINA RESULT:      -8.7      0.000      0.000
REMARK  Name = 
REMARK  4 active torsions:
REMARK  status: ('A' for Active; 'I' for Inactive)
REMARK    1  A    between atoms: C_1  and  C_2
REMARK    2  A    between atoms: C_4  and  C_5
REMARK    3  A    between atoms: C_7  and  O_8
REMARK    4  A    between atoms: N_18  and  C_19
REMARK                            x       y       z     vdW  Elec       q    Type
REMARK                         _______ _______ _______ _____ _____    ______ ____
ROOT
ATOM      1  C   UNL     1       1.923   9.824  17.591  0.00  0.00    +0.000 C 
ATOM      2  C   UNL     1       1.791   8.900  18.771  0.00  0.00    +0.000 A 
ATOM      3  C   UNL     1       2.387   7.622  18.716  0.00  0.00    +0.000 A 
ATOM      4  C   UNL     1       2.345   6.726  19.797  0.00  0.00    +0.000 A 
ATOM      5  C   UNL     1       1.682   7.186  20.941  0.00  0.00    +0.000 A 
ATOM      6  C   UNL     1       1.027   8.414  20.989  0.00  0.00    +0.000 A 
ATOM      7  N   UNL     1       0.341   8.751  22.081  0.00  0.00    +0.000 NA
ATOM      8  N   UNL     1      -0.310   9.942  22.120  0.00  0.00    +0.000 NA
ATOM      9  C   UNL     1      -0.239  10.784  21.071  0.00  0.00    +0.000 A 
ATOM     10  N   UNL     1      -0.898  12.019  21.119  0.00  0.00    +0.000 N 
ATOM     11  N   UNL     1       0.455  10.500  19.957  0.00  0.00    +0.000 NA
ATOM     12  C   UNL     1       1.077   9.303  19.906  0.00  0.00    +0.000 A 
ATOM     13  H   UNL     1      -0.836  12.431  20.195  0.00  0.00    +0.000 HD
ENDROOT
BRANCH   4  14
ATOM     14  C   UNL     1       2.991   5.386  19.718  0.00  0.00    +0.000 A 
ATOM     15  C   UNL     1       4.348   5.310  19.324  0.00  0.00    +0.000 A 
ATOM     16  C   UNL     1       4.998   4.085  19.165  0.00  0.00    +0.000 A 
ATOM     17  C   UNL     1       4.345   2.895  19.432  0.00  0.00    +0.000 A 
ATOM     18  C   UNL     1       3.021   2.929  19.852  0.00  0.00    +0.000 A 
ATOM     19  C   UNL     1       2.341   4.153  19.978  0.00  0.00    +0.000 A 
ATOM     20 CL   UNL     1       0.663   4.018  20.393  0.00  0.00    +0.000 Cl
BRANCH  16  21
ATOM     21  O   UNL     1       6.290   4.015  18.736  0.00  0.00    +0.000 OA
ATOM     22  H   UNL     1       6.608   3.102  18.823  0.00  0.00    +0.000 HD
ENDBRANCH  16  21
ENDBRANCH   4  14
BRANCH  10  23
ATOM     23  C   UNL     1      -2.138  12.248  21.743  0.00  0.00    +0.000 A 
ATOM     24  C   UNL     1      -2.226  12.208  23.135  0.00  0.00    +0.000 A 
ATOM     25  C   UNL     1      -3.441  12.473  23.768  0.00  0.00    +0.000 A 
ATOM     26  C   UNL     1      -4.531  12.812  22.986  0.00  0.00    +0.000 A 
ATOM     27  N   UNL     1      -4.486  12.902  21.641  0.00  0.00    +0.000 NA
ATOM     28  C   UNL     1      -3.298  12.614  21.055  0.00  0.00    +0.000 A 
ENDBRANCH  10  23
TORSDOF 3
ENDMDL
MODEL 2
REMARK VINA RESULT:      -8.3      5.197      9.753
REMARK  Name = 
REMARK  4 active torsions:
REMARK  status: ('A' for Active; 'I' for Inactive)
REMARK    1  A    between atoms: C_1  and  C_2
REMARK    2  A    between atoms: C_4  and  C_5
REMARK    3  A    between atoms: C_7  and  O_8
REMARK    4  A    between atoms: N_18  and  C_19
REMARK                            x       y       z     vdW  Elec       q    Type
REMARK                         _______ _______ _______ _____ _____    ______ ____
ROOT
ATOM      1  C   UNL     1       2.408   3.794  19.590  0.00  0.00    +0.000 C 
ATOM      2  C   UNL     1       2.634   5.230  19.204  0.00  0.00    +0.000 A 
ATOM      3  C   UNL     1       1.863   6.239  19.821  0.00  0.00    +0.000 A 
ATOM      4  C   UNL     1       2.052   7.603  19.544  0.00  0.00    +0.000 A 
ATOM      5  C   UNL     1       3.063   7.902  18.623  0.00  0.00    +0.000 A 
ATOM      6  C   UNL     1       3.783   6.917  17.951  0.00  0.00    +0.000 A 
ATOM      7  N   UNL     1       4.671   7.272  17.021  0.00  0.00    +0.000 NA
ATOM      8  N   UNL     1       5.361   6.310  16.356  0.00  0.00    +0.000 NA
ATOM      9  C   UNL     1       5.166   5.012  16.655  0.00  0.00    +0.000 A 
ATOM     10  N   UNL     1       5.890   4.021  15.978  0.00  0.00    +0.000 N 
ATOM     11  N   UNL     1       4.298   4.604  17.596  0.00  0.00    +0.000 NA
ATOM     12  C   UNL     1       3.591   5.559  18.236  0.00  0.00    +0.000 A 
ATOM     13  H   UNL     1       5.501   3.125  16.247  0.00  0.00    +0.000 HD
ENDROOT
BRANCH   4  14
ATOM     14  C   UNL     1       1.233   8.650  20.217  0.00  0.00    +0.000 A 
ATOM     15  C   UNL     1       1.237   8.709  21.631  0.00  0.00    +0.000 A 
ATOM     16  C   UNL     1       0.444   9.620  22.329  0.00  0.00    +0.000 A 
ATOM     17  C   UNL     1      -0.347  10.534  21.656  0.00  0.00    +0.000 A 
ATOM     18  C   UNL     1      -0.353  10.530  20.266  0.00  0.00    +0.000 A 
ATOM     19  C   UNL     1       0.409   9.592  19.550  0.00  0.00    +0.000 A 
ATOM     20 CL   UNL     1       0.198   9.638  17.830  0.00  0.00    +0.000 Cl
BRANCH  16  21
ATOM     21  O   UNL     1       0.411   9.639  23.692  0.00  0.00    +0.000 OA
ATOM     22  H   UNL     1      -0.242  10.292  23.988  0.00  0.00    +0.000 HD
ENDBRANCH  16  21
ENDBRANCH   4  14
BRANCH  10  23
ATOM     23  C   UNL     1       6.261   4.077  14.622  0.00  0.00    +0.000 A 
ATOM     24  C   UNL     1       5.510   3.382  13.674  0.00  0.00    +0.000 A 
ATOM     25  C   UNL     1       5.843   3.462  12.321  0.00  0.00    +0.000 A 
ATOM     26  C   UNL     1       6.900   4.276  11.950  0.00  0.00    +0.000 A 
ATOM     27  N   UNL     1       7.629   4.997  12.824  0.00  0.00    +0.000 NA
ATOM     28  C   UNL     1       7.297   4.877  14.134  0.00  0.00    +0.000 A 
ENDBRANCH  10  23
TORSDOF 3
ENDMDL
MODEL 3
REMARK VINA RESULT:      -8.3      1.857      2.151
REMARK  Name = 
REMARK  4 active torsions:
REMARK  status: ('A' for Active; 'I' for Inactive)
REMARK    1  A    between atoms: C_1  and  C_2
REMARK    2  A    between atoms: C_4  and  C_5
REMARK    3  A    between atoms: C_7  and  O_8
REMARK    4  A    between atoms: N_18  and  C_19
REMARK                            x       y       z     vdW  Elec       q    Type
REMARK                         _______ _______ _______ _____ _____    ______ ____
ROOT
ATOM      1  C   UNL     1       1.938   9.710  17.505  0.00  0.00    +0.000 C 
ATOM      2  C   UNL     1       1.845   8.726  18.639  0.00  0.00    +0.000 A 
ATOM      3  C   UNL     1       2.191   7.377  18.412  0.00  0.00    +0.000 A 
ATOM      4  C   UNL     1       2.173   6.415  19.436  0.00  0.00    +0.000 A 
ATOM      5  C   UNL     1       1.799   6.881  20.702  0.00  0.00    +0.000 A 
ATOM      6  C   UNL     1       1.385   8.191  20.928  0.00  0.00    +0.000 A 
ATOM      7  N   UNL     1       0.958   8.545  22.141  0.00  0.00    +0.000 NA
ATOM      8  N   UNL     1       0.541   9.819  22.357  0.00  0.00    +0.000 NA
ATOM      9  C   UNL     1       0.583  10.720  21.358  0.00  0.00    +0.000 A 
ATOM     10  N   UNL     1       0.165  12.039  21.586  0.00  0.00    +0.000 N 
ATOM     11  N   UNL     1       1.022  10.420  20.125  0.00  0.00    +0.000 NA
ATOM     12  C   UNL     1       1.409   9.146  19.903  0.00  0.00    +0.000 A 
ATOM     13  H   UNL     1       0.145  12.509  20.688  0.00  0.00    +0.000 HD
ENDROOT
BRANCH   4  14
ATOM     14  C   UNL     1       2.554   4.999  19.174  0.00  0.00    +0.000 A 
ATOM     15  C   UNL     1       1.525   4.046  18.974  0.00  0.00    +0.000 A 
ATOM     16  C   UNL     1       1.806   2.692  18.789  0.00  0.00    +0.000 A 
ATOM     17  C   UNL     1       3.112   2.237  18.750  0.00  0.00    +0.000 A 
ATOM     18  C   UNL     1       4.151   3.146  18.909  0.00  0.00    +0.000 A 
ATOM     19  C   UNL     1       3.883   4.506  19.137  0.00  0.00    +0.000 A 
ATOM     20 CL   UNL     1       5.281   5.487  19.437  0.00  0.00    +0.000 Cl
BRANCH  16  21
ATOM     21  O   UNL     1       0.811   1.771  18.649  0.00  0.00    +0.000 OA
ATOM     22  H   UNL     1       0.928   1.069  19.309  0.00  0.00    +0.000 HD
ENDBRANCH  16  21
ENDBRANCH   4  14
BRANCH  10  23
ATOM     23  C   UNL     1      -0.895  12.414  22.431  0.00  0.00    +0.000 A 
ATOM     24  C   UNL     1      -0.924  13.700  22.970  0.00  0.00    +0.000 A 
ATOM     25  C   UNL     1      -1.991  14.098  23.776  0.00  0.00    +0.000 A 
ATOM     26  C   UNL     1      -3.027  13.204  23.987  0.00  0.00    +0.000 A 
ATOM     27  N   UNL     1      -3.063  11.965  23.456  0.00  0.00    +0.000 NA
ATOM     28  C   UNL     1      -1.999  11.600  22.699  0.00  0.00    +0.000 A 
ENDBRANCH  10  23
TORSDOF 3
ENDMDL
MODEL 4
REMARK VINA RESULT:      -8.2      2.842      3.970
REMARK  Name = 
REMARK  4 active torsions:
REMARK  status: ('A' for Active; 'I' for Inactive)
REMARK    1  A    between atoms: C_1  and  C_2
REMARK    2  A    between atoms: C_4  and  C_5
REMARK    3  A    between atoms: C_7  and  O_8
REMARK    4  A    between atoms: N_18  and  C_19
REMARK                            x       y       z     vdW  Elec       q    Type
REMARK                         _______ _______ _______ _____ _____    ______ ____
ROOT
ATOM      1  C   UNL     1       1.803   5.876  20.853  0.00  0.00    +0.000 C 
ATOM      2  C   UNL     1       2.438   6.530  19.656  0.00  0.00    +0.000 A 
ATOM      3  C   UNL     1       3.476   5.859  18.974  0.00  0.00    +0.000 A 
ATOM      4  C   UNL     1       4.082   6.388  17.822  0.00  0.00    +0.000 A 
ATOM      5  C   UNL     1       3.584   7.621  17.385  0.00  0.00    +0.000 A 
ATOM      6  C   UNL     1       2.612   8.330  18.085  0.00  0.00    +0.000 A 
ATOM      7  N   UNL     1       2.247   9.540  17.660  0.00  0.00    +0.000 NA
ATOM      8  N   UNL     1       1.309  10.237  18.352  0.00  0.00    +0.000 NA
ATOM      9  C   UNL     1       0.738   9.697  19.445  0.00  0.00    +0.000 A 
ATOM     10  N   UNL     1      -0.240  10.411  20.151  0.00  0.00    +0.000 N 
ATOM     11  N   UNL     1       1.057   8.474  19.903  0.00  0.00    +0.000 NA
ATOM     12  C   UNL     1       2.010   7.794  19.232  0.00  0.00    +0.000 A 
ATOM     13  H   UNL     1      -0.435   9.896  21.002  0.00  0.00    +0.000 HD
ENDROOT
BRANCH   4  14
ATOM     14  C   UNL     1       5.168   5.655  17.113  0.00  0.00    +0.000 A 
ATOM     15  C   UNL     1       4.949   5.246  15.775  0.00  0.00    +0.000 A 
ATOM     16  C   UNL     1       5.896   4.500  15.073  0.00  0.00    +0.000 A 
ATOM     17  C   UNL     1       7.109   4.169  15.649  0.00  0.00    +0.000 A 
ATOM     18  C   UNL     1       7.375   4.580  16.950  0.00  0.00    +0.000 A 
ATOM     19  C   UNL     1       6.416   5.298  17.684  0.00  0.00    +0.000 A 
ATOM     20 CL   UNL     1       6.851   5.629  19.329  0.00  0.00    +0.000 Cl
BRANCH  16  21
ATOM     21  O   UNL     1       5.660   4.064  13.803  0.00  0.00    +0.000 OA
ATOM     22  H   UNL     1       5.823   4.789  13.179  0.00  0.00    +0.000 HD
ENDBRANCH  16  21
ENDBRANCH   4  14
BRANCH  10  23
ATOM     23  C   UNL     1      -0.243  11.805  20.335  0.00  0.00    +0.000 A 
ATOM     24  C   UNL     1       0.725  12.394  21.150  0.00  0.00    +0.000 A 
ATOM     25  C   UNL     1       0.758  13.780  21.309  0.00  0.00    +0.000 A 
ATOM     26  C   UNL     1      -0.160  14.545  20.610  0.00  0.00    +0.000 A 
ATOM     27  N   UNL     1      -1.088  14.026  19.782  0.00  0.00    +0.000 NA
ATOM     28  C   UNL     1      -1.111  12.674  19.669  0.00  0.00    +0.000 A 
ENDBRANCH  10  23
TORSDOF 3
ENDMDL
MODEL 5
REMARK VINA RESULT:      -8.2      2.652      3.970
REMARK  Name = 
REMARK  4 active torsions:
REMARK  status: ('A' for Active; 'I' for Inactive)
REMARK    1  A    between atoms: C_1  and  C_2
REMARK    2  A    between atoms: C_4  and  C_5
REMARK    3  A    between atoms: C_7  and  O_8
REMARK    4  A    between atoms: N_18  and  C_19
REMARK                            x       y       z     vdW  Elec       q    Type
REMARK                         _______ _______ _______ _____ _____    ______ ____
ROOT
ATOM      1  C   UNL     1       2.203   4.974  21.177  0.00  0.00    +0.000 C 
ATOM      2  C   UNL     1       2.661   5.815  20.016  0.00  0.00    +0.000 A 
ATOM      3  C   UNL     1       3.663   5.316  19.157  0.00  0.00    +0.000 A 
ATOM      4  C   UNL     1       4.105   6.025  18.028  0.00  0.00    +0.000 A 
ATOM      5  C   UNL     1       3.481   7.257  17.801  0.00  0.00    +0.000 A 
ATOM      6  C   UNL     1       2.543   7.797  18.677  0.00  0.00    +0.000 A 
ATOM      7  N   UNL     1       2.053   9.016  18.445  0.00  0.00    +0.000 NA
ATOM      8  N   UNL     1       1.150   9.547  19.309  0.00  0.00    +0.000 NA
ATOM      9  C   UNL     1       0.736   8.836  20.375  0.00  0.00    +0.000 A 
ATOM     10  N   UNL     1      -0.207   9.380  21.257  0.00  0.00    +0.000 N 
ATOM     11  N   UNL     1       1.185   7.598  20.641  0.00  0.00    +0.000 NA
ATOM     12  C   UNL     1       2.105   7.082  19.799  0.00  0.00    +0.000 A 
ATOM     13  H   UNL     1      -0.275   8.754  22.051  0.00  0.00    +0.000 HD
ENDROOT
BRANCH   4  14
ATOM     14  C   UNL     1       5.158   5.472  17.129  0.00  0.00    +0.000 A 
ATOM     15  C   UNL     1       4.793   5.083  15.818  0.00  0.00    +0.000 A 
ATOM     16  C   UNL     1       5.711   4.498  14.945  0.00  0.00    +0.000 A 
ATOM     17  C   UNL     1       7.030   4.315  15.320  0.00  0.00    +0.000 A 
ATOM     18  C   UNL     1       7.435   4.713  16.589  0.00  0.00    +0.000 A 
ATOM     19  C   UNL     1       6.513   5.268  17.493  0.00  0.00    +0.000 A 
ATOM     20 CL   UNL     1       7.145   5.598  19.073  0.00  0.00    +0.000 Cl
BRANCH  16  21
ATOM     21  O   UNL     1       5.344   4.078  13.701  0.00  0.00    +0.000 OA
ATOM     22  H   UNL     1       5.992   4.394  13.052  0.00  0.00    +0.000 HD
ENDBRANCH  16  21
ENDBRANCH   4  14
BRANCH  10  23
ATOM     23  C   UNL     1      -0.286  10.738  21.616  0.00  0.00    +0.000 A 
ATOM     24  C   UNL     1      -1.204  11.142  22.586  0.00  0.00    +0.000 A 
ATOM     25  C   UNL     1      -1.264  12.478  22.980  0.00  0.00    +0.000 A 
ATOM     26  C   UNL     1      -0.369  13.372  22.418  0.00  0.00    +0.000 A 
ATOM     27  N   UNL     1       0.562  13.023  21.508  0.00  0.00    +0.000 NA
ATOM     28  C   UNL     1       0.578  11.721  21.126  0.00  0.00    +0.000 A 
ENDBRANCH  10  23
TORSDOF 3
ENDMDL
MODEL 6
REMARK VINA RESULT:      -8.1      1.881      2.170
REMARK  Name = 
REMARK  4 active torsions:
REMARK  status: ('A' for Active; 'I' for Inactive)
REMARK    1  A    between atoms: C_1  and  C_2
REMARK    2  A    between atoms: C_4  and  C_5
REMARK    3  A    between atoms: C_7  and  O_8
REMARK    4  A    between atoms: N_18  and  C_19
REMARK                            x       y       z     vdW  Elec       q    Type
REMARK                         _______ _______ _______ _____ _____    ______ ____
ROOT
ATOM      1  C   UNL     1       1.381  10.011  17.881  0.00  0.00    +0.000 C 
ATOM      2  C   UNL     1       1.415   9.189  19.140  0.00  0.00    +0.000 A 
ATOM      3  C   UNL     1       1.872   7.855  19.080  0.00  0.00    +0.000 A 
ATOM      4  C   UNL     1       1.975   7.044  20.223  0.00  0.00    +0.000 A 
ATOM      5  C   UNL     1       1.606   7.647  21.431  0.00  0.00    +0.000 A 
ATOM      6  C   UNL     1       1.086   8.937  21.499  0.00  0.00    +0.000 A 
ATOM      7  N   UNL     1       0.672   9.416  22.673  0.00  0.00    +0.000 NA
ATOM      8  N   UNL     1       0.151  10.669  22.735  0.00  0.00    +0.000 NA
ATOM      9  C   UNL     1       0.078  11.425  21.624  0.00  0.00    +0.000 A 
ATOM     10  N   UNL     1      -0.447  12.723  21.693  0.00  0.00    +0.000 N 
ATOM     11  N   UNL     1       0.499  10.996  20.422  0.00  0.00    +0.000 NA
ATOM     12  C   UNL     1       0.989   9.740  20.355  0.00  0.00    +0.000 A 
ATOM     13  H   UNL     1      -0.540  13.062  20.742  0.00  0.00    +0.000 HD
ENDROOT
BRANCH   4  14
ATOM     14  C   UNL     1       2.471   5.642  20.134  0.00  0.00    +0.000 A 
ATOM     15  C   UNL     1       1.942   4.679  21.028  0.00  0.00    +0.000 A 
ATOM     16  C   UNL     1       2.406   3.363  21.046  0.00  0.00    +0.000 A 
ATOM     17  C   UNL     1       3.376   2.940  20.155  0.00  0.00    +0.000 A 
ATOM     18  C   UNL     1       3.896   3.847  19.239  0.00  0.00    +0.000 A 
ATOM     19  C   UNL     1       3.468   5.186  19.236  0.00  0.00    +0.000 A 
ATOM     20 CL   UNL     1       4.300   6.217  18.118  0.00  0.00    +0.000 Cl
BRANCH  16  21
ATOM     21  O   UNL     1       1.932   2.453  21.943  0.00  0.00    +0.000 OA
ATOM     22  H   UNL     1       1.790   2.888  22.798  0.00  0.00    +0.000 HD
ENDBRANCH  16  21
ENDBRANCH   4  14
BRANCH  10  23
ATOM     23  C   UNL     1      -1.506  13.121  22.528  0.00  0.00    +0.000 A 
ATOM     24  C   UNL     1      -2.754  12.511  22.396  0.00  0.00    +0.000 A 
ATOM     25  C   UNL     1      -3.802  12.867  23.246  0.00  0.00    +0.000 A 
ATOM     26  C   UNL     1      -3.557  13.802  24.237  0.00  0.00    +0.000 A 
ATOM     27  N   UNL     1      -2.359  14.390  24.429  0.00  0.00    +0.000 NA
ATOM     28  C   UNL     1      -1.369  14.041  23.571  0.00  0.00    +0.000 A 
ENDBRANCH  10  23
TORSDOF 3
ENDMDL
MODEL 7
REMARK VINA RESULT:      -8.1      3.348      4.691
REMARK  Name = 
REMARK  4 active torsions:
REMARK  status: ('A' for Active; 'I' for Inactive)
REMARK    1  A    between atoms: C_1  and  C_2
REMARK    2  A    between atoms: C_4  and  C_5
REMARK    3  A    between atoms: C_7  and  O_8
REMARK    4  A    between atoms: N_18  and  C_19
REMARK                            x       y       z     vdW  Elec       q    Type
REMARK                         _______ _______ _______ _____ _____    ______ ____
ROOT
ATOM      1  C   UNL     1       0.644   8.479  22.032  0.00  0.00    +0.000 C 
ATOM      2  C   UNL     1       1.254   8.137  20.700  0.00  0.00    +0.000 A 
ATOM      3  C   UNL     1       1.641   6.804  20.441  0.00  0.00    +0.000 A 
ATOM      4  C   UNL     1       2.173   6.404  19.204  0.00  0.00    +0.000 A 
ATOM      5  C   UNL     1       2.286   7.409  18.237  0.00  0.00    +0.000 A 
ATOM      6  C   UNL     1       1.977   8.742  18.499  0.00  0.00    +0.000 A 
ATOM      7  N   UNL     1       2.192   9.663  17.558  0.00  0.00    +0.000 NA
ATOM      8  N   UNL     1       1.905  10.964  17.820  0.00  0.00    +0.000 NA
ATOM      9  C   UNL     1       1.384  11.313  19.011  0.00  0.00    +0.000 A 
ATOM     10  N   UNL     1       1.074  12.655  19.275  0.00  0.00    +0.000 N 
ATOM     11  N   UNL     1       1.131  10.421  19.984  0.00  0.00    +0.000 NA
ATOM     12  C   UNL     1       1.444   9.133  19.734  0.00  0.00    +0.000 A 
ATOM     13  H   UNL     1       0.830  12.721  20.256  0.00  0.00    +0.000 HD
ENDROOT
BRANCH   4  14
ATOM     14  C   UNL     1       2.564   4.988  18.951  0.00  0.00    +0.000 A 
ATOM     15  C   UNL     1       1.545   4.039  18.697  0.00  0.00    +0.000 A 
ATOM     16  C   UNL     1       1.833   2.686  18.516  0.00  0.00    +0.000 A 
ATOM     17  C   UNL     1       3.138   2.228  18.537  0.00  0.00    +0.000 A 
ATOM     18  C   UNL     1       4.169   3.135  18.752  0.00  0.00    +0.000 A 
ATOM     19  C   UNL     1       3.892   4.494  18.975  0.00  0.00    +0.000 A 
ATOM     20 CL   UNL     1       5.275   5.471  19.348  0.00  0.00    +0.000 Cl
BRANCH  16  21
ATOM     21  O   UNL     1       0.844   1.767  18.323  0.00  0.00    +0.000 OA
ATOM     22  H   UNL     1       0.493   1.488  19.183  0.00  0.00    +0.000 HD
ENDBRANCH  16  21
ENDBRANCH   4  14
BRANCH  10  23
ATOM     23  C   UNL     1       1.814  13.758  18.813  0.00  0.00    +0.000 A 
ATOM     24  C   UNL     1       1.231  15.026  18.811  0.00  0.00    +0.000 A 
ATOM     25  C   UNL     1       1.967  16.135  18.393  0.00  0.00    +0.000 A 
ATOM     26  C   UNL     1       3.289  15.948  18.026  0.00  0.00    +0.000 A 
ATOM     27  N   UNL     1       3.907  14.751  18.049  0.00  0.00    +0.000 NA
ATOM     28  C   UNL     1       3.157  13.689  18.435  0.00  0.00    +0.000 A 
ENDBRANCH  10  23
TORSDOF 3
ENDMDL
MODEL 8
REMARK VINA RESULT:      -8.0      2.724      3.777
REMARK  Name = 
REMARK  4 active torsions:
REMARK  status: ('A' for Active; 'I' for Inactive)
REMARK    1  A    between atoms: C_1  and  C_2
REMARK    2  A    between atoms: C_4  and  C_5
REMARK    3  A    between atoms: C_7  and  O_8
REMARK    4  A    between atoms: N_18  and  C_19
REMARK                            x       y       z     vdW  Elec       q    Type
REMARK                         _______ _______ _______ _____ _____    ______ ____
ROOT
ATOM      1  C   UNL     1       1.598   6.364  21.063  0.00  0.00    +0.000 C 
ATOM      2  C   UNL     1       2.167   6.868  19.764  0.00  0.00    +0.000 A 
ATOM      3  C   UNL     1       3.045   6.042  19.031  0.00  0.00    +0.000 A 
ATOM      4  C   UNL     1       3.577   6.428  17.789  0.00  0.00    +0.000 A 
ATOM      5  C   UNL     1       3.172   7.682  17.317  0.00  0.00    +0.000 A 
ATOM      6  C   UNL     1       2.364   8.539  18.060  0.00  0.00    +0.000 A 
ATOM      7  N   UNL     1       2.089   9.756  17.588  0.00  0.00    +0.000 NA
ATOM      8  N   UNL     1       1.314  10.596  18.321  0.00  0.00    +0.000 NA
ATOM      9  C   UNL     1       0.809  10.191  19.502  0.00  0.00    +0.000 A 
ATOM     10  N   UNL     1      -0.003  11.054  20.250  0.00  0.00    +0.000 N 
ATOM     11  N   UNL     1       1.041   8.970  20.011  0.00  0.00    +0.000 NA
ATOM     12  C   UNL     1       1.836   8.145  19.297  0.00  0.00    +0.000 A 
ATOM     13  H   UNL     1      -0.160  10.617  21.150  0.00  0.00    +0.000 HD
ENDROOT
BRANCH   4  14
ATOM     14  C   UNL     1       4.494   5.533  17.028  0.00  0.00    +0.000 A 
ATOM     15  C   UNL     1       5.712   6.067  16.541  0.00  0.00    +0.000 A 
ATOM     16  C   UNL     1       6.587   5.306  15.766  0.00  0.00    +0.000 A 
ATOM     17  C   UNL     1       6.315   3.981  15.480  0.00  0.00    +0.000 A 
ATOM     18  C   UNL     1       5.144   3.410  15.967  0.00  0.00    +0.000 A 
ATOM     19  C   UNL     1       4.234   4.175  16.716  0.00  0.00    +0.000 A 
ATOM     20 CL   UNL     1       2.768   3.354  17.145  0.00  0.00    +0.000 Cl
BRANCH  16  21
ATOM     21  O   UNL     1       7.734   5.839  15.255  0.00  0.00    +0.000 OA
ATOM     22  H   UNL     1       8.263   6.213  15.978  0.00  0.00    +0.000 HD
ENDBRANCH  16  21
ENDBRANCH   4  14
BRANCH  10  23
ATOM     23  C   UNL     1       0.165  12.448  20.334  0.00  0.00    +0.000 A 
ATOM     24  C   UNL     1       1.330  12.968  20.899  0.00  0.00    +0.000 A 
ATOM     25  C   UNL     1       1.528  14.348  20.952  0.00  0.00    +0.000 A 
ATOM     26  C   UNL     1       0.566  15.173  20.396  0.00  0.00    +0.000 A 
ATOM     27  N   UNL     1      -0.557  14.717  19.805  0.00  0.00    +0.000 NA
ATOM     28  C   UNL     1      -0.732  13.373  19.793  0.00  0.00    +0.000 A 
ENDBRANCH  10  23
TORSDOF 3
ENDMDL
MODEL 9
REMARK VINA RESULT:      -8.0      2.658      3.842
REMARK  Name = 
REMARK  4 active torsions:
REMARK  status: ('A' for Active; 'I' for Inactive)
REMARK    1  A    between atoms: C_1  and  C_2
REMARK    2  A    between atoms: C_4  and  C_5
REMARK    3  A    between atoms: C_7  and  O_8
REMARK    4  A    between atoms: N_18  and  C_19
REMARK                            x       y       z     vdW  Elec       q    Type
REMARK                         _______ _______ _______ _____ _____    ______ ____
ROOT
ATOM      1  C   UNL     1      -0.048   8.537  22.194  0.00  0.00    +0.000 C 
ATOM      2  C   UNL     1       0.841   8.297  21.003  0.00  0.00    +0.000 A 
ATOM      3  C   UNL     1       1.502   7.057  20.876  0.00  0.00    +0.000 A 
ATOM      4  C   UNL     1       2.308   6.746  19.768  0.00  0.00    +0.000 A 
ATOM      5  C   UNL     1       2.407   7.742  18.790  0.00  0.00    +0.000 A 
ATOM      6  C   UNL     1       1.820   8.997  18.933  0.00  0.00    +0.000 A 
ATOM      7  N   UNL     1       2.028   9.929  18.002  0.00  0.00    +0.000 NA
ATOM      8  N   UNL     1       1.468  11.158  18.151  0.00  0.00    +0.000 NA
ATOM      9  C   UNL     1       0.689  11.419  19.218  0.00  0.00    +0.000 A 
ATOM     10  N   UNL     1       0.099  12.682  19.362  0.00  0.00    +0.000 N 
ATOM     11  N   UNL     1       0.434  10.509  20.172  0.00  0.00    +0.000 NA
ATOM     12  C   UNL     1       1.015   9.298  20.040  0.00  0.00    +0.000 A 
ATOM     13  H   UNL     1      -0.323  12.715  20.283  0.00  0.00    +0.000 HD
ENDROOT
BRANCH   4  14
ATOM     14  C   UNL     1       2.988   5.426  19.651  0.00  0.00    +0.000 A 
ATOM     15  C   UNL     1       4.353   5.396  19.276  0.00  0.00    +0.000 A 
ATOM     16  C   UNL     1       5.034   4.194  19.084  0.00  0.00    +0.000 A 
ATOM     17  C   UNL     1       4.407   2.980  19.298  0.00  0.00    +0.000 A 
ATOM     18  C   UNL     1       3.076   2.967  19.699  0.00  0.00    +0.000 A 
ATOM     19  C   UNL     1       2.365   4.169  19.857  0.00  0.00    +0.000 A 
ATOM     20 CL   UNL     1       0.685   3.979  20.241  0.00  0.00    +0.000 Cl
BRANCH  16  21
ATOM     21  O   UNL     1       6.334   4.170  18.672  0.00  0.00    +0.000 OA
ATOM     22  H   UNL     1       6.505   4.939  18.104  0.00  0.00    +0.000 HD
ENDBRANCH  16  21
ENDBRANCH   4  14
BRANCH  10  23
ATOM     23  C   UNL     1       0.697  13.899  18.984  0.00  0.00    +0.000 A 
ATOM     24  C   UNL     1      -0.092  15.043  18.857  0.00  0.00    +0.000 A 
ATOM     25  C   UNL     1       0.494  16.264  18.522  0.00  0.00    +0.000 A 
ATOM     26  C   UNL     1       1.868  16.313  18.363  0.00  0.00    +0.000 A 
ATOM     27  N   UNL     1       2.676  15.245  18.513  0.00  0.00    +0.000 NA
ATOM     28  C   UNL     1       2.073  14.067  18.813  0.00  0.00    +0.000 A 
ENDBRANCH  10  23
TORSDOF 3
ENDMDL
