MODEL 1
REMARK VINA RESULT:      -7.9      0.000      0.000
REMARK  Name = 
REMARK  5 active torsions:
REMARK  status: ('A' for Active; 'I' for Inactive)
REMARK    1  A    between atoms: C_1  and  C_2
REMARK    2  A    between atoms: C_6  and  C_7
REMARK    3  A    between atoms: N_9  and  C_10
REMARK    4  A    between atoms: C_10  and  C_11
REMARK    5  A    between atoms: C_11  and  N_12
REMARK                            x       y       z     vdW  Elec       q    Type
REMARK                         _______ _______ _______ _____ _____    ______ ____
ROOT
ATOM      1  C   UNL     1       2.164   7.394  19.438  0.00  0.00    +0.000 C 
ATOM      2  O   UNL     1       2.082   8.424  18.773  0.00  0.00    +0.000 OA
ATOM      3  N   UNL     1       1.867   7.381  20.783  0.00  0.00    +0.000 N 
ATOM      4  H   UNL     1       1.963   6.530  21.324  0.00  0.00    +0.000 HD
ENDROOT
BRANCH   1  10
ATOM      5  C   UNL     1       1.643   2.019  19.491  0.00  0.00    +0.000 C 
ATOM      6  C   UNL     1       2.638   2.498  18.475  0.00  0.00    +0.000 C 
ATOM      7  O   UNL     1       3.282   1.745  17.752  0.00  0.00    +0.000 OA
ATOM      8  N   UNL     1       2.802   3.900  18.398  0.00  0.00    +0.000 N 
ATOM      9  C   UNL     1       2.128   4.851  19.157  0.00  0.00    +0.000 A 
ATOM     10  C   UNL     1       2.587   6.119  18.854  0.00  0.00    +0.000 A 
ATOM     11  C   UNL     1       3.577   5.948  17.836  0.00  0.00    +0.000 A 
ATOM     12  C   UNL     1       4.398   6.856  17.126  0.00  0.00    +0.000 A 
ATOM     13  C   UNL     1       5.281   6.398  16.149  0.00  0.00    +0.000 A 
ATOM     14  C   UNL     1       5.360   5.043  15.866  0.00  0.00    +0.000 A 
ATOM     15  C   UNL     1       4.570   4.118  16.558  0.00  0.00    +0.000 A 
ATOM     16  C   UNL     1       3.681   4.583  17.550  0.00  0.00    +0.000 A 
ENDBRANCH   1  10
BRANCH   3  17
ATOM     17  C   UNL     1       1.439   8.589  21.457  0.00  0.00    +0.000 C 
BRANCH  17  18
ATOM     18  C   UNL     1      -0.081   8.738  21.540  0.00  0.00    +0.000 C 
BRANCH  18  19
ATOM     19  N   UNL     1      -0.571  10.055  21.175  0.00  0.00    +0.000 N 
ATOM     20  C   UNL     1      -0.635  10.533  19.809  0.00  0.00    +0.000 C 
ATOM     21  C   UNL     1      -1.394  11.844  19.964  0.00  0.00    +0.000 C 
ATOM     22  N   UNL     1      -1.100  12.227  21.323  0.00  0.00    +0.000 N 
ATOM     23  C   UNL     1      -0.710  11.116  22.064  0.00  0.00    +0.000 C 
ATOM     24  O   UNL     1      -0.532  11.093  23.269  0.00  0.00    +0.000 OA
ATOM     25  H   UNL     1      -1.434  13.057  21.791  0.00  0.00    +0.000 HD
ENDBRANCH  18  19
ENDBRANCH  17  18
ENDBRANCH   3  17
TORSDOF 4
ENDMDL
MODEL 2
REMARK VINA RESULT:      -7.9      4.036      5.791
REMARK  Name = 
REMARK  5 active torsions:
REMARK  status: ('A' for Active; 'I' for Inactive)
REMARK    1  A    between atoms: C_1  and  C_2
REMARK    2  A    between atoms: C_6  and  C_7
REMARK    3  A    between atoms: N_9  and  C_10
REMARK    4  A    between atoms: C_10  and  C_11
REMARK    5  A    between atoms: C_11  and  N_12
REMARK                            x       y       z     vdW  Elec       q    Type
REMARK                         _______ _______ _______ _____ _____    ______ ____
ROOT
ATOM      1  C   UNL     1       4.056   2.864  18.306  0.00  0.00    +0.000 C 
ATOM      2  O   UNL     1       4.388   2.350  19.372  0.00  0.00    +0.000 OA
ATOM      3  N   UNL     1       2.778   2.730  17.811  0.00  0.00    +0.000 N 
ATOM      4  H   UNL     1       2.524   3.138  16.920  0.00  0.00    +0.000 HD
ENDROOT
BRANCH   1  10
ATOM      5  C   UNL     1       6.019   3.811  13.366  0.00  0.00    +0.000 C 
ATOM      6  C   UNL     1       6.657   4.667  14.420  0.00  0.00    +0.000 C 
ATOM      7  O   UNL     1       7.548   5.477  14.186  0.00  0.00    +0.000 OA
ATOM      8  N   UNL     1       6.169   4.480  15.733  0.00  0.00    +0.000 N 
ATOM      9  C   UNL     1       5.162   3.602  16.120  0.00  0.00    +0.000 A 
ATOM     10  C   UNL     1       4.989   3.644  17.491  0.00  0.00    +0.000 A 
ATOM     11  C   UNL     1       5.916   4.619  17.976  0.00  0.00    +0.000 A 
ATOM     12  C   UNL     1       6.216   5.107  19.270  0.00  0.00    +0.000 A 
ATOM     13  C   UNL     1       7.179   6.100  19.448  0.00  0.00    +0.000 A 
ATOM     14  C   UNL     1       7.851   6.618  18.351  0.00  0.00    +0.000 A 
ATOM     15  C   UNL     1       7.588   6.150  17.060  0.00  0.00    +0.000 A 
ATOM     16  C   UNL     1       6.617   5.141  16.882  0.00  0.00    +0.000 A 
ENDBRANCH   1  10
BRANCH   3  17
ATOM     17  C   UNL     1       1.777   1.978  18.541  0.00  0.00    +0.000 C 
BRANCH  17  18
ATOM     18  C   UNL     1       0.741   2.858  19.241  0.00  0.00    +0.000 C 
BRANCH  18  19
ATOM     19  N   UNL     1       1.305   4.002  19.937  0.00  0.00    +0.000 N 
ATOM     20  C   UNL     1       1.605   5.262  19.289  0.00  0.00    +0.000 C 
ATOM     21  C   UNL     1       1.964   6.152  20.472  0.00  0.00    +0.000 C 
ATOM     22  N   UNL     1       2.425   5.206  21.457  0.00  0.00    +0.000 N 
ATOM     23  C   UNL     1       1.929   3.937  21.178  0.00  0.00    +0.000 C 
ATOM     24  O   UNL     1       2.028   2.962  21.901  0.00  0.00    +0.000 OA
ATOM     25  H   UNL     1       2.754   5.429  22.385  0.00  0.00    +0.000 HD
ENDBRANCH  18  19
ENDBRANCH  17  18
ENDBRANCH   3  17
TORSDOF 4
ENDMDL
MODEL 3
REMARK VINA RESULT:      -7.9      2.219      2.456
REMARK  Name = 
REMARK  5 active torsions:
REMARK  status: ('A' for Active; 'I' for Inactive)
REMARK    1  A    between atoms: C_1  and  C_2
REMARK    2  A    between atoms: C_6  and  C_7
REMARK    3  A    between atoms: N_9  and  C_10
REMARK    4  A    between atoms: C_10  and  C_11
REMARK    5  A    between atoms: C_11  and  N_12
REMARK                            x       y       z     vdW  Elec       q    Type
REMARK                         _______ _______ _______ _____ _____    ______ ____
ROOT
ATOM      1  C   UNL     1       2.211   8.214  18.316  0.00  0.00    +0.000 C 
ATOM      2  O   UNL     1       2.341   8.820  17.255  0.00  0.00    +0.000 OA
ATOM      3  N   UNL     1       1.579   8.785  19.397  0.00  0.00    +0.000 N 
ATOM      4  H   UNL     1       1.501   8.284  20.273  0.00  0.00    +0.000 HD
ENDROOT
BRANCH   1  10
ATOM      5  C   UNL     1       1.980   3.681  21.241  0.00  0.00    +0.000 C 
ATOM      6  C   UNL     1       2.982   3.604  20.126  0.00  0.00    +0.000 C 
ATOM      7  O   UNL     1       3.690   2.625  19.920  0.00  0.00    +0.000 OA
ATOM      8  N   UNL     1       3.073   4.755  19.310  0.00  0.00    +0.000 N 
ATOM      9  C   UNL     1       2.323   5.918  19.441  0.00  0.00    +0.000 A 
ATOM     10  C   UNL     1       2.722   6.855  18.506  0.00  0.00    +0.000 A 
ATOM     11  C   UNL     1       3.755   6.230  17.738  0.00  0.00    +0.000 A 
ATOM     12  C   UNL     1       4.549   6.667  16.652  0.00  0.00    +0.000 A 
ATOM     13  C   UNL     1       5.489   5.815  16.072  0.00  0.00    +0.000 A 
ATOM     14  C   UNL     1       5.651   4.527  16.560  0.00  0.00    +0.000 A 
ATOM     15  C   UNL     1       4.889   4.067  17.640  0.00  0.00    +0.000 A 
ATOM     16  C   UNL     1       3.943   4.933  18.229  0.00  0.00    +0.000 A 
ENDBRANCH   1  10
BRANCH   3  17
ATOM     17  C   UNL     1       1.037  10.126  19.313  0.00  0.00    +0.000 C 
BRANCH  17  18
ATOM     18  C   UNL     1      -0.472  10.191  19.546  0.00  0.00    +0.000 C 
BRANCH  18  19
ATOM     19  N   UNL     1      -1.232  10.653  18.398  0.00  0.00    +0.000 N 
ATOM     20  C   UNL     1      -1.595   9.800  17.285  0.00  0.00    +0.000 C 
ATOM     21  C   UNL     1      -2.531  10.697  16.486  0.00  0.00    +0.000 C 
ATOM     22  N   UNL     1      -2.093  12.022  16.848  0.00  0.00    +0.000 N 
ATOM     23  C   UNL     1      -1.406  11.991  18.057  0.00  0.00    +0.000 C 
ATOM     24  O   UNL     1      -1.037  12.964  18.689  0.00  0.00    +0.000 OA
ATOM     25  H   UNL     1      -2.485  12.889  16.510  0.00  0.00    +0.000 HD
ENDBRANCH  18  19
ENDBRANCH  17  18
ENDBRANCH   3  17
TORSDOF 4
ENDMDL
MODEL 4
REMARK VINA RESULT:      -7.9      2.184      3.614
REMARK  Name = 
REMARK  5 active torsions:
REMARK  status: ('A' for Active; 'I' for Inactive)
REMARK    1  A    between atoms: C_1  and  C_2
REMARK    2  A    between atoms: C_6  and  C_7
REMARK    3  A    between atoms: N_9  and  C_10
REMARK    4  A    between atoms: C_10  and  C_11
REMARK    5  A    between atoms: C_11  and  N_12
REMARK                            x       y       z     vdW  Elec       q    Type
REMARK                         _______ _______ _______ _____ _____    ______ ____
ROOT
ATOM      1  C   UNL     1       1.863   7.873  19.944  0.00  0.00    +0.000 C 
ATOM      2  O   UNL     1       1.713   7.926  21.162  0.00  0.00    +0.000 OA
ATOM      3  N   UNL     1       1.486   8.915  19.127  0.00  0.00    +0.000 N 
ATOM      4  H   UNL     1       1.593   8.848  18.123  0.00  0.00    +0.000 HD
ENDROOT
BRANCH   1  10
ATOM      5  C   UNL     1       5.156   6.067  16.064  0.00  0.00    +0.000 C 
ATOM      6  C   UNL     1       4.505   4.958  16.838  0.00  0.00    +0.000 C 
ATOM      7  O   UNL     1       4.683   3.769  16.596  0.00  0.00    +0.000 OA
ATOM      8  N   UNL     1       3.647   5.369  17.883  0.00  0.00    +0.000 N 
ATOM      9  C   UNL     1       3.372   6.680  18.255  0.00  0.00    +0.000 A 
ATOM     10  C   UNL     1       2.443   6.704  19.279  0.00  0.00    +0.000 A 
ATOM     11  C   UNL     1       2.149   5.336  19.576  0.00  0.00    +0.000 A 
ATOM     12  C   UNL     1       1.287   4.715  20.512  0.00  0.00    +0.000 A 
ATOM     13  C   UNL     1       1.215   3.325  20.595  0.00  0.00    +0.000 A 
ATOM     14  C   UNL     1       1.992   2.539  19.757  0.00  0.00    +0.000 A 
ATOM     15  C   UNL     1       2.845   3.121  18.814  0.00  0.00    +0.000 A 
ATOM     16  C   UNL     1       2.912   4.528  18.727  0.00  0.00    +0.000 A 
ENDBRANCH   1  10
BRANCH   3  17
ATOM     17  C   UNL     1       0.903  10.118  19.686  0.00  0.00    +0.000 C 
BRANCH  17  18
ATOM     18  C   UNL     1      -0.626  10.098  19.718  0.00  0.00    +0.000 C 
BRANCH  18  19
ATOM     19  N   UNL     1      -1.254  10.645  18.529  0.00  0.00    +0.000 N 
ATOM     20  C   UNL     1      -1.594   9.850  17.367  0.00  0.00    +0.000 C 
ATOM     21  C   UNL     1      -2.391  10.837  16.526  0.00  0.00    +0.000 C 
ATOM     22  N   UNL     1      -1.879  12.114  16.958  0.00  0.00    +0.000 N 
ATOM     23  C   UNL     1      -1.294  12.000  18.214  0.00  0.00    +0.000 C 
ATOM     24  O   UNL     1      -0.900  12.926  18.900  0.00  0.00    +0.000 OA
ATOM     25  H   UNL     1      -2.173  13.017  16.615  0.00  0.00    +0.000 HD
ENDBRANCH  18  19
ENDBRANCH  17  18
ENDBRANCH   3  17
TORSDOF 4
ENDMDL
MODEL 5
REMARK VINA RESULT:      -7.7      1.404      1.796
REMARK  Name = 
REMARK  5 active torsions:
REMARK  status: ('A' for Active; 'I' for Inactive)
REMARK    1  A    between atoms: C_1  and  C_2
REMARK    2  A    between atoms: C_6  and  C_7
REMARK    3  A    between atoms: N_9  and  C_10
REMARK    4  A    between atoms: C_10  and  C_11
REMARK    5  A    between atoms: C_11  and  N_12
REMARK                            x       y       z     vdW  Elec       q    Type
REMARK                         _______ _______ _______ _____ _____    ______ ____
ROOT
ATOM      1  C   UNL     1       2.285   8.081  18.176  0.00  0.00    +0.000 C 
ATOM      2  O   UNL     1       2.448   8.769  17.171  0.00  0.00    +0.000 OA
ATOM      3  N   UNL     1       1.701   8.595  19.313  0.00  0.00    +0.000 N 
ATOM      4  H   UNL     1       1.596   8.024  20.142  0.00  0.00    +0.000 HD
ENDROOT
BRANCH   1  10
ATOM      5  C   UNL     1       1.574   3.265  20.514  0.00  0.00    +0.000 C 
ATOM      6  C   UNL     1       2.655   3.253  19.473  0.00  0.00    +0.000 C 
ATOM      7  O   UNL     1       3.322   2.261  19.202  0.00  0.00    +0.000 OA
ATOM      8  N   UNL     1       2.874   4.482  18.809  0.00  0.00    +0.000 N 
ATOM      9  C   UNL     1       2.180   5.669  19.024  0.00  0.00    +0.000 A 
ATOM     10  C   UNL     1       2.704   6.679  18.239  0.00  0.00    +0.000 A 
ATOM     11  C   UNL     1       3.758   6.082  17.478  0.00  0.00    +0.000 A 
ATOM     12  C   UNL     1       4.659   6.590  16.512  0.00  0.00    +0.000 A 
ATOM     13  C   UNL     1       5.593   5.752  15.904  0.00  0.00    +0.000 A 
ATOM     14  C   UNL     1       5.644   4.409  16.245  0.00  0.00    +0.000 A 
ATOM     15  C   UNL     1       4.776   3.877  17.204  0.00  0.00    +0.000 A 
ATOM     16  C   UNL     1       3.835   4.728  17.822  0.00  0.00    +0.000 A 
ENDBRANCH   1  10
BRANCH   3  17
ATOM     17  C   UNL     1       1.251   9.971  19.354  0.00  0.00    +0.000 C 
BRANCH  17  18
ATOM     18  C   UNL     1      -0.240  10.118  19.657  0.00  0.00    +0.000 C 
BRANCH  18  19
ATOM     19  N   UNL     1      -0.556  10.195  21.072  0.00  0.00    +0.000 N 
ATOM     20  C   UNL     1      -0.641  11.441  21.805  0.00  0.00    +0.000 C 
ATOM     21  C   UNL     1      -1.188  10.983  23.151  0.00  0.00    +0.000 C 
ATOM     22  N   UNL     1      -0.750   9.612  23.226  0.00  0.00    +0.000 N 
ATOM     23  C   UNL     1      -0.477   9.121  21.954  0.00  0.00    +0.000 C 
ATOM     24  O   UNL     1      -0.224   7.962  21.679  0.00  0.00    +0.000 OA
ATOM     25  H   UNL     1      -0.926   8.974  23.989  0.00  0.00    +0.000 HD
ENDBRANCH  18  19
ENDBRANCH  17  18
ENDBRANCH   3  17
TORSDOF 4
ENDMDL
MODEL 6
REMARK VINA RESULT:      -7.7      1.753      3.008
REMARK  Name = 
REMARK  5 active torsions:
REMARK  status: ('A' for Active; 'I' for Inactive)
REMARK    1  A    between atoms: C_1  and  C_2
REMARK    2  A    between atoms: C_6  and  C_7
REMARK    3  A    between atoms: N_9  and  C_10
REMARK    4  A    between atoms: C_10  and  C_11
REMARK    5  A    between atoms: C_11  and  N_12
REMARK                            x       y       z     vdW  Elec       q    Type
REMARK                         _______ _______ _______ _____ _____    ______ ____
ROOT
ATOM      1  C   UNL     1       2.448   8.101  18.146  0.00  0.00    +0.000 C 
ATOM      2  O   UNL     1       2.165   8.927  17.282  0.00  0.00    +0.000 OA
ATOM      3  N   UNL     1       1.908   8.170  19.411  0.00  0.00    +0.000 N 
ATOM      4  H   UNL     1       2.169   7.498  20.121  0.00  0.00    +0.000 HD
ENDROOT
BRANCH   1  10
ATOM      5  C   UNL     1       7.549   6.647  17.128  0.00  0.00    +0.000 C 
ATOM      6  C   UNL     1       6.611   5.477  17.191  0.00  0.00    +0.000 C 
ATOM      7  O   UNL     1       6.963   4.318  17.005  0.00  0.00    +0.000 OA
ATOM      8  N   UNL     1       5.263   5.793  17.476  0.00  0.00    +0.000 N 
ATOM      9  C   UNL     1       4.747   7.063  17.711  0.00  0.00    +0.000 A 
ATOM     10  C   UNL     1       3.378   6.997  17.897  0.00  0.00    +0.000 A 
ATOM     11  C   UNL     1       3.032   5.613  17.800  0.00  0.00    +0.000 A 
ATOM     12  C   UNL     1       1.805   4.915  17.899  0.00  0.00    +0.000 A 
ATOM     13  C   UNL     1       1.768   3.526  17.779  0.00  0.00    +0.000 A 
ATOM     14  C   UNL     1       2.940   2.817  17.563  0.00  0.00    +0.000 A 
ATOM     15  C   UNL     1       4.168   3.477  17.450  0.00  0.00    +0.000 A 
ATOM     16  C   UNL     1       4.203   4.883  17.565  0.00  0.00    +0.000 A 
ENDBRANCH   1  10
BRANCH   3  17
ATOM     17  C   UNL     1       0.977   9.224  19.760  0.00  0.00    +0.000 C 
BRANCH  17  18
ATOM     18  C   UNL     1       0.269   8.996  21.096  0.00  0.00    +0.000 C 
BRANCH  18  19
ATOM     19  N   UNL     1      -0.439  10.160  21.600  0.00  0.00    +0.000 N 
ATOM     20  C   UNL     1      -0.853  11.267  20.763  0.00  0.00    +0.000 C 
ATOM     21  C   UNL     1      -1.708  12.088  21.719  0.00  0.00    +0.000 C 
ATOM     22  N   UNL     1      -1.173  11.736  23.011  0.00  0.00    +0.000 N 
ATOM     23  C   UNL     1      -0.505  10.519  22.942  0.00  0.00    +0.000 C 
ATOM     24  O   UNL     1      -0.070   9.893  23.893  0.00  0.00    +0.000 OA
ATOM     25  H   UNL     1      -1.492  12.090  23.901  0.00  0.00    +0.000 HD
ENDBRANCH  18  19
ENDBRANCH  17  18
ENDBRANCH   3  17
TORSDOF 4
ENDMDL
MODEL 7
REMARK VINA RESULT:      -7.7      0.898      1.234
REMARK  Name = 
REMARK  5 active torsions:
REMARK  status: ('A' for Active; 'I' for Inactive)
REMARK    1  A    between atoms: C_1  and  C_2
REMARK    2  A    between atoms: C_6  and  C_7
REMARK    3  A    between atoms: N_9  and  C_10
REMARK    4  A    between atoms: C_10  and  C_11
REMARK    5  A    between atoms: C_11  and  N_12
REMARK                            x       y       z     vdW  Elec       q    Type
REMARK                         _______ _______ _______ _____ _____    ______ ____
ROOT
ATOM      1  C   UNL     1       2.149   7.435  19.500  0.00  0.00    +0.000 C 
ATOM      2  O   UNL     1       2.076   8.469  18.841  0.00  0.00    +0.000 OA
ATOM      3  N   UNL     1       1.853   7.417  20.845  0.00  0.00    +0.000 N 
ATOM      4  H   UNL     1       1.941   6.563  21.382  0.00  0.00    +0.000 HD
ENDROOT
BRANCH   1  10
ATOM      5  C   UNL     1       1.569   2.066  19.519  0.00  0.00    +0.000 C 
ATOM      6  C   UNL     1       2.571   2.540  18.506  0.00  0.00    +0.000 C 
ATOM      7  O   UNL     1       3.207   1.785  17.780  0.00  0.00    +0.000 OA
ATOM      8  N   UNL     1       2.751   3.940  18.439  0.00  0.00    +0.000 N 
ATOM      9  C   UNL     1       2.085   4.894  19.203  0.00  0.00    +0.000 A 
ATOM     10  C   UNL     1       2.559   6.159  18.909  0.00  0.00    +0.000 A 
ATOM     11  C   UNL     1       3.549   5.984  17.891  0.00  0.00    +0.000 A 
ATOM     12  C   UNL     1       4.380   6.887  17.188  0.00  0.00    +0.000 A 
ATOM     13  C   UNL     1       5.260   6.425  16.209  0.00  0.00    +0.000 A 
ATOM     14  C   UNL     1       5.324   5.071  15.918  0.00  0.00    +0.000 A 
ATOM     15  C   UNL     1       4.524   4.151  16.603  0.00  0.00    +0.000 A 
ATOM     16  C   UNL     1       3.638   4.619  17.597  0.00  0.00    +0.000 A 
ENDBRANCH   1  10
BRANCH   3  17
ATOM     17  C   UNL     1       1.438   8.626  21.527  0.00  0.00    +0.000 C 
BRANCH  17  18
ATOM     18  C   UNL     1      -0.080   8.792  21.606  0.00  0.00    +0.000 C 
BRANCH  18  19
ATOM     19  N   UNL     1      -0.518  10.157  21.835  0.00  0.00    +0.000 N 
ATOM     20  C   UNL     1      -1.058  10.622  23.096  0.00  0.00    +0.000 C 
ATOM     21  C   UNL     1      -1.157  12.124  22.867  0.00  0.00    +0.000 C 
ATOM     22  N   UNL     1      -1.285  12.223  21.435  0.00  0.00    +0.000 N 
ATOM     23  C   UNL     1      -0.796  11.073  20.825  0.00  0.00    +0.000 C 
ATOM     24  O   UNL     1      -0.640  10.916  19.627  0.00  0.00    +0.000 OA
ATOM     25  H   UNL     1      -1.377  13.078  20.906  0.00  0.00    +0.000 HD
ENDBRANCH  18  19
ENDBRANCH  17  18
ENDBRANCH   3  17
TORSDOF 4
ENDMDL
MODEL 8
REMARK VINA RESULT:      -7.7      4.242      6.097
REMARK  Name = 
REMARK  5 active torsions:
REMARK  status: ('A' for Active; 'I' for Inactive)
REMARK    1  A    between atoms: C_1  and  C_2
REMARK    2  A    between atoms: C_6  and  C_7
REMARK    3  A    between atoms: N_9  and  C_10
REMARK    4  A    between atoms: C_10  and  C_11
REMARK    5  A    between atoms: C_11  and  N_12
REMARK                            x       y       z     vdW  Elec       q    Type
REMARK                         _______ _______ _______ _____ _____    ______ ____
ROOT
ATOM      1  C   UNL     1       3.841   2.728  17.733  0.00  0.00    +0.000 C 
ATOM      2  O   UNL     1       4.107   1.938  18.634  0.00  0.00    +0.000 OA
ATOM      3  N   UNL     1       2.552   2.890  17.276  0.00  0.00    +0.000 N 
ATOM      4  H   UNL     1       2.350   3.528  16.515  0.00  0.00    +0.000 HD
ENDROOT
BRANCH   1  10
ATOM      5  C   UNL     1       6.345   3.974  13.113  0.00  0.00    +0.000 C 
ATOM      6  C   UNL     1       6.874   4.742  14.288  0.00  0.00    +0.000 C 
ATOM      7  O   UNL     1       7.795   5.548  14.210  0.00  0.00    +0.000 OA
ATOM      8  N   UNL     1       6.243   4.475  15.524  0.00  0.00    +0.000 N 
ATOM      9  C   UNL     1       5.189   3.592  15.737  0.00  0.00    +0.000 A 
ATOM     10  C   UNL     1       4.868   3.544  17.080  0.00  0.00    +0.000 A 
ATOM     11  C   UNL     1       5.749   4.464  17.730  0.00  0.00    +0.000 A 
ATOM     12  C   UNL     1       5.911   4.856  19.081  0.00  0.00    +0.000 A 
ATOM     13  C   UNL     1       6.861   5.814  19.432  0.00  0.00    +0.000 A 
ATOM     14  C   UNL     1       7.656   6.393  18.454  0.00  0.00    +0.000 A 
ATOM     15  C   UNL     1       7.529   6.020  17.111  0.00  0.00    +0.000 A 
ATOM     16  C   UNL     1       6.571   5.045  16.759  0.00  0.00    +0.000 A 
ENDBRANCH   1  10
BRANCH   3  17
ATOM     17  C   UNL     1       1.462   2.131  17.854  0.00  0.00    +0.000 C 
BRANCH  17  18
ATOM     18  C   UNL     1       0.620   2.932  18.848  0.00  0.00    +0.000 C 
BRANCH  18  19
ATOM     19  N   UNL     1       1.367   3.451  19.979  0.00  0.00    +0.000 N 
ATOM     20  C   UNL     1       1.282   2.897  21.315  0.00  0.00    +0.000 C 
ATOM     21  C   UNL     1       2.387   3.651  22.045  0.00  0.00    +0.000 C 
ATOM     22  N   UNL     1       2.490   4.876  21.293  0.00  0.00    +0.000 N 
ATOM     23  C   UNL     1       1.969   4.705  20.015  0.00  0.00    +0.000 C 
ATOM     24  O   UNL     1       2.040   5.512  19.105  0.00  0.00    +0.000 OA
ATOM     25  H   UNL     1       3.126   5.637  21.483  0.00  0.00    +0.000 HD
ENDBRANCH  18  19
ENDBRANCH  17  18
ENDBRANCH   3  17
TORSDOF 4
ENDMDL
MODEL 9
REMARK VINA RESULT:      -7.7      1.877      2.128
REMARK  Name = 
REMARK  5 active torsions:
REMARK  status: ('A' for Active; 'I' for Inactive)
REMARK    1  A    between atoms: C_1  and  C_2
REMARK    2  A    between atoms: C_6  and  C_7
REMARK    3  A    between atoms: N_9  and  C_10
REMARK    4  A    between atoms: C_10  and  C_11
REMARK    5  A    between atoms: C_11  and  N_12
REMARK                            x       y       z     vdW  Elec       q    Type
REMARK                         _______ _______ _______ _____ _____    ______ ____
ROOT
ATOM      1  C   UNL     1       2.232   7.860  18.276  0.00  0.00    +0.000 C 
ATOM      2  O   UNL     1       2.314   8.724  17.407  0.00  0.00    +0.000 OA
ATOM      3  N   UNL     1       1.774   8.153  19.541  0.00  0.00    +0.000 N 
ATOM      4  H   UNL     1       1.735   7.435  20.255  0.00  0.00    +0.000 HD
ENDROOT
BRANCH   1  10
ATOM      5  C   UNL     1       0.924   2.651  18.841  0.00  0.00    +0.000 C 
ATOM      6  C   UNL     1       2.244   2.849  18.156  0.00  0.00    +0.000 C 
ATOM      7  O   UNL     1       2.960   1.924  17.788  0.00  0.00    +0.000 OA
ATOM      8  N   UNL     1       2.632   4.194  17.960  0.00  0.00    +0.000 N 
ATOM      9  C   UNL     1       1.906   5.322  18.326  0.00  0.00    +0.000 A 
ATOM     10  C   UNL     1       2.620   6.469  18.032  0.00  0.00    +0.000 A 
ATOM     11  C   UNL     1       3.840   6.030  17.427  0.00  0.00    +0.000 A 
ATOM     12  C   UNL     1       4.966   6.717  16.917  0.00  0.00    +0.000 A 
ATOM     13  C   UNL     1       6.030   6.014  16.352  0.00  0.00    +0.000 A 
ATOM     14  C   UNL     1       5.989   4.630  16.287  0.00  0.00    +0.000 A 
ATOM     15  C   UNL     1       4.895   3.919  16.792  0.00  0.00    +0.000 A 
ATOM     16  C   UNL     1       3.822   4.632  17.369  0.00  0.00    +0.000 A 
ENDBRANCH   1  10
BRANCH   3  17
ATOM     17  C   UNL     1       1.365   9.499  19.886  0.00  0.00    +0.000 C 
BRANCH  17  18
ATOM     18  C   UNL     1      -0.136   9.741  19.728  0.00  0.00    +0.000 C 
BRANCH  18  19
ATOM     19  N   UNL     1      -0.470  10.938  18.978  0.00  0.00    +0.000 N 
ATOM     20  C   UNL     1      -0.229  12.280  19.465  0.00  0.00    +0.000 C 
ATOM     21  C   UNL     1      -0.557  13.128  18.244  0.00  0.00    +0.000 C 
ATOM     22  N   UNL     1      -1.487  12.299  17.517  0.00  0.00    +0.000 N 
ATOM     23  C   UNL     1      -1.344  10.969  17.895  0.00  0.00    +0.000 C 
ATOM     24  O   UNL     1      -1.887  10.017  17.362  0.00  0.00    +0.000 OA
ATOM     25  H   UNL     1      -1.930  12.533  16.641  0.00  0.00    +0.000 HD
ENDBRANCH  18  19
ENDBRANCH  17  18
ENDBRANCH   3  17
TORSDOF 4
ENDMDL
