MODEL 1
REMARK VINA RESULT:      -8.2      0.000      0.000
REMARK  Name = 
REMARK  5 active torsions:
REMARK  status: ('A' for Active; 'I' for Inactive)
REMARK    1  A    between atoms: C_1  and  C_2
REMARK    2  A    between atoms: C_2  and  C_3
REMARK    3  A    between atoms: C_7  and  C_8
REMARK    4  A    between atoms: C_19  and  O_20
REMARK    5  A    between atoms: C_24  and  O_25
REMARK                            x       y       z     vdW  Elec       q    Type
REMARK                         _______ _______ _______ _____ _____    ______ ____
ROOT
ATOM      1  C   UNL     1      -1.399   9.936  20.473  0.00  0.00    +0.000 C 
ATOM      2  C   UNL     1      -0.052  10.142  21.201  0.00  0.00    +0.000 C 
ATOM      3  C   UNL     1      -0.350  10.665  22.614  0.00  0.00    +0.000 C 
ATOM      4  O   UNL     1       0.561   8.852  21.409  0.00  0.00    +0.000 OA
ATOM      5  C   UNL     1       1.272   8.311  20.362  0.00  0.00    +0.000 A 
ATOM      6  C   UNL     1       1.708   6.978  20.575  0.00  0.00    +0.000 A 
ATOM      7  C   UNL     1       2.422   6.299  19.590  0.00  0.00    +0.000 A 
ATOM      8  C   UNL     1       2.599   7.054  18.379  0.00  0.00    +0.000 A 
ATOM      9  C   UNL     1       2.157   8.351  18.170  0.00  0.00    +0.000 A 
ATOM     10  C   UNL     1       1.555   9.051  19.187  0.00  0.00    +0.000 A 
ATOM     11  C   UNL     1       1.210  10.524  19.054  0.00  0.00    +0.000 C 
ATOM     12  C   UNL     1       2.276  11.398  18.343  0.00  0.00    +0.000 C 
ATOM     13  C   UNL     1       1.885  12.873  18.309  0.00  0.00    +0.000 C 
ATOM     14  C   UNL     1       1.641  13.398  19.710  0.00  0.00    +0.000 C 
ATOM     15  C   UNL     1       0.570  12.569  20.425  0.00  0.00    +0.000 C 
ATOM     16  C   UNL     1       0.945  11.077  20.466  0.00  0.00    +0.000 C 
ENDROOT
BRANCH   7  17
ATOM     17  C   UNL     1       3.042   4.794  19.710  0.00  0.00    +0.000 C 
ATOM     18  C   UNL     1       4.557   4.727  19.542  0.00  0.00    +0.000 C 
ATOM     19  C   UNL     1       4.455   3.328  19.035  0.00  0.00    +0.000 C 
ATOM     20  C   UNL     1       3.443   2.443  20.336  0.00  0.00    +0.000 C 
ATOM     21  C   UNL     1       1.919   3.418  20.757  0.00  0.00    +0.000 C 
ATOM     22  C   UNL     1       0.880   4.099  19.271  0.00  0.00    +0.000 C 
ATOM     23  C   UNL     1       1.856   4.149  17.735  0.00  0.00    +0.000 C 
ATOM     24  C   UNL     1       3.594   3.857  17.472  0.00  0.00    +0.000 C 
ATOM     25  C   UNL     1       2.308   3.239  18.673  0.00  0.00    +0.000 C 
ATOM     26  C   UNL     1       2.805   4.501  21.190  0.00  0.00    +0.000 C 
ENDBRANCH   7  17
BRANCH   9  27
ATOM     27  O   UNL     1       2.349   8.906  16.945  0.00  0.00    +0.000 OA
ATOM     28  H   UNL     1       3.212   8.615  16.590  0.00  0.00    +0.000 HD
ENDBRANCH   9  27
BRANCH  13  29
ATOM     29  O   UNL     1       2.909  13.646  17.690  0.00  0.00    +0.000 OA
ATOM     30  H   UNL     1       2.753  13.646  16.731  0.00  0.00    +0.000 HD
ENDBRANCH  13  29
TORSDOF 3
ENDMDL
MODEL 2
REMARK VINA RESULT:      -7.4      8.631     10.915
REMARK  Name = 
REMARK  5 active torsions:
REMARK  status: ('A' for Active; 'I' for Inactive)
REMARK    1  A    between atoms: C_1  and  C_2
REMARK    2  A    between atoms: C_2  and  C_3
REMARK    3  A    between atoms: C_7  and  C_8
REMARK    4  A    between atoms: C_19  and  O_20
REMARK    5  A    between atoms: C_24  and  O_25
REMARK                            x       y       z     vdW  Elec       q    Type
REMARK                         _______ _______ _______ _____ _____    ______ ____
ROOT
ATOM      1  C   UNL     1       9.354  14.908  25.671  0.00  0.00    +0.000 C 
ATOM      2  C   UNL     1       8.087  15.166  24.825  0.00  0.00    +0.000 C 
ATOM      3  C   UNL     1       7.461  16.488  25.297  0.00  0.00    +0.000 C 
ATOM      4  O   UNL     1       8.488  15.417  23.461  0.00  0.00    +0.000 OA
ATOM      5  C   UNL     1       8.733  14.325  22.660  0.00  0.00    +0.000 A 
ATOM      6  C   UNL     1       9.277  14.638  21.389  0.00  0.00    +0.000 A 
ATOM      7  C   UNL     1       9.593  13.629  20.482  0.00  0.00    +0.000 A 
ATOM      8  C   UNL     1       9.366  12.303  20.992  0.00  0.00    +0.000 A 
ATOM      9  C   UNL     1       8.849  12.001  22.242  0.00  0.00    +0.000 A 
ATOM     10  C   UNL     1       8.434  13.005  23.082  0.00  0.00    +0.000 A 
ATOM     11  C   UNL     1       7.709  12.714  24.385  0.00  0.00    +0.000 C 
ATOM     12  C   UNL     1       6.652  11.582  24.321  0.00  0.00    +0.000 C 
ATOM     13  C   UNL     1       5.923  11.397  25.650  0.00  0.00    +0.000 C 
ATOM     14  C   UNL     1       5.265  12.690  26.087  0.00  0.00    +0.000 C 
ATOM     15  C   UNL     1       6.293  13.821  26.185  0.00  0.00    +0.000 C 
ATOM     16  C   UNL     1       7.042  14.019  24.855  0.00  0.00    +0.000 C 
ENDROOT
BRANCH   7  17
ATOM     17  C   UNL     1      10.163  13.833  18.967  0.00  0.00    +0.000 C 
ATOM     18  C   UNL     1       9.443  13.001  17.910  0.00  0.00    +0.000 C 
ATOM     19  C   UNL     1      10.669  12.985  17.062  0.00  0.00    +0.000 C 
ATOM     20  C   UNL     1      11.149  14.787  16.919  0.00  0.00    +0.000 C 
ATOM     21  C   UNL     1      11.154  15.601  18.589  0.00  0.00    +0.000 C 
ATOM     22  C   UNL     1      12.054  14.653  20.018  0.00  0.00    +0.000 C 
ATOM     23  C   UNL     1      12.258  12.886  19.629  0.00  0.00    +0.000 C 
ATOM     24  C   UNL     1      11.607  11.929  18.275  0.00  0.00    +0.000 C 
ATOM     25  C   UNL     1      12.117  13.705  18.523  0.00  0.00    +0.000 C 
ATOM     26  C   UNL     1       9.731  15.270  18.687  0.00  0.00    +0.000 C 
ENDBRANCH   7  17
BRANCH   9  27
ATOM     27  O   UNL     1       8.753  10.694  22.599  0.00  0.00    +0.000 OA
ATOM     28  H   UNL     1       8.153  10.612  23.366  0.00  0.00    +0.000 HD
ENDBRANCH   9  27
BRANCH  13  29
ATOM     29  O   UNL     1       4.931  10.380  25.537  0.00  0.00    +0.000 OA
ATOM     30  H   UNL     1       4.709  10.274  24.597  0.00  0.00    +0.000 HD
ENDBRANCH  13  29
TORSDOF 3
ENDMDL
MODEL 3
REMARK VINA RESULT:      -7.4      0.859      1.091
REMARK  Name = 
REMARK  5 active torsions:
REMARK  status: ('A' for Active; 'I' for Inactive)
REMARK    1  A    between atoms: C_1  and  C_2
REMARK    2  A    between atoms: C_2  and  C_3
REMARK    3  A    between atoms: C_7  and  C_8
REMARK    4  A    between atoms: C_19  and  O_20
REMARK    5  A    between atoms: C_24  and  O_25
REMARK                            x       y       z     vdW  Elec       q    Type
REMARK                         _______ _______ _______ _____ _____    ______ ____
ROOT
ATOM      1  C   UNL     1      -1.184   9.262  21.309  0.00  0.00    +0.000 C 
ATOM      2  C   UNL     1       0.263   9.492  21.798  0.00  0.00    +0.000 C 
ATOM      3  C   UNL     1       0.223   9.705  23.319  0.00  0.00    +0.000 C 
ATOM      4  O   UNL     1       1.010   8.270  21.619  0.00  0.00    +0.000 OA
ATOM      5  C   UNL     1       1.530   8.022  20.369  0.00  0.00    +0.000 A 
ATOM      6  C   UNL     1       2.109   6.737  20.217  0.00  0.00    +0.000 A 
ATOM      7  C   UNL     1       2.657   6.343  18.998  0.00  0.00    +0.000 A 
ATOM      8  C   UNL     1       2.516   7.325  17.957  0.00  0.00    +0.000 A 
ATOM      9  C   UNL     1       1.935   8.575  18.106  0.00  0.00    +0.000 A 
ATOM     10  C   UNL     1       1.502   8.996  19.339  0.00  0.00    +0.000 A 
ATOM     11  C   UNL     1       1.016  10.415  19.578  0.00  0.00    +0.000 C 
ATOM     12  C   UNL     1       1.837  11.528  18.876  0.00  0.00    +0.000 C 
ATOM     13  C   UNL     1       1.327  12.926  19.219  0.00  0.00    +0.000 C 
ATOM     14  C   UNL     1       1.336  13.149  20.718  0.00  0.00    +0.000 C 
ATOM     15  C   UNL     1       0.509  12.078  21.436  0.00  0.00    +0.000 C 
ATOM     16  C   UNL     1       1.005  10.661  21.098  0.00  0.00    +0.000 C 
ENDROOT
BRANCH   7  17
ATOM     17  C   UNL     1       3.409   4.929  18.688  0.00  0.00    +0.000 C 
ATOM     18  C   UNL     1       4.457   5.008  17.581  0.00  0.00    +0.000 C 
ATOM     19  C   UNL     1       4.249   3.567  17.258  0.00  0.00    +0.000 C 
ATOM     20  C   UNL     1       4.438   2.698  18.904  0.00  0.00    +0.000 C 
ATOM     21  C   UNL     1       3.420   3.540  20.211  0.00  0.00    +0.000 C 
ATOM     22  C   UNL     1       1.590   3.973  19.749  0.00  0.00    +0.000 C 
ATOM     23  C   UNL     1       1.338   3.990  17.946  0.00  0.00    +0.000 C 
ATOM     24  C   UNL     1       2.524   3.862  16.622  0.00  0.00    +0.000 C 
ATOM     25  C   UNL     1       2.406   3.219  18.369  0.00  0.00    +0.000 C 
ATOM     26  C   UNL     1       4.218   4.744  19.970  0.00  0.00    +0.000 C 
ENDBRANCH   7  17
BRANCH   9  27
ATOM     27  O   UNL     1       1.822   9.366  17.007  0.00  0.00    +0.000 OA
ATOM     28  H   UNL     1       0.906   9.699  16.942  0.00  0.00    +0.000 HD
ENDBRANCH   9  27
BRANCH  13  29
ATOM     29  O   UNL     1       2.133  13.919  18.592  0.00  0.00    +0.000 OA
ATOM     30  H   UNL     1       2.396  14.568  19.266  0.00  0.00    +0.000 HD
ENDBRANCH  13  29
TORSDOF 3
ENDMDL
MODEL 4
REMARK VINA RESULT:      -7.1      8.493     11.271
REMARK  Name = 
REMARK  5 active torsions:
REMARK  status: ('A' for Active; 'I' for Inactive)
REMARK    1  A    between atoms: C_1  and  C_2
REMARK    2  A    between atoms: C_2  and  C_3
REMARK    3  A    between atoms: C_7  and  C_8
REMARK    4  A    between atoms: C_19  and  O_20
REMARK    5  A    between atoms: C_24  and  O_25
REMARK                            x       y       z     vdW  Elec       q    Type
REMARK                         _______ _______ _______ _____ _____    ______ ____
ROOT
ATOM      1  C   UNL     1      12.305  11.916  19.445  0.00  0.00    +0.000 C 
ATOM      2  C   UNL     1      10.885  12.264  18.949  0.00  0.00    +0.000 C 
ATOM      3  C   UNL     1      10.476  11.215  17.904  0.00  0.00    +0.000 C 
ATOM      4  O   UNL     1       9.957  12.077  20.039  0.00  0.00    +0.000 OA
ATOM      5  C   UNL     1       9.831  13.102  20.948  0.00  0.00    +0.000 A 
ATOM      6  C   UNL     1       9.031  12.792  22.076  0.00  0.00    +0.000 A 
ATOM      7  C   UNL     1       8.833  13.730  23.087  0.00  0.00    +0.000 A 
ATOM      8  C   UNL     1       9.549  14.961  22.882  0.00  0.00    +0.000 A 
ATOM      9  C   UNL     1      10.342  15.254  21.784  0.00  0.00    +0.000 A 
ATOM     10  C   UNL     1      10.438  14.366  20.740  0.00  0.00    +0.000 A 
ATOM     11  C   UNL     1      11.158  14.718  19.450  0.00  0.00    +0.000 C 
ATOM     12  C   UNL     1      10.920  16.158  18.925  0.00  0.00    +0.000 C 
ATOM     13  C   UNL     1      11.623  16.411  17.593  0.00  0.00    +0.000 C 
ATOM     14  C   UNL     1      11.178  15.403  16.551  0.00  0.00    +0.000 C 
ATOM     15  C   UNL     1      11.428  13.971  17.033  0.00  0.00    +0.000 C 
ATOM     16  C   UNL     1      10.731  13.699  18.378  0.00  0.00    +0.000 C 
ENDROOT
BRANCH   7  17
ATOM     17  C   UNL     1       7.894  13.545  24.409  0.00  0.00    +0.000 C 
ATOM     18  C   UNL     1       8.269  12.348  25.278  0.00  0.00    +0.000 C 
ATOM     19  C   UNL     1       6.863  12.239  25.764  0.00  0.00    +0.000 C 
ATOM     20  C   UNL     1       6.453  13.962  26.366  0.00  0.00    +0.000 C 
ATOM     21  C   UNL     1       6.929  15.232  25.095  0.00  0.00    +0.000 C 
ATOM     22  C   UNL     1       6.391  14.882  23.268  0.00  0.00    +0.000 C 
ATOM     23  C   UNL     1       6.003  13.122  23.007  0.00  0.00    +0.000 C 
ATOM     24  C   UNL     1       6.226  11.727  24.092  0.00  0.00    +0.000 C 
ATOM     25  C   UNL     1       5.888  13.547  24.318  0.00  0.00    +0.000 C 
ATOM     26  C   UNL     1       8.309  14.763  25.231  0.00  0.00    +0.000 C 
ENDBRANCH   7  17
BRANCH   9  27
ATOM     27  O   UNL     1      11.004  16.441  21.767  0.00  0.00    +0.000 OA
ATOM     28  H   UNL     1      11.683  16.422  21.065  0.00  0.00    +0.000 HD
ENDBRANCH   9  27
BRANCH  13  29
ATOM     29  O   UNL     1      11.343  17.726  17.123  0.00  0.00    +0.000 OA
ATOM     30  H   UNL     1      11.188  17.681  16.165  0.00  0.00    +0.000 HD
ENDBRANCH  13  29
TORSDOF 3
ENDMDL
MODEL 5
REMARK VINA RESULT:      -7.1      8.586     10.721
REMARK  Name = 
REMARK  5 active torsions:
REMARK  status: ('A' for Active; 'I' for Inactive)
REMARK    1  A    between atoms: C_1  and  C_2
REMARK    2  A    between atoms: C_2  and  C_3
REMARK    3  A    between atoms: C_7  and  C_8
REMARK    4  A    between atoms: C_19  and  O_20
REMARK    5  A    between atoms: C_24  and  O_25
REMARK                            x       y       z     vdW  Elec       q    Type
REMARK                         _______ _______ _______ _____ _____    ______ ____
ROOT
ATOM      1  C   UNL     1       9.423  14.922  25.777  0.00  0.00    +0.000 C 
ATOM      2  C   UNL     1       8.245  15.193  24.815  0.00  0.00    +0.000 C 
ATOM      3  C   UNL     1       7.623  16.546  25.193  0.00  0.00    +0.000 C 
ATOM      4  O   UNL     1       8.772  15.390  23.485  0.00  0.00    +0.000 OA
ATOM      5  C   UNL     1       9.051  14.267  22.740  0.00  0.00    +0.000 A 
ATOM      6  C   UNL     1       9.714  14.525  21.514  0.00  0.00    +0.000 A 
ATOM      7  C   UNL     1      10.075  13.480  20.667  0.00  0.00    +0.000 A 
ATOM      8  C   UNL     1       9.762  12.177  21.191  0.00  0.00    +0.000 A 
ATOM      9  C   UNL     1       9.127  11.929  22.397  0.00  0.00    +0.000 A 
ATOM     10  C   UNL     1       8.673  12.970  23.170  0.00  0.00    +0.000 A 
ATOM     11  C   UNL     1       7.828  12.741  24.410  0.00  0.00    +0.000 C 
ATOM     12  C   UNL     1       6.744  11.639  24.285  0.00  0.00    +0.000 C 
ATOM     13  C   UNL     1       5.895  11.516  25.548  0.00  0.00    +0.000 C 
ATOM     14  C   UNL     1       5.243  12.842  25.889  0.00  0.00    +0.000 C 
ATOM     15  C   UNL     1       6.295  13.944  26.047  0.00  0.00    +0.000 C 
ATOM     16  C   UNL     1       7.165  14.079  24.784  0.00  0.00    +0.000 C 
ENDROOT
BRANCH   7  17
ATOM     17  C   UNL     1      10.783  13.621  19.204  0.00  0.00    +0.000 C 
ATOM     18  C   UNL     1      11.825  14.733  19.118  0.00  0.00    +0.000 C 
ATOM     19  C   UNL     1      11.571  14.880  17.655  0.00  0.00    +0.000 C 
ATOM     20  C   UNL     1      11.746  13.142  16.985  0.00  0.00    +0.000 C 
ATOM     21  C   UNL     1      10.764  11.942  18.008  0.00  0.00    +0.000 C 
ATOM     22  C   UNL     1       8.944  12.447  18.437  0.00  0.00    +0.000 C 
ATOM     23  C   UNL     1       8.680  14.238  18.246  0.00  0.00    +0.000 C 
ATOM     24  C   UNL     1       9.852  15.541  17.924  0.00  0.00    +0.000 C 
ATOM     25  C   UNL     1       9.727  13.729  17.499  0.00  0.00    +0.000 C 
ATOM     26  C   UNL     1      11.595  12.328  19.150  0.00  0.00    +0.000 C 
ENDBRANCH   7  17
BRANCH   9  27
ATOM     27  O   UNL     1       8.957  10.637  22.781  0.00  0.00    +0.000 OA
ATOM     28  H   UNL     1       8.372  10.185  22.142  0.00  0.00    +0.000 HD
ENDBRANCH   9  27
BRANCH  13  29
ATOM     29  O   UNL     1       4.884  10.527  25.376  0.00  0.00    +0.000 OA
ATOM     30  H   UNL     1       4.767  10.062  26.220  0.00  0.00    +0.000 HD
ENDBRANCH  13  29
TORSDOF 3
ENDMDL
MODEL 6
REMARK VINA RESULT:      -6.9      7.598     10.391
REMARK  Name = 
REMARK  5 active torsions:
REMARK  status: ('A' for Active; 'I' for Inactive)
REMARK    1  A    between atoms: C_1  and  C_2
REMARK    2  A    between atoms: C_2  and  C_3
REMARK    3  A    between atoms: C_7  and  C_8
REMARK    4  A    between atoms: C_19  and  O_20
REMARK    5  A    between atoms: C_24  and  O_25
REMARK                            x       y       z     vdW  Elec       q    Type
REMARK                         _______ _______ _______ _____ _____    ______ ____
ROOT
ATOM      1  C   UNL     1       9.662  14.755  22.395  0.00  0.00    +0.000 C 
ATOM      2  C   UNL     1       8.845  13.503  22.005  0.00  0.00    +0.000 C 
ATOM      3  C   UNL     1       8.873  12.529  23.193  0.00  0.00    +0.000 C 
ATOM      4  O   UNL     1       7.458  13.880  21.874  0.00  0.00    +0.000 OA
ATOM      5  C   UNL     1       7.063  14.441  20.681  0.00  0.00    +0.000 A 
ATOM      6  C   UNL     1       5.735  14.936  20.674  0.00  0.00    +0.000 A 
ATOM      7  C   UNL     1       5.209  15.547  19.539  0.00  0.00    +0.000 A 
ATOM      8  C   UNL     1       6.149  15.660  18.456  0.00  0.00    +0.000 A 
ATOM      9  C   UNL     1       7.452  15.189  18.471  0.00  0.00    +0.000 A 
ATOM     10  C   UNL     1       7.923  14.487  19.554  0.00  0.00    +0.000 A 
ATOM     11  C   UNL     1       9.282  13.810  19.543  0.00  0.00    +0.000 C 
ATOM     12  C   UNL     1       9.662  13.096  18.220  0.00  0.00    +0.000 C 
ATOM     13  C   UNL     1      11.010  12.386  18.312  0.00  0.00    +0.000 C 
ATOM     14  C   UNL     1      11.016  11.389  19.454  0.00  0.00    +0.000 C 
ATOM     15  C   UNL     1      10.672  12.075  20.780  0.00  0.00    +0.000 C 
ATOM     16  C   UNL     1       9.317  12.801  20.705  0.00  0.00    +0.000 C 
ENDROOT
BRANCH   7  17
ATOM     17  C   UNL     1       3.687  16.107  19.358  0.00  0.00    +0.000 C 
ATOM     18  C   UNL     1       3.330  17.260  20.293  0.00  0.00    +0.000 C 
ATOM     19  C   UNL     1       1.891  16.872  20.249  0.00  0.00    +0.000 C 
ATOM     20  C   UNL     1       1.502  16.764  18.422  0.00  0.00    +0.000 C 
ATOM     21  C   UNL     1       2.789  15.759  17.536  0.00  0.00    +0.000 C 
ATOM     22  C   UNL     1       3.285  14.069  18.342  0.00  0.00    +0.000 C 
ATOM     23  C   UNL     1       2.825  14.004  20.102  0.00  0.00    +0.000 C 
ATOM     24  C   UNL     1       2.194  15.283  21.170  0.00  0.00    +0.000 C 
ATOM     25  C   UNL     1       2.085  14.897  19.348  0.00  0.00    +0.000 C 
ATOM     26  C   UNL     1       3.776  16.748  17.975  0.00  0.00    +0.000 C 
ENDBRANCH   7  17
BRANCH   9  27
ATOM     27  O   UNL     1       8.235  15.428  17.388  0.00  0.00    +0.000 OA
ATOM     28  H   UNL     1       8.699  16.280  17.507  0.00  0.00    +0.000 HD
ENDBRANCH   9  27
BRANCH  13  29
ATOM     29  O   UNL     1      11.300  11.706  17.095  0.00  0.00    +0.000 OA
ATOM     30  H   UNL     1      10.953  10.801  17.161  0.00  0.00    +0.000 HD
ENDBRANCH  13  29
TORSDOF 3
ENDMDL
MODEL 7
REMARK VINA RESULT:      -6.8      8.715     10.700
REMARK  Name = 
REMARK  5 active torsions:
REMARK  status: ('A' for Active; 'I' for Inactive)
REMARK    1  A    between atoms: C_1  and  C_2
REMARK    2  A    between atoms: C_2  and  C_3
REMARK    3  A    between atoms: C_7  and  C_8
REMARK    4  A    between atoms: C_19  and  O_20
REMARK    5  A    between atoms: C_24  and  O_25
REMARK                            x       y       z     vdW  Elec       q    Type
REMARK                         _______ _______ _______ _____ _____    ______ ____
ROOT
ATOM      1  C   UNL     1       5.595  13.222  24.230  0.00  0.00    +0.000 C 
ATOM      2  C   UNL     1       6.818  12.414  24.717  0.00  0.00    +0.000 C 
ATOM      3  C   UNL     1       6.302  11.156  25.433  0.00  0.00    +0.000 C 
ATOM      4  O   UNL     1       7.528  11.914  23.563  0.00  0.00    +0.000 OA
ATOM      5  C   UNL     1       8.409  12.768  22.941  0.00  0.00    +0.000 A 
ATOM      6  C   UNL     1       8.949  12.275  21.727  0.00  0.00    +0.000 A 
ATOM      7  C   UNL     1       9.840  13.042  20.980  0.00  0.00    +0.000 A 
ATOM      8  C   UNL     1      10.083  14.347  21.535  0.00  0.00    +0.000 A 
ATOM      9  C   UNL     1       9.542  14.831  22.715  0.00  0.00    +0.000 A 
ATOM     10  C   UNL     1       8.756  14.024  23.501  0.00  0.00    +0.000 A 
ATOM     11  C   UNL     1       8.283  14.457  24.877  0.00  0.00    +0.000 C 
ATOM     12  C   UNL     1       9.333  15.204  25.739  0.00  0.00    +0.000 C 
ATOM     13  C   UNL     1       8.803  15.546  27.130  0.00  0.00    +0.000 C 
ATOM     14  C   UNL     1       8.342  14.295  27.851  0.00  0.00    +0.000 C 
ATOM     15  C   UNL     1       7.281  13.552  27.034  0.00  0.00    +0.000 C 
ATOM     16  C   UNL     1       7.797  13.203  25.626  0.00  0.00    +0.000 C 
ENDROOT
BRANCH   7  17
ATOM     17  C   UNL     1      10.588  12.590  19.603  0.00  0.00    +0.000 C 
ATOM     18  C   UNL     1      12.111  12.560  19.700  0.00  0.00    +0.000 C 
ATOM     19  C   UNL     1      12.226  12.824  18.237  0.00  0.00    +0.000 C 
ATOM     20  C   UNL     1      11.139  11.522  17.450  0.00  0.00    +0.000 C 
ATOM     21  C   UNL     1       9.478  11.463  18.281  0.00  0.00    +0.000 C 
ATOM     22  C   UNL     1       8.592  13.158  18.582  0.00  0.00    +0.000 C 
ATOM     23  C   UNL     1       9.763  14.550  18.510  0.00  0.00    +0.000 C 
ATOM     24  C   UNL     1      11.541  14.548  18.400  0.00  0.00    +0.000 C 
ATOM     25  C   UNL     1      10.171  13.421  17.824  0.00  0.00    +0.000 C 
ATOM     26  C   UNL     1      10.179  11.121  19.521  0.00  0.00    +0.000 C 
ENDBRANCH   7  17
BRANCH   9  27
ATOM     27  O   UNL     1       9.822  16.111  23.074  0.00  0.00    +0.000 OA
ATOM     28  H   UNL     1       9.253  16.368  23.825  0.00  0.00    +0.000 HD
ENDBRANCH   9  27
BRANCH  13  29
ATOM     29  O   UNL     1       9.811  16.190  27.904  0.00  0.00    +0.000 OA
ATOM     30  H   UNL     1      10.647  15.711  27.773  0.00  0.00    +0.000 HD
ENDBRANCH  13  29
TORSDOF 3
ENDMDL
MODEL 8
REMARK VINA RESULT:      -6.8      8.472     11.206
REMARK  Name = 
REMARK  5 active torsions:
REMARK  status: ('A' for Active; 'I' for Inactive)
REMARK    1  A    between atoms: C_1  and  C_2
REMARK    2  A    between atoms: C_2  and  C_3
REMARK    3  A    between atoms: C_7  and  C_8
REMARK    4  A    between atoms: C_19  and  O_20
REMARK    5  A    between atoms: C_24  and  O_25
REMARK                            x       y       z     vdW  Elec       q    Type
REMARK                         _______ _______ _______ _____ _____    ______ ____
ROOT
ATOM      1  C   UNL     1      11.822  11.651  19.581  0.00  0.00    +0.000 C 
ATOM      2  C   UNL     1      10.510  12.189  18.967  0.00  0.00    +0.000 C 
ATOM      3  C   UNL     1      10.103  11.253  17.820  0.00  0.00    +0.000 C 
ATOM      4  O   UNL     1       9.455  12.053  19.943  0.00  0.00    +0.000 OA
ATOM      5  C   UNL     1       9.346  13.035  20.901  0.00  0.00    +0.000 A 
ATOM      6  C   UNL     1       8.400  12.760  21.920  0.00  0.00    +0.000 A 
ATOM      7  C   UNL     1       8.199  13.658  22.966  0.00  0.00    +0.000 A 
ATOM      8  C   UNL     1       9.065  14.806  22.915  0.00  0.00    +0.000 A 
ATOM      9  C   UNL     1       9.999  15.064  21.925  0.00  0.00    +0.000 A 
ATOM     10  C   UNL     1      10.109  14.229  20.840  0.00  0.00    +0.000 A 
ATOM     11  C   UNL     1      10.997  14.564  19.655  0.00  0.00    +0.000 C 
ATOM     12  C   UNL     1      10.978  16.047  19.205  0.00  0.00    +0.000 C 
ATOM     13  C   UNL     1      11.843  16.288  17.970  0.00  0.00    +0.000 C 
ATOM     14  C   UNL     1      11.405  15.398  16.824  0.00  0.00    +0.000 C 
ATOM     15  C   UNL     1      11.442  13.922  17.233  0.00  0.00    +0.000 C 
ATOM     16  C   UNL     1      10.579  13.661  18.480  0.00  0.00    +0.000 C 
ENDROOT
BRANCH   7  17
ATOM     17  C   UNL     1       7.109  13.512  24.171  0.00  0.00    +0.000 C 
ATOM     18  C   UNL     1       6.200  14.726  24.343  0.00  0.00    +0.000 C 
ATOM     19  C   UNL     1       6.025  14.411  25.790  0.00  0.00    +0.000 C 
ATOM     20  C   UNL     1       5.495  12.617  25.806  0.00  0.00    +0.000 C 
ATOM     21  C   UNL     1       6.615  11.592  24.735  0.00  0.00    +0.000 C 
ATOM     22  C   UNL     1       8.520  11.857  24.959  0.00  0.00    +0.000 C 
ATOM     23  C   UNL     1       8.887  13.445  25.770  0.00  0.00    +0.000 C 
ATOM     24  C   UNL     1       7.802  14.797  26.186  0.00  0.00    +0.000 C 
ATOM     25  C   UNL     1       7.622  12.947  26.028  0.00  0.00    +0.000 C 
ATOM     26  C   UNL     1       6.197  12.425  23.606  0.00  0.00    +0.000 C 
ENDBRANCH   7  17
BRANCH   9  27
ATOM     27  O   UNL     1      10.786  16.164  22.054  0.00  0.00    +0.000 OA
ATOM     28  H   UNL     1      10.221  16.960  22.103  0.00  0.00    +0.000 HD
ENDBRANCH   9  27
BRANCH  13  29
ATOM     29  O   UNL     1      11.763  17.651  17.563  0.00  0.00    +0.000 OA
ATOM     30  H   UNL     1      10.873  17.979  17.772  0.00  0.00    +0.000 HD
ENDBRANCH  13  29
TORSDOF 3
ENDMDL
MODEL 9
REMARK VINA RESULT:      -6.7      7.532     10.978
REMARK  Name = 
REMARK  5 active torsions:
REMARK  status: ('A' for Active; 'I' for Inactive)
REMARK    1  A    between atoms: C_1  and  C_2
REMARK    2  A    between atoms: C_2  and  C_3
REMARK    3  A    between atoms: C_7  and  C_8
REMARK    4  A    between atoms: C_19  and  O_20
REMARK    5  A    between atoms: C_24  and  O_25
REMARK                            x       y       z     vdW  Elec       q    Type
REMARK                         _______ _______ _______ _____ _____    ______ ____
ROOT
ATOM      1  C   UNL     1      10.116  17.600  17.704  0.00  0.00    +0.000 C 
ATOM      2  C   UNL     1       9.818  17.027  19.107  0.00  0.00    +0.000 C 
ATOM      3  C   UNL     1      10.474  17.949  20.146  0.00  0.00    +0.000 C 
ATOM      4  O   UNL     1       8.401  17.139  19.360  0.00  0.00    +0.000 OA
ATOM      5  C   UNL     1       7.586  16.157  18.847  0.00  0.00    +0.000 A 
ATOM      6  C   UNL     1       6.198  16.411  18.989  0.00  0.00    +0.000 A 
ATOM      7  C   UNL     1       5.256  15.511  18.498  0.00  0.00    +0.000 A 
ATOM      8  C   UNL     1       5.834  14.385  17.814  0.00  0.00    +0.000 A 
ATOM      9  C   UNL     1       7.191  14.148  17.663  0.00  0.00    +0.000 A 
ATOM     10  C   UNL     1       8.111  14.983  18.250  0.00  0.00    +0.000 A 
ATOM     11  C   UNL     1       9.596  14.667  18.252  0.00  0.00    +0.000 C 
ATOM     12  C   UNL     1       9.963  13.182  18.507  0.00  0.00    +0.000 C 
ATOM     13  C   UNL     1      11.472  12.960  18.560  0.00  0.00    +0.000 C 
ATOM     14  C   UNL     1      12.108  13.836  19.620  0.00  0.00    +0.000 C 
ATOM     15  C   UNL     1      11.786  15.313  19.376  0.00  0.00    +0.000 C 
ATOM     16  C   UNL     1      10.267  15.556  19.315  0.00  0.00    +0.000 C 
ENDROOT
BRANCH   7  17
ATOM     17  C   UNL     1       3.635  15.633  18.640  0.00  0.00    +0.000 C 
ATOM     18  C   UNL     1       3.015  16.742  17.795  0.00  0.00    +0.000 C 
ATOM     19  C   UNL     1       1.887  16.871  18.762  0.00  0.00    +0.000 C 
ATOM     20  C   UNL     1       1.242  15.126  18.948  0.00  0.00    +0.000 C 
ATOM     21  C   UNL     1       2.637  13.940  19.262  0.00  0.00    +0.000 C 
ATOM     22  C   UNL     1       3.932  14.453  20.607  0.00  0.00    +0.000 C 
ATOM     23  C   UNL     1       3.883  16.242  20.940  0.00  0.00    +0.000 C 
ATOM     24  C   UNL     1       2.991  17.539  20.103  0.00  0.00    +0.000 C 
ATOM     25  C   UNL     1       2.711  15.722  20.420  0.00  0.00    +0.000 C 
ATOM     26  C   UNL     1       3.187  14.338  17.965  0.00  0.00    +0.000 C 
ENDBRANCH   7  17
BRANCH   9  27
ATOM     27  O   UNL     1       7.579  13.069  16.935  0.00  0.00    +0.000 OA
ATOM     28  H   UNL     1       8.512  12.861  17.137  0.00  0.00    +0.000 HD
ENDBRANCH   9  27
BRANCH  13  29
ATOM     29  O   UNL     1      11.766  11.595  18.840  0.00  0.00    +0.000 OA
ATOM     30  H   UNL     1      12.445  11.566  19.535  0.00  0.00    +0.000 HD
ENDBRANCH  13  29
TORSDOF 3
ENDMDL
