MODEL 1
REMARK VINA RESULT:      -6.1      0.000      0.000
REMARK  Name = 
REMARK  3 active torsions:
REMARK  status: ('A' for Active; 'I' for Inactive)
REMARK    1  A    between atoms: C_5  and  C_6
REMARK    2  A    between atoms: C_6  and  C_7
REMARK    3  A    between atoms: C_7  and  N_8
REMARK                            x       y       z     vdW  Elec       q    Type
REMARK                         _______ _______ _______ _____ _____    ______ ____
ROOT
ATOM      1 CL   UNL     1       0.963   3.344  20.238  0.00  0.00    +0.000 Cl
ATOM      2  C   UNL     1       2.135   3.719  19.036  0.00  0.00    +0.000 A 
ATOM      3  C   UNL     1       2.354   5.043  18.678  0.00  0.00    +0.000 A 
ATOM      4  C   UNL     1       3.302   5.350  17.697  0.00  0.00    +0.000 A 
ATOM      5  C   UNL     1       4.058   4.340  17.084  0.00  0.00    +0.000 A 
ATOM      6  C   UNL     1       3.807   3.006  17.447  0.00  0.00    +0.000 A 
ATOM      7  C   UNL     1       2.853   2.698  18.422  0.00  0.00    +0.000 A 
ENDROOT
BRANCH   5   8
ATOM      8  C   UNL     1       5.078   4.638  16.001  0.00  0.00    +0.000 C 
BRANCH   8   9
ATOM      9  C   UNL     1       6.522   4.316  16.390  0.00  0.00    +0.000 C 
BRANCH   9  10
ATOM     10  N   UNL     1       7.033   5.185  17.425  0.00  0.00    +0.000 N 
ATOM     11  C   UNL     1       7.349   6.503  17.330  0.00  0.00    +0.000 A 
ATOM     12  N   UNL     1       7.896   6.904  18.455  0.00  0.00    +0.000 NA
ATOM     13  C   UNL     1       7.901   5.769  19.215  0.00  0.00    +0.000 A 
ATOM     14  N   UNL     1       7.375   4.690  18.630  0.00  0.00    +0.000 NA
ENDBRANCH   9  10
ENDBRANCH   8   9
ENDBRANCH   5   8
TORSDOF 3
ENDMDL
MODEL 2
REMARK VINA RESULT:      -6.0      3.777      5.341
REMARK  Name = 
REMARK  3 active torsions:
REMARK  status: ('A' for Active; 'I' for Inactive)
REMARK    1  A    between atoms: C_5  and  C_6
REMARK    2  A    between atoms: C_6  and  C_7
REMARK    3  A    between atoms: C_7  and  N_8
REMARK                            x       y       z     vdW  Elec       q    Type
REMARK                         _______ _______ _______ _____ _____    ______ ____
ROOT
ATOM      1 CL   UNL     1       7.226   6.896  17.340  0.00  0.00    +0.000 Cl
ATOM      2  C   UNL     1       5.832   5.888  17.347  0.00  0.00    +0.000 A 
ATOM      3  C   UNL     1       5.894   4.621  16.781  0.00  0.00    +0.000 A 
ATOM      4  C   UNL     1       4.761   3.803  16.781  0.00  0.00    +0.000 A 
ATOM      5  C   UNL     1       3.562   4.232  17.369  0.00  0.00    +0.000 A 
ATOM      6  C   UNL     1       3.514   5.523  17.920  0.00  0.00    +0.000 A 
ATOM      7  C   UNL     1       4.645   6.346  17.913  0.00  0.00    +0.000 A 
ENDROOT
BRANCH   5   8
ATOM      8  C   UNL     1       2.309   3.377  17.366  0.00  0.00    +0.000 C 
BRANCH   8   9
ATOM      9  C   UNL     1       2.376   2.156  18.286  0.00  0.00    +0.000 C 
BRANCH   9  10
ATOM     10  N   UNL     1       2.273   2.500  19.686  0.00  0.00    +0.000 N 
ATOM     11  C   UNL     1       3.246   2.452  20.632  0.00  0.00    +0.000 A 
ATOM     12  N   UNL     1       2.727   2.725  21.808  0.00  0.00    +0.000 NA
ATOM     13  C   UNL     1       1.406   2.926  21.520  0.00  0.00    +0.000 A 
ATOM     14  N   UNL     1       1.080   2.807  20.230  0.00  0.00    +0.000 NA
ENDBRANCH   9  10
ENDBRANCH   8   9
ENDBRANCH   5   8
TORSDOF 3
ENDMDL
MODEL 3
REMARK VINA RESULT:      -5.9      0.991      1.720
REMARK  Name = 
REMARK  3 active torsions:
REMARK  status: ('A' for Active; 'I' for Inactive)
REMARK    1  A    between atoms: C_5  and  C_6
REMARK    2  A    between atoms: C_6  and  C_7
REMARK    3  A    between atoms: C_7  and  N_8
REMARK                            x       y       z     vdW  Elec       q    Type
REMARK                         _______ _______ _______ _____ _____    ______ ____
ROOT
ATOM      1 CL   UNL     1       1.353   3.198  21.219  0.00  0.00    +0.000 Cl
ATOM      2  C   UNL     1       2.338   3.621  19.874  0.00  0.00    +0.000 A 
ATOM      3  C   UNL     1       3.610   3.076  19.752  0.00  0.00    +0.000 A 
ATOM      4  C   UNL     1       4.414   3.422  18.663  0.00  0.00    +0.000 A 
ATOM      5  C   UNL     1       3.946   4.296  17.671  0.00  0.00    +0.000 A 
ATOM      6  C   UNL     1       2.664   4.852  17.821  0.00  0.00    +0.000 A 
ATOM      7  C   UNL     1       1.862   4.512  18.916  0.00  0.00    +0.000 A 
ENDROOT
BRANCH   5   8
ATOM      8  C   UNL     1       4.802   4.710  16.488  0.00  0.00    +0.000 C 
BRANCH   8   9
ATOM      9  C   UNL     1       6.298   4.449  16.671  0.00  0.00    +0.000 C 
BRANCH   9  10
ATOM     10  N   UNL     1       7.000   5.576  17.241  0.00  0.00    +0.000 N 
ATOM     11  C   UNL     1       7.633   5.647  18.441  0.00  0.00    +0.000 A 
ATOM     12  N   UNL     1       8.043   6.878  18.647  0.00  0.00    +0.000 NA
ATOM     13  C   UNL     1       7.619   7.534  17.526  0.00  0.00    +0.000 A 
ATOM     14  N   UNL     1       6.981   6.776  16.630  0.00  0.00    +0.000 NA
ENDBRANCH   9  10
ENDBRANCH   8   9
ENDBRANCH   5   8
TORSDOF 3
ENDMDL
MODEL 4
REMARK VINA RESULT:      -5.9      0.839      1.188
REMARK  Name = 
REMARK  3 active torsions:
REMARK  status: ('A' for Active; 'I' for Inactive)
REMARK    1  A    between atoms: C_5  and  C_6
REMARK    2  A    between atoms: C_6  and  C_7
REMARK    3  A    between atoms: C_7  and  N_8
REMARK                            x       y       z     vdW  Elec       q    Type
REMARK                         _______ _______ _______ _____ _____    ______ ____
ROOT
ATOM      1 CL   UNL     1       1.753   4.077  20.797  0.00  0.00    +0.000 Cl
ATOM      2  C   UNL     1       2.730   4.204  19.387  0.00  0.00    +0.000 A 
ATOM      3  C   UNL     1       2.916   5.443  18.786  0.00  0.00    +0.000 A 
ATOM      4  C   UNL     1       3.705   5.547  17.637  0.00  0.00    +0.000 A 
ATOM      5  C   UNL     1       4.337   4.420  17.093  0.00  0.00    +0.000 A 
ATOM      6  C   UNL     1       4.121   3.173  17.703  0.00  0.00    +0.000 A 
ATOM      7  C   UNL     1       3.325   3.067  18.848  0.00  0.00    +0.000 A 
ENDROOT
BRANCH   5   8
ATOM      8  C   UNL     1       5.181   4.496  15.834  0.00  0.00    +0.000 C 
BRANCH   8   9
ATOM      9  C   UNL     1       6.686   4.358  16.076  0.00  0.00    +0.000 C 
BRANCH   9  10
ATOM     10  N   UNL     1       7.209   5.375  16.959  0.00  0.00    +0.000 N 
ATOM     11  C   UNL     1       7.555   5.251  18.267  0.00  0.00    +0.000 A 
ATOM     12  N   UNL     1       7.872   6.430  18.750  0.00  0.00    +0.000 NA
ATOM     13  C   UNL     1       7.691   7.259  17.678  0.00  0.00    +0.000 A 
ATOM     14  N   UNL     1       7.293   6.657  16.555  0.00  0.00    +0.000 NA
ENDBRANCH   9  10
ENDBRANCH   8   9
ENDBRANCH   5   8
TORSDOF 3
ENDMDL
MODEL 5
REMARK VINA RESULT:      -5.9      1.815      2.940
REMARK  Name = 
REMARK  3 active torsions:
REMARK  status: ('A' for Active; 'I' for Inactive)
REMARK    1  A    between atoms: C_5  and  C_6
REMARK    2  A    between atoms: C_6  and  C_7
REMARK    3  A    between atoms: C_7  and  N_8
REMARK                            x       y       z     vdW  Elec       q    Type
REMARK                         _______ _______ _______ _____ _____    ______ ____
ROOT
ATOM      1 CL   UNL     1       0.787   2.626  18.920  0.00  0.00    +0.000 Cl
ATOM      2  C   UNL     1       2.303   3.416  18.730  0.00  0.00    +0.000 A 
ATOM      3  C   UNL     1       3.398   2.995  19.475  0.00  0.00    +0.000 A 
ATOM      4  C   UNL     1       4.629   3.640  19.326  0.00  0.00    +0.000 A 
ATOM      5  C   UNL     1       4.786   4.693  18.413  0.00  0.00    +0.000 A 
ATOM      6  C   UNL     1       3.662   5.116  17.683  0.00  0.00    +0.000 A 
ATOM      7  C   UNL     1       2.428   4.477  17.837  0.00  0.00    +0.000 A 
ENDROOT
BRANCH   5   8
ATOM      8  C   UNL     1       6.103   5.427  18.244  0.00  0.00    +0.000 C 
BRANCH   8   9
ATOM      9  C   UNL     1       7.173   4.636  17.489  0.00  0.00    +0.000 C 
BRANCH   9  10
ATOM     10  N   UNL     1       6.931   4.579  16.065  0.00  0.00    +0.000 N 
ATOM     11  C   UNL     1       6.186   3.673  15.379  0.00  0.00    +0.000 A 
ATOM     12  N   UNL     1       6.312   3.890  14.090  0.00  0.00    +0.000 NA
ATOM     13  C   UNL     1       7.169   4.953  14.041  0.00  0.00    +0.000 A 
ATOM     14  N   UNL     1       7.570   5.417  15.227  0.00  0.00    +0.000 NA
ENDBRANCH   9  10
ENDBRANCH   8   9
ENDBRANCH   5   8
TORSDOF 3
ENDMDL
MODEL 6
REMARK VINA RESULT:      -5.9      0.569      1.406
REMARK  Name = 
REMARK  3 active torsions:
REMARK  status: ('A' for Active; 'I' for Inactive)
REMARK    1  A    between atoms: C_5  and  C_6
REMARK    2  A    between atoms: C_6  and  C_7
REMARK    3  A    between atoms: C_7  and  N_8
REMARK                            x       y       z     vdW  Elec       q    Type
REMARK                         _______ _______ _______ _____ _____    ______ ____
ROOT
ATOM      1 CL   UNL     1       1.272   4.624  20.385  0.00  0.00    +0.000 Cl
ATOM      2  C   UNL     1       2.397   4.628  19.084  0.00  0.00    +0.000 A 
ATOM      3  C   UNL     1       2.839   3.423  18.551  0.00  0.00    +0.000 A 
ATOM      4  C   UNL     1       3.757   3.424  17.498  0.00  0.00    +0.000 A 
ATOM      5  C   UNL     1       4.223   4.627  16.949  0.00  0.00    +0.000 A 
ATOM      6  C   UNL     1       3.779   5.835  17.514  0.00  0.00    +0.000 A 
ATOM      7  C   UNL     1       2.867   5.834  18.574  0.00  0.00    +0.000 A 
ENDROOT
BRANCH   5   8
ATOM      8  C   UNL     1       5.237   4.662  15.820  0.00  0.00    +0.000 C 
BRANCH   8   9
ATOM      9  C   UNL     1       6.672   4.354  16.252  0.00  0.00    +0.000 C 
BRANCH   9  10
ATOM     10  N   UNL     1       7.135   5.212  17.318  0.00  0.00    +0.000 N 
ATOM     11  C   UNL     1       7.351   6.553  17.279  0.00  0.00    +0.000 A 
ATOM     12  N   UNL     1       7.886   6.943  18.413  0.00  0.00    +0.000 NA
ATOM     13  C   UNL     1       7.988   5.779  19.121  0.00  0.00    +0.000 A 
ATOM     14  N   UNL     1       7.532   4.690  18.495  0.00  0.00    +0.000 NA
ENDBRANCH   9  10
ENDBRANCH   8   9
ENDBRANCH   5   8
TORSDOF 3
ENDMDL
MODEL 7
REMARK VINA RESULT:      -5.9      3.648      5.193
REMARK  Name = 
REMARK  3 active torsions:
REMARK  status: ('A' for Active; 'I' for Inactive)
REMARK    1  A    between atoms: C_5  and  C_6
REMARK    2  A    between atoms: C_6  and  C_7
REMARK    3  A    between atoms: C_7  and  N_8
REMARK                            x       y       z     vdW  Elec       q    Type
REMARK                         _______ _______ _______ _____ _____    ______ ____
ROOT
ATOM      1 CL   UNL     1       7.452   6.948  17.232  0.00  0.00    +0.000 Cl
ATOM      2  C   UNL     1       6.081   5.909  17.215  0.00  0.00    +0.000 A 
ATOM      3  C   UNL     1       4.934   6.270  17.912  0.00  0.00    +0.000 A 
ATOM      4  C   UNL     1       3.821   5.425  17.904  0.00  0.00    +0.000 A 
ATOM      5  C   UNL     1       3.832   4.225  17.178  0.00  0.00    +0.000 A 
ATOM      6  C   UNL     1       5.007   3.869  16.495  0.00  0.00    +0.000 A 
ATOM      7  C   UNL     1       6.125   4.710  16.510  0.00  0.00    +0.000 A 
ENDROOT
BRANCH   5   8
ATOM      8  C   UNL     1       2.648   3.275  17.167  0.00  0.00    +0.000 C 
BRANCH   8   9
ATOM      9  C   UNL     1       2.772   2.103  18.143  0.00  0.00    +0.000 C 
BRANCH   9  10
ATOM     10  N   UNL     1       2.343   2.438  19.481  0.00  0.00    +0.000 N 
ATOM     11  C   UNL     1       1.100   2.795  19.897  0.00  0.00    +0.000 A 
ATOM     12  N   UNL     1       1.144   3.138  21.164  0.00  0.00    +0.000 NA
ATOM     13  C   UNL     1       2.464   2.980  21.478  0.00  0.00    +0.000 A 
ATOM     14  N   UNL     1       3.239   2.544  20.482  0.00  0.00    +0.000 NA
ENDBRANCH   9  10
ENDBRANCH   8   9
ENDBRANCH   5   8
TORSDOF 3
ENDMDL
MODEL 8
REMARK VINA RESULT:      -5.9      3.948      5.435
REMARK  Name = 
REMARK  3 active torsions:
REMARK  status: ('A' for Active; 'I' for Inactive)
REMARK    1  A    between atoms: C_5  and  C_6
REMARK    2  A    between atoms: C_6  and  C_7
REMARK    3  A    between atoms: C_7  and  N_8
REMARK                            x       y       z     vdW  Elec       q    Type
REMARK                         _______ _______ _______ _____ _____    ______ ____
ROOT
ATOM      1 CL   UNL     1       7.207   5.070  14.536  0.00  0.00    +0.000 Cl
ATOM      2  C   UNL     1       5.866   5.087  15.613  0.00  0.00    +0.000 A 
ATOM      3  C   UNL     1       5.418   6.293  16.137  0.00  0.00    +0.000 A 
ATOM      4  C   UNL     1       4.331   6.308  17.016  0.00  0.00    +0.000 A 
ATOM      5  C   UNL     1       3.665   5.122  17.359  0.00  0.00    +0.000 A 
ATOM      6  C   UNL     1       4.145   3.911  16.833  0.00  0.00    +0.000 A 
ATOM      7  C   UNL     1       5.238   3.894  15.960  0.00  0.00    +0.000 A 
ENDROOT
BRANCH   5   8
ATOM      8  C   UNL     1       2.497   5.102  18.328  0.00  0.00    +0.000 C 
BRANCH   8   9
ATOM      9  C   UNL     1       1.914   3.711  18.582  0.00  0.00    +0.000 C 
BRANCH   9  10
ATOM     10  N   UNL     1       2.060   3.281  19.954  0.00  0.00    +0.000 N 
ATOM     11  C   UNL     1       3.177   2.815  20.570  0.00  0.00    +0.000 A 
ATOM     12  N   UNL     1       2.872   2.414  21.783  0.00  0.00    +0.000 NA
ATOM     13  C   UNL     1       1.529   2.653  21.856  0.00  0.00    +0.000 A 
ATOM     14  N   UNL     1       0.986   3.192  20.762  0.00  0.00    +0.000 NA
ENDBRANCH   9  10
ENDBRANCH   8   9
ENDBRANCH   5   8
TORSDOF 3
ENDMDL
MODEL 9
REMARK VINA RESULT:      -5.8      1.234      1.935
REMARK  Name = 
REMARK  3 active torsions:
REMARK  status: ('A' for Active; 'I' for Inactive)
REMARK    1  A    between atoms: C_5  and  C_6
REMARK    2  A    between atoms: C_6  and  C_7
REMARK    3  A    between atoms: C_7  and  N_8
REMARK                            x       y       z     vdW  Elec       q    Type
REMARK                         _______ _______ _______ _____ _____    ______ ____
ROOT
ATOM      1 CL   UNL     1       0.896   2.917  20.867  0.00  0.00    +0.000 Cl
ATOM      2  C   UNL     1       1.744   4.052  19.891  0.00  0.00    +0.000 A 
ATOM      3  C   UNL     1       2.230   5.223  20.460  0.00  0.00    +0.000 A 
ATOM      4  C   UNL     1       2.915   6.148  19.667  0.00  0.00    +0.000 A 
ATOM      5  C   UNL     1       3.143   5.902  18.306  0.00  0.00    +0.000 A 
ATOM      6  C   UNL     1       2.627   4.721  17.745  0.00  0.00    +0.000 A 
ATOM      7  C   UNL     1       1.935   3.798  18.536  0.00  0.00    +0.000 A 
ENDROOT
BRANCH   5   8
ATOM      8  C   UNL     1       3.863   6.896  17.414  0.00  0.00    +0.000 C 
BRANCH   8   9
ATOM      9  C   UNL     1       4.938   6.276  16.518  0.00  0.00    +0.000 C 
BRANCH   9  10
ATOM     10  N   UNL     1       6.101   5.839  17.256  0.00  0.00    +0.000 N 
ATOM     11  C   UNL     1       6.513   4.566  17.490  0.00  0.00    +0.000 A 
ATOM     12  N   UNL     1       7.546   4.583  18.302  0.00  0.00    +0.000 NA
ATOM     13  C   UNL     1       7.722   5.916  18.546  0.00  0.00    +0.000 A 
ATOM     14  N   UNL     1       6.865   6.727  17.920  0.00  0.00    +0.000 NA
ENDBRANCH   9  10
ENDBRANCH   8   9
ENDBRANCH   5   8
TORSDOF 3
ENDMDL
