MODEL 1
REMARK VINA RESULT:      -9.0      0.000      0.000
REMARK  Name = 
REMARK  7 active torsions:
REMARK  status: ('A' for Active; 'I' for Inactive)
REMARK    1  A    between atoms: C_2  and  C_10
REMARK    2  A    between atoms: N_3  and  C_4
REMARK    3  A    between atoms: C_10  and  C_11
REMARK    4  A    between atoms: C_10  and  N_21
REMARK    5  A    between atoms: C_11  and  C_12
REMARK    6  A    between atoms: N_21  and  C_22
REMARK    7  A    between atoms: C_22  and  C_23
REMARK                            x       y       z     vdW  Elec       q    Type
REMARK                         _______ _______ _______ _____ _____    ______ ____
ROOT
ATOM      1  C   UNL     1       5.381   4.253  17.941  0.00  0.00    +0.000 C 
ENDROOT
BRANCH   1   3
ATOM      2  O   UNL     1       5.239   5.839  19.762  0.00  0.00    +0.000 OA
ATOM      3  C   UNL     1       4.742   5.444  18.709  0.00  0.00    +0.000 C 
ATOM      4  N   UNL     1       3.571   5.932  18.148  0.00  0.00    +0.000 N 
ATOM      5  H   UNL     1       3.212   5.370  17.381  0.00  0.00    +0.000 HD
BRANCH   4   6
ATOM      6  C   UNL     1       2.805   7.029  18.605  0.00  0.00    +0.000 A 
ATOM      7  C   UNL     1       2.218   7.084  19.868  0.00  0.00    +0.000 A 
ATOM      8  C   UNL     1       1.464   8.197  20.208  0.00  0.00    +0.000 A 
ATOM      9  N   UNL     1       1.260   9.248  19.387  0.00  0.00    +0.000 NA
ATOM     10  C   UNL     1       1.852   9.184  18.177  0.00  0.00    +0.000 A 
ATOM     11  C   UNL     1       2.633   8.118  17.750  0.00  0.00    +0.000 A 
ENDBRANCH   4   6
ENDBRANCH   1   3
BRANCH   1  12
ATOM     12  N   UNL     1       5.197   2.960  18.673  0.00  0.00    +0.000 NA
ATOM     13  H   UNL     1       5.193   3.182  19.674  0.00  0.00    +0.000 HD
BRANCH  12  14
ATOM     14  C   UNL     1       3.876   2.380  18.360  0.00  0.00    +0.000 C 
BRANCH  14  15
ATOM     15  C   UNL     1       2.875   2.649  19.451  0.00  0.00    +0.000 A 
ATOM     16  C   UNL     1       3.200   2.393  20.790  0.00  0.00    +0.000 A 
ATOM     17  C   UNL     1       2.264   2.624  21.800  0.00  0.00    +0.000 A 
ATOM     18  C   UNL     1       0.994   3.110  21.483  0.00  0.00    +0.000 A 
ATOM     19  C   UNL     1       0.658   3.365  20.156  0.00  0.00    +0.000 A 
ATOM     20  C   UNL     1       1.594   3.128  19.153  0.00  0.00    +0.000 A 
ATOM     21  F   UNL     1       1.244   3.373  17.882  0.00  0.00    +0.000 F 
ENDBRANCH  14  15
ENDBRANCH  12  14
ENDBRANCH   1  12
BRANCH   1  22
ATOM     22  C   UNL     1       4.872   4.263  16.475  0.00  0.00    +0.000 C 
BRANCH  22  23
ATOM     23  C   UNL     1       5.923   4.663  15.476  0.00  0.00    +0.000 A 
ATOM     24  C   UNL     1       7.004   5.497  15.691  0.00  0.00    +0.000 A 
ATOM     25  N   UNL     1       7.762   5.525  14.553  0.00  0.00    +0.000 N 
ATOM     26  C   UNL     1       7.162   4.778  13.567  0.00  0.00    +0.000 A 
ATOM     27  C   UNL     1       7.564   4.535  12.250  0.00  0.00    +0.000 A 
ATOM     28  C   UNL     1       6.732   3.741  11.456  0.00  0.00    +0.000 A 
ATOM     29  C   UNL     1       5.551   3.205  11.963  0.00  0.00    +0.000 A 
ATOM     30  C   UNL     1       5.176   3.444  13.289  0.00  0.00    +0.000 A 
ATOM     31  C   UNL     1       5.997   4.242  14.111  0.00  0.00    +0.000 A 
ATOM     32  H   UNL     1       8.630   6.032  14.441  0.00  0.00    +0.000 HD
ENDBRANCH  22  23
ENDBRANCH   1  22
TORSDOF 7
ENDMDL
MODEL 2
REMARK VINA RESULT:      -8.6      1.310      1.732
REMARK  Name = 
REMARK  7 active torsions:
REMARK  status: ('A' for Active; 'I' for Inactive)
REMARK    1  A    between atoms: C_2  and  C_10
REMARK    2  A    between atoms: N_3  and  C_4
REMARK    3  A    between atoms: C_10  and  C_11
REMARK    4  A    between atoms: C_10  and  N_21
REMARK    5  A    between atoms: C_11  and  C_12
REMARK    6  A    between atoms: N_21  and  C_22
REMARK    7  A    between atoms: C_22  and  C_23
REMARK                            x       y       z     vdW  Elec       q    Type
REMARK                         _______ _______ _______ _____ _____    ______ ____
ROOT
ATOM      1  C   UNL     1       4.528   5.643  17.916  0.00  0.00    +0.000 C 
ENDROOT
BRANCH   1   3
ATOM      2  O   UNL     1       2.120   5.710  17.691  0.00  0.00    +0.000 OA
ATOM      3  C   UNL     1       3.129   6.303  18.070  0.00  0.00    +0.000 C 
ATOM      4  N   UNL     1       3.151   7.593  18.578  0.00  0.00    +0.000 N 
ATOM      5  H   UNL     1       4.083   7.989  18.666  0.00  0.00    +0.000 HD
BRANCH   4   6
ATOM      6  C   UNL     1       2.034   8.411  18.864  0.00  0.00    +0.000 A 
ATOM      7  C   UNL     1       1.402   9.209  17.911  0.00  0.00    +0.000 A 
ATOM      8  C   UNL     1       0.328   9.995  18.301  0.00  0.00    +0.000 A 
ATOM      9  N   UNL     1      -0.156  10.037  19.560  0.00  0.00    +0.000 NA
ATOM     10  C   UNL     1       0.457   9.245  20.462  0.00  0.00    +0.000 A 
ATOM     11  C   UNL     1       1.532   8.417  20.165  0.00  0.00    +0.000 A 
ENDBRANCH   4   6
ENDBRANCH   1   3
BRANCH   1  12
ATOM     12  N   UNL     1       4.970   4.984  19.185  0.00  0.00    +0.000 NA
ATOM     13  H   UNL     1       4.402   5.380  19.941  0.00  0.00    +0.000 HD
BRANCH  12  14
ATOM     14  C   UNL     1       4.674   3.538  19.141  0.00  0.00    +0.000 C 
BRANCH  14  15
ATOM     15  C   UNL     1       3.231   3.254  19.462  0.00  0.00    +0.000 A 
ATOM     16  C   UNL     1       2.639   3.801  20.608  0.00  0.00    +0.000 A 
ATOM     17  C   UNL     1       1.306   3.521  20.915  0.00  0.00    +0.000 A 
ATOM     18  C   UNL     1       0.552   2.691  20.084  0.00  0.00    +0.000 A 
ATOM     19  C   UNL     1       1.131   2.137  18.944  0.00  0.00    +0.000 A 
ATOM     20  C   UNL     1       2.462   2.416  18.646  0.00  0.00    +0.000 A 
ATOM     21  F   UNL     1       2.999   1.866  17.548  0.00  0.00    +0.000 F 
ENDBRANCH  14  15
ENDBRANCH  12  14
ENDBRANCH   1  12
BRANCH   1  22
ATOM     22  C   UNL     1       4.522   4.729  16.662  0.00  0.00    +0.000 C 
BRANCH  22  23
ATOM     23  C   UNL     1       5.690   4.962  15.743  0.00  0.00    +0.000 A 
ATOM     24  C   UNL     1       6.830   5.696  16.013  0.00  0.00    +0.000 A 
ATOM     25  N   UNL     1       7.681   5.582  14.947  0.00  0.00    +0.000 N 
ATOM     26  C   UNL     1       7.091   4.841  13.950  0.00  0.00    +0.000 A 
ATOM     27  C   UNL     1       7.575   4.483  12.688  0.00  0.00    +0.000 A 
ATOM     28  C   UNL     1       6.734   3.730  11.863  0.00  0.00    +0.000 A 
ATOM     29  C   UNL     1       5.466   3.346  12.288  0.00  0.00    +0.000 A 
ATOM     30  C   UNL     1       5.007   3.698  13.562  0.00  0.00    +0.000 A 
ATOM     31  C   UNL     1       5.834   4.457  14.413  0.00  0.00    +0.000 A 
ATOM     32  H   UNL     1       8.603   5.992  14.889  0.00  0.00    +0.000 HD
ENDBRANCH  22  23
ENDBRANCH   1  22
TORSDOF 7
ENDMDL
MODEL 3
REMARK VINA RESULT:      -8.2      2.241      3.895
REMARK  Name = 
REMARK  7 active torsions:
REMARK  status: ('A' for Active; 'I' for Inactive)
REMARK    1  A    between atoms: C_2  and  C_10
REMARK    2  A    between atoms: N_3  and  C_4
REMARK    3  A    between atoms: C_10  and  C_11
REMARK    4  A    between atoms: C_10  and  N_21
REMARK    5  A    between atoms: C_11  and  C_12
REMARK    6  A    between atoms: N_21  and  C_22
REMARK    7  A    between atoms: C_22  and  C_23
REMARK                            x       y       z     vdW  Elec       q    Type
REMARK                         _______ _______ _______ _____ _____    ______ ____
ROOT
ATOM      1  C   UNL     1       2.766   6.698  20.182  0.00  0.00    +0.000 C 
ENDROOT
BRANCH   1   3
ATOM      2  O   UNL     1       1.501   8.513  19.204  0.00  0.00    +0.000 OA
ATOM      3  C   UNL     1       1.845   7.949  20.241  0.00  0.00    +0.000 C 
ATOM      4  N   UNL     1       1.537   8.381  21.522  0.00  0.00    +0.000 N 
ATOM      5  H   UNL     1       2.053   7.905  22.257  0.00  0.00    +0.000 HD
BRANCH   4   6
ATOM      6  C   UNL     1       0.691   9.457  21.873  0.00  0.00    +0.000 A 
ATOM      7  C   UNL     1      -0.242   9.396  22.908  0.00  0.00    +0.000 A 
ATOM      8  C   UNL     1      -1.042  10.502  23.155  0.00  0.00    +0.000 A 
ATOM      9  N   UNL     1      -0.975  11.651  22.452  0.00  0.00    +0.000 NA
ATOM     10  C   UNL     1      -0.054  11.697  21.468  0.00  0.00    +0.000 A 
ATOM     11  C   UNL     1       0.798  10.647  21.153  0.00  0.00    +0.000 A 
ENDBRANCH   4   6
ENDBRANCH   1   3
BRANCH   1  12
ATOM     12  N   UNL     1       2.168   5.536  20.913  0.00  0.00    +0.000 NA
ATOM     13  H   UNL     1       1.562   5.924  21.644  0.00  0.00    +0.000 HD
BRANCH  12  14
ATOM     14  C   UNL     1       1.301   4.755  20.009  0.00  0.00    +0.000 C 
BRANCH  14  15
ATOM     15  C   UNL     1       2.066   3.669  19.302  0.00  0.00    +0.000 A 
ATOM     16  C   UNL     1       2.997   2.888  20.000  0.00  0.00    +0.000 A 
ATOM     17  C   UNL     1       3.721   1.893  19.338  0.00  0.00    +0.000 A 
ATOM     18  C   UNL     1       3.525   1.671  17.974  0.00  0.00    +0.000 A 
ATOM     19  C   UNL     1       2.605   2.444  17.268  0.00  0.00    +0.000 A 
ATOM     20  C   UNL     1       1.890   3.437  17.932  0.00  0.00    +0.000 A 
ATOM     21  F   UNL     1       1.017   4.173  17.230  0.00  0.00    +0.000 F 
ENDBRANCH  14  15
ENDBRANCH  12  14
ENDBRANCH   1  12
BRANCH   1  22
ATOM     22  C   UNL     1       3.155   6.422  18.706  0.00  0.00    +0.000 C 
BRANCH  22  23
ATOM     23  C   UNL     1       4.526   5.825  18.546  0.00  0.00    +0.000 A 
ATOM     24  C   UNL     1       5.402   5.467  19.554  0.00  0.00    +0.000 A 
ATOM     25  N   UNL     1       6.499   4.879  18.985  0.00  0.00    +0.000 N 
ATOM     26  C   UNL     1       6.392   4.906  17.615  0.00  0.00    +0.000 A 
ATOM     27  C   UNL     1       7.271   4.440  16.633  0.00  0.00    +0.000 A 
ATOM     28  C   UNL     1       6.905   4.624  15.296  0.00  0.00    +0.000 A 
ATOM     29  C   UNL     1       5.705   5.242  14.959  0.00  0.00    +0.000 A 
ATOM     30  C   UNL     1       4.829   5.685  15.955  0.00  0.00    +0.000 A 
ATOM     31  C   UNL     1       5.175   5.512  17.310  0.00  0.00    +0.000 A 
ATOM     32  H   UNL     1       7.284   4.493  19.492  0.00  0.00    +0.000 HD
ENDBRANCH  22  23
ENDBRANCH   1  22
TORSDOF 7
ENDMDL
MODEL 4
REMARK VINA RESULT:      -8.1      2.114      6.492
REMARK  Name = 
REMARK  7 active torsions:
REMARK  status: ('A' for Active; 'I' for Inactive)
REMARK    1  A    between atoms: C_2  and  C_10
REMARK    2  A    between atoms: N_3  and  C_4
REMARK    3  A    between atoms: C_10  and  C_11
REMARK    4  A    between atoms: C_10  and  N_21
REMARK    5  A    between atoms: C_11  and  C_12
REMARK    6  A    between atoms: N_21  and  C_22
REMARK    7  A    between atoms: C_22  and  C_23
REMARK                            x       y       z     vdW  Elec       q    Type
REMARK                         _______ _______ _______ _____ _____    ______ ____
ROOT
ATOM      1  C   UNL     1       4.705   5.819  16.691  0.00  0.00    +0.000 C 
ENDROOT
BRANCH   1   3
ATOM      2  O   UNL     1       5.021   7.878  17.922  0.00  0.00    +0.000 OA
ATOM      3  C   UNL     1       4.218   7.032  17.533  0.00  0.00    +0.000 C 
ATOM      4  N   UNL     1       2.867   7.013  17.845  0.00  0.00    +0.000 N 
ATOM      5  H   UNL     1       2.394   6.149  17.594  0.00  0.00    +0.000 HD
BRANCH   4   6
ATOM      6  C   UNL     1       2.147   8.001  18.555  0.00  0.00    +0.000 A 
ATOM      7  C   UNL     1       1.855   7.911  19.915  0.00  0.00    +0.000 A 
ATOM      8  C   UNL     1       1.119   8.925  20.511  0.00  0.00    +0.000 A 
ATOM      9  N   UNL     1       0.663  10.011  19.853  0.00  0.00    +0.000 NA
ATOM     10  C   UNL     1       0.972  10.088  18.543  0.00  0.00    +0.000 A 
ATOM     11  C   UNL     1       1.711   9.130  17.861  0.00  0.00    +0.000 A 
ENDBRANCH   4   6
ENDBRANCH   1   3
BRANCH   1  12
ATOM     12  N   UNL     1       5.756   6.219  15.702  0.00  0.00    +0.000 NA
ATOM     13  H   UNL     1       6.294   6.980  16.130  0.00  0.00    +0.000 HD
BRANCH  12  14
ATOM     14  C   UNL     1       6.697   5.105  15.476  0.00  0.00    +0.000 C 
BRANCH  14  15
ATOM     15  C   UNL     1       6.579   4.548  14.083  0.00  0.00    +0.000 A 
ATOM     16  C   UNL     1       5.535   3.671  13.756  0.00  0.00    +0.000 A 
ATOM     17  C   UNL     1       5.437   3.139  12.469  0.00  0.00    +0.000 A 
ATOM     18  C   UNL     1       6.381   3.474  11.496  0.00  0.00    +0.000 A 
ATOM     19  C   UNL     1       7.425   4.341  11.810  0.00  0.00    +0.000 A 
ATOM     20  C   UNL     1       7.520   4.865  13.096  0.00  0.00    +0.000 A 
ATOM     21  F   UNL     1       8.538   5.690  13.376  0.00  0.00    +0.000 F 
ENDBRANCH  14  15
ENDBRANCH  12  14
ENDBRANCH   1  12
BRANCH   1  22
ATOM     22  C   UNL     1       5.103   4.664  17.648  0.00  0.00    +0.000 C 
BRANCH  22  23
ATOM     23  C   UNL     1       3.981   3.701  17.926  0.00  0.00    +0.000 A 
ATOM     24  C   UNL     1       3.547   2.669  17.115  0.00  0.00    +0.000 A 
ATOM     25  N   UNL     1       2.569   1.980  17.776  0.00  0.00    +0.000 N 
ATOM     26  C   UNL     1       2.302   2.581  18.983  0.00  0.00    +0.000 A 
ATOM     27  C   UNL     1       1.379   2.239  19.976  0.00  0.00    +0.000 A 
ATOM     28  C   UNL     1       1.311   3.058  21.107  0.00  0.00    +0.000 A 
ATOM     29  C   UNL     1       2.139   4.168  21.241  0.00  0.00    +0.000 A 
ATOM     30  C   UNL     1       3.070   4.484  20.246  0.00  0.00    +0.000 A 
ATOM     31  C   UNL     1       3.158   3.675  19.095  0.00  0.00    +0.000 A 
ATOM     32  H   UNL     1       2.096   1.156  17.428  0.00  0.00    +0.000 HD
ENDBRANCH  22  23
ENDBRANCH   1  22
TORSDOF 7
ENDMDL
MODEL 5
REMARK VINA RESULT:      -8.1      2.702      6.191
REMARK  Name = 
REMARK  7 active torsions:
REMARK  status: ('A' for Active; 'I' for Inactive)
REMARK    1  A    between atoms: C_2  and  C_10
REMARK    2  A    between atoms: N_3  and  C_4
REMARK    3  A    between atoms: C_10  and  C_11
REMARK    4  A    between atoms: C_10  and  N_21
REMARK    5  A    between atoms: C_11  and  C_12
REMARK    6  A    between atoms: N_21  and  C_22
REMARK    7  A    between atoms: C_22  and  C_23
REMARK                            x       y       z     vdW  Elec       q    Type
REMARK                         _______ _______ _______ _____ _____    ______ ____
ROOT
ATOM      1  C   UNL     1       2.348   7.525  18.087  0.00  0.00    +0.000 C 
ENDROOT
BRANCH   1   3
ATOM      2  O   UNL     1       2.080   9.870  17.556  0.00  0.00    +0.000 OA
ATOM      3  C   UNL     1       1.791   8.957  18.326  0.00  0.00    +0.000 C 
ATOM      4  N   UNL     1       1.041   9.099  19.484  0.00  0.00    +0.000 N 
ATOM      5  H   UNL     1       1.056   8.285  20.092  0.00  0.00    +0.000 HD
BRANCH   4   6
ATOM      6  C   UNL     1       0.380  10.267  19.928  0.00  0.00    +0.000 A 
ATOM      7  C   UNL     1       0.920  11.146  20.866  0.00  0.00    +0.000 A 
ATOM      8  C   UNL     1       0.177  12.252  21.253  0.00  0.00    +0.000 A 
ATOM      9  N   UNL     1      -1.050  12.540  20.772  0.00  0.00    +0.000 NA
ATOM     10  C   UNL     1      -1.546  11.689  19.852  0.00  0.00    +0.000 A 
ATOM     11  C   UNL     1      -0.875  10.562  19.395  0.00  0.00    +0.000 A 
ENDBRANCH   4   6
ENDBRANCH   1   3
BRANCH   1  12
ATOM     12  N   UNL     1       3.395   7.511  17.017  0.00  0.00    +0.000 NA
ATOM     13  H   UNL     1       3.357   8.423  16.551  0.00  0.00    +0.000 HD
BRANCH  12  14
ATOM     14  C   UNL     1       4.738   7.392  17.617  0.00  0.00    +0.000 C 
BRANCH  14  15
ATOM     15  C   UNL     1       5.554   6.317  16.952  0.00  0.00    +0.000 A 
ATOM     16  C   UNL     1       5.328   5.984  15.609  0.00  0.00    +0.000 A 
ATOM     17  C   UNL     1       6.072   4.972  14.998  0.00  0.00    +0.000 A 
ATOM     18  C   UNL     1       7.047   4.283  15.721  0.00  0.00    +0.000 A 
ATOM     19  C   UNL     1       7.279   4.602  17.057  0.00  0.00    +0.000 A 
ATOM     20  C   UNL     1       6.530   5.608  17.662  0.00  0.00    +0.000 A 
ATOM     21  F   UNL     1       6.766   5.892  18.951  0.00  0.00    +0.000 F 
ENDBRANCH  14  15
ENDBRANCH  12  14
ENDBRANCH   1  12
BRANCH   1  22
ATOM     22  C   UNL     1       2.783   6.916  19.446  0.00  0.00    +0.000 C 
BRANCH  22  23
ATOM     23  C   UNL     1       2.175   5.567  19.723  0.00  0.00    +0.000 A 
ATOM     24  C   UNL     1       1.224   5.262  20.678  0.00  0.00    +0.000 A 
ATOM     25  N   UNL     1       0.877   3.946  20.538  0.00  0.00    +0.000 N 
ATOM     26  C   UNL     1       1.634   3.361  19.550  0.00  0.00    +0.000 A 
ATOM     27  C   UNL     1       1.635   2.045  19.077  0.00  0.00    +0.000 A 
ATOM     28  C   UNL     1       2.543   1.724  18.062  0.00  0.00    +0.000 A 
ATOM     29  C   UNL     1       3.405   2.683  17.540  0.00  0.00    +0.000 A 
ATOM     30  C   UNL     1       3.375   3.999  18.013  0.00  0.00    +0.000 A 
ATOM     31  C   UNL     1       2.471   4.349  19.036  0.00  0.00    +0.000 A 
ATOM     32  H   UNL     1       0.177   3.463  21.087  0.00  0.00    +0.000 HD
ENDBRANCH  22  23
ENDBRANCH   1  22
TORSDOF 7
ENDMDL
MODEL 6
REMARK VINA RESULT:      -8.1      2.036      6.923
REMARK  Name = 
REMARK  7 active torsions:
REMARK  status: ('A' for Active; 'I' for Inactive)
REMARK    1  A    between atoms: C_2  and  C_10
REMARK    2  A    between atoms: N_3  and  C_4
REMARK    3  A    between atoms: C_10  and  C_11
REMARK    4  A    between atoms: C_10  and  N_21
REMARK    5  A    between atoms: C_11  and  C_12
REMARK    6  A    between atoms: N_21  and  C_22
REMARK    7  A    between atoms: C_22  and  C_23
REMARK                            x       y       z     vdW  Elec       q    Type
REMARK                         _______ _______ _______ _____ _____    ______ ____
ROOT
ATOM      1  C   UNL     1       4.748   5.960  17.563  0.00  0.00    +0.000 C 
ENDROOT
BRANCH   1   3
ATOM      2  O   UNL     1       5.088   7.017  15.413  0.00  0.00    +0.000 OA
ATOM      3  C   UNL     1       5.202   5.987  16.076  0.00  0.00    +0.000 C 
ATOM      4  N   UNL     1       5.648   4.769  15.585  0.00  0.00    +0.000 N 
ATOM      5  H   UNL     1       5.503   3.988  16.219  0.00  0.00    +0.000 HD
BRANCH   4   6
ATOM      6  C   UNL     1       6.158   4.511  14.293  0.00  0.00    +0.000 A 
ATOM      7  C   UNL     1       5.575   3.612  13.401  0.00  0.00    +0.000 A 
ATOM      8  C   UNL     1       6.171   3.413  12.165  0.00  0.00    +0.000 A 
ATOM      9  N   UNL     1       7.292   4.044  11.759  0.00  0.00    +0.000 NA
ATOM     10  C   UNL     1       7.830   4.924  12.627  0.00  0.00    +0.000 A 
ATOM     11  C   UNL     1       7.301   5.197  13.882  0.00  0.00    +0.000 A 
ENDBRANCH   4   6
ENDBRANCH   1   3
BRANCH   1  12
ATOM     12  N   UNL     1       3.297   6.299  17.704  0.00  0.00    +0.000 NA
ATOM     13  H   UNL     1       2.995   5.944  18.618  0.00  0.00    +0.000 HD
BRANCH  12  14
ATOM     14  C   UNL     1       3.114   7.763  17.733  0.00  0.00    +0.000 C 
BRANCH  14  15
ATOM     15  C   UNL     1       2.197   8.190  18.848  0.00  0.00    +0.000 A 
ATOM     16  C   UNL     1       2.083   7.411  20.008  0.00  0.00    +0.000 A 
ATOM     17  C   UNL     1       1.218   7.797  21.034  0.00  0.00    +0.000 A 
ATOM     18  C   UNL     1       0.457   8.961  20.912  0.00  0.00    +0.000 A 
ATOM     19  C   UNL     1       0.560   9.741  19.763  0.00  0.00    +0.000 A 
ATOM     20  C   UNL     1       1.420   9.349  18.741  0.00  0.00    +0.000 A 
ATOM     21  F   UNL     1       1.495  10.112  17.642  0.00  0.00    +0.000 F 
ENDBRANCH  14  15
ENDBRANCH  12  14
ENDBRANCH   1  12
BRANCH   1  22
ATOM     22  C   UNL     1       5.179   4.613  18.200  0.00  0.00    +0.000 C 
BRANCH  22  23
ATOM     23  C   UNL     1       4.047   3.634  18.359  0.00  0.00    +0.000 A 
ATOM     24  C   UNL     1       3.642   2.673  17.451  0.00  0.00    +0.000 A 
ATOM     25  N   UNL     1       2.640   1.936  18.020  0.00  0.00    +0.000 N 
ATOM     26  C   UNL     1       2.330   2.439  19.261  0.00  0.00    +0.000 A 
ATOM     27  C   UNL     1       1.371   2.021  20.189  0.00  0.00    +0.000 A 
ATOM     28  C   UNL     1       1.263   2.746  21.379  0.00  0.00    +0.000 A 
ATOM     29  C   UNL     1       2.087   3.839  21.632  0.00  0.00    +0.000 A 
ATOM     30  C   UNL     1       3.053   4.231  20.700  0.00  0.00    +0.000 A 
ATOM     31  C   UNL     1       3.182   3.517  19.492  0.00  0.00    +0.000 A 
ATOM     32  H   UNL     1       2.179   1.145  17.590  0.00  0.00    +0.000 HD
ENDBRANCH  22  23
ENDBRANCH   1  22
TORSDOF 7
ENDMDL
MODEL 7
REMARK VINA RESULT:      -8.1      0.966      1.279
REMARK  Name = 
REMARK  7 active torsions:
REMARK  status: ('A' for Active; 'I' for Inactive)
REMARK    1  A    between atoms: C_2  and  C_10
REMARK    2  A    between atoms: N_3  and  C_4
REMARK    3  A    between atoms: C_10  and  C_11
REMARK    4  A    between atoms: C_10  and  N_21
REMARK    5  A    between atoms: C_11  and  C_12
REMARK    6  A    between atoms: N_21  and  C_22
REMARK    7  A    between atoms: C_22  and  C_23
REMARK                            x       y       z     vdW  Elec       q    Type
REMARK                         _______ _______ _______ _____ _____    ______ ____
ROOT
ATOM      1  C   UNL     1       5.479   4.117  18.078  0.00  0.00    +0.000 C 
ENDROOT
BRANCH   1   3
ATOM      2  O   UNL     1       5.408   5.890  19.723  0.00  0.00    +0.000 OA
ATOM      3  C   UNL     1       4.865   5.380  18.745  0.00  0.00    +0.000 C 
ATOM      4  N   UNL     1       3.662   5.797  18.194  0.00  0.00    +0.000 N 
ATOM      5  H   UNL     1       3.272   5.153  17.512  0.00  0.00    +0.000 HD
BRANCH   4   6
ATOM      6  C   UNL     1       2.907   6.933  18.567  0.00  0.00    +0.000 A 
ATOM      7  C   UNL     1       2.299   7.076  19.814  0.00  0.00    +0.000 A 
ATOM      8  C   UNL     1       1.559   8.220  20.070  0.00  0.00    +0.000 A 
ATOM      9  N   UNL     1       1.388   9.221  19.181  0.00  0.00    +0.000 NA
ATOM     10  C   UNL     1       1.999   9.072  17.989  0.00  0.00    +0.000 A 
ATOM     11  C   UNL     1       2.768   7.969  17.644  0.00  0.00    +0.000 A 
ENDBRANCH   4   6
ENDBRANCH   1   3
BRANCH   1  12
ATOM     12  N   UNL     1       5.239   2.888  18.899  0.00  0.00    +0.000 NA
ATOM     13  H   UNL     1       6.156   2.568  19.232  0.00  0.00    +0.000 HD
BRANCH  12  14
ATOM     14  C   UNL     1       4.442   3.219  20.096  0.00  0.00    +0.000 C 
BRANCH  14  15
ATOM     15  C   UNL     1       2.967   3.044  19.851  0.00  0.00    +0.000 A 
ATOM     16  C   UNL     1       2.515   2.299  18.754  0.00  0.00    +0.000 A 
ATOM     17  C   UNL     1       1.147   2.153  18.516  0.00  0.00    +0.000 A 
ATOM     18  C   UNL     1       0.217   2.751  19.369  0.00  0.00    +0.000 A 
ATOM     19  C   UNL     1       0.654   3.497  20.461  0.00  0.00    +0.000 A 
ATOM     20  C   UNL     1       2.020   3.642  20.690  0.00  0.00    +0.000 A 
ATOM     21  F   UNL     1       2.416   4.372  21.743  0.00  0.00    +0.000 F 
ENDBRANCH  14  15
ENDBRANCH  12  14
ENDBRANCH   1  12
BRANCH   1  22
ATOM     22  C   UNL     1       4.995   4.034  16.606  0.00  0.00    +0.000 C 
BRANCH  22  23
ATOM     23  C   UNL     1       6.000   4.551  15.613  0.00  0.00    +0.000 A 
ATOM     24  C   UNL     1       7.025   5.447  15.854  0.00  0.00    +0.000 A 
ATOM     25  N   UNL     1       7.761   5.581  14.709  0.00  0.00    +0.000 N 
ATOM     26  C   UNL     1       7.198   4.841  13.697  0.00  0.00    +0.000 A 
ATOM     27  C   UNL     1       7.593   4.689  12.364  0.00  0.00    +0.000 A 
ATOM     28  C   UNL     1       6.804   3.877  11.544  0.00  0.00    +0.000 A 
ATOM     29  C   UNL     1       5.671   3.239  12.041  0.00  0.00    +0.000 A 
ATOM     30  C   UNL     1       5.302   3.388  13.381  0.00  0.00    +0.000 A 
ATOM     31  C   UNL     1       6.080   4.201  14.229  0.00  0.00    +0.000 A 
ATOM     32  H   UNL     1       8.591   6.151  14.610  0.00  0.00    +0.000 HD
ENDBRANCH  22  23
ENDBRANCH   1  22
TORSDOF 7
ENDMDL
MODEL 8
REMARK VINA RESULT:      -8.0      4.007      7.032
REMARK  Name = 
REMARK  7 active torsions:
REMARK  status: ('A' for Active; 'I' for Inactive)
REMARK    1  A    between atoms: C_2  and  C_10
REMARK    2  A    between atoms: N_3  and  C_4
REMARK    3  A    between atoms: C_10  and  C_11
REMARK    4  A    between atoms: C_10  and  N_21
REMARK    5  A    between atoms: C_11  and  C_12
REMARK    6  A    between atoms: N_21  and  C_22
REMARK    7  A    between atoms: C_22  and  C_23
REMARK                            x       y       z     vdW  Elec       q    Type
REMARK                         _______ _______ _______ _____ _____    ______ ____
ROOT
ATOM      1  C   UNL     1       6.876   6.966  17.299  0.00  0.00    +0.000 C 
ENDROOT
BRANCH   1   3
ATOM      2  O   UNL     1       8.589   7.144  18.998  0.00  0.00    +0.000 OA
ATOM      3  C   UNL     1       7.938   7.732  18.137  0.00  0.00    +0.000 C 
ATOM      4  N   UNL     1       8.010   9.092  17.874  0.00  0.00    +0.000 N 
ATOM      5  H   UNL     1       7.276   9.437  17.262  0.00  0.00    +0.000 HD
BRANCH   4   6
ATOM      6  C   UNL     1       8.907  10.020  18.450  0.00  0.00    +0.000 A 
ATOM      7  C   UNL     1       9.072  10.179  19.825  0.00  0.00    +0.000 A 
ATOM      8  C   UNL     1       9.961  11.137  20.287  0.00  0.00    +0.000 A 
ATOM      9  N   UNL     1      10.692  11.937  19.483  0.00  0.00    +0.000 NA
ATOM     10  C   UNL     1      10.532  11.755  18.156  0.00  0.00    +0.000 A 
ATOM     11  C   UNL     1       9.675  10.816  17.599  0.00  0.00    +0.000 A 
ENDBRANCH   4   6
ENDBRANCH   1   3
BRANCH   1  12
ATOM     12  N   UNL     1       7.430   6.517  15.982  0.00  0.00    +0.000 NA
ATOM     13  H   UNL     1       8.423   6.773  15.973  0.00  0.00    +0.000 HD
BRANCH  12  14
ATOM     14  C   UNL     1       7.367   5.046  15.875  0.00  0.00    +0.000 C 
BRANCH  14  15
ATOM     15  C   UNL     1       6.914   4.604  14.510  0.00  0.00    +0.000 A 
ATOM     16  C   UNL     1       5.769   3.809  14.367  0.00  0.00    +0.000 A 
ATOM     17  C   UNL     1       5.359   3.383  13.102  0.00  0.00    +0.000 A 
ATOM     18  C   UNL     1       6.090   3.743  11.968  0.00  0.00    +0.000 A 
ATOM     19  C   UNL     1       7.232   4.530  12.098  0.00  0.00    +0.000 A 
ATOM     20  C   UNL     1       7.638   4.947  13.362  0.00  0.00    +0.000 A 
ATOM     21  F   UNL     1       8.745   5.697  13.463  0.00  0.00    +0.000 F 
ENDBRANCH  14  15
ENDBRANCH  12  14
ENDBRANCH   1  12
BRANCH   1  22
ATOM     22  C   UNL     1       6.254   5.844  18.172  0.00  0.00    +0.000 C 
BRANCH  22  23
ATOM     23  C   UNL     1       4.752   5.790  18.100  0.00  0.00    +0.000 A 
ATOM     24  C   UNL     1       3.881   6.861  18.035  0.00  0.00    +0.000 A 
ATOM     25  N   UNL     1       2.610   6.378  17.891  0.00  0.00    +0.000 N 
ATOM     26  C   UNL     1       2.621   5.003  17.929  0.00  0.00    +0.000 A 
ATOM     27  C   UNL     1       1.565   4.091  17.837  0.00  0.00    +0.000 A 
ATOM     28  C   UNL     1       1.875   2.731  17.931  0.00  0.00    +0.000 A 
ATOM     29  C   UNL     1       3.189   2.304  18.101  0.00  0.00    +0.000 A 
ATOM     30  C   UNL     1       4.234   3.231  18.171  0.00  0.00    +0.000 A 
ATOM     31  C   UNL     1       3.948   4.607  18.081  0.00  0.00    +0.000 A 
ATOM     32  H   UNL     1       1.777   6.942  17.786  0.00  0.00    +0.000 HD
ENDBRANCH  22  23
ENDBRANCH   1  22
TORSDOF 7
ENDMDL
MODEL 9
REMARK VINA RESULT:      -8.0      0.993      1.381
REMARK  Name = 
REMARK  7 active torsions:
REMARK  status: ('A' for Active; 'I' for Inactive)
REMARK    1  A    between atoms: C_2  and  C_10
REMARK    2  A    between atoms: N_3  and  C_4
REMARK    3  A    between atoms: C_10  and  C_11
REMARK    4  A    between atoms: C_10  and  N_21
REMARK    5  A    between atoms: C_11  and  C_12
REMARK    6  A    between atoms: N_21  and  C_22
REMARK    7  A    between atoms: C_22  and  C_23
REMARK                            x       y       z     vdW  Elec       q    Type
REMARK                         _______ _______ _______ _____ _____    ______ ____
ROOT
ATOM      1  C   UNL     1       5.295   4.513  18.088  0.00  0.00    +0.000 C 
ENDROOT
BRANCH   1   3
ATOM      2  O   UNL     1       3.571   5.814  16.997  0.00  0.00    +0.000 OA
ATOM      3  C   UNL     1       4.114   5.524  18.061  0.00  0.00    +0.000 C 
ATOM      4  N   UNL     1       3.811   6.091  19.290  0.00  0.00    +0.000 N 
ATOM      5  H   UNL     1       4.478   5.872  20.025  0.00  0.00    +0.000 HD
BRANCH   4   6
ATOM      6  C   UNL     1       2.766   7.001  19.569  0.00  0.00    +0.000 A 
ATOM      7  C   UNL     1       2.404   8.043  18.716  0.00  0.00    +0.000 A 
ATOM      8  C   UNL     1       1.380   8.896  19.096  0.00  0.00    +0.000 A 
ATOM      9  N   UNL     1       0.696   8.782  20.254  0.00  0.00    +0.000 NA
ATOM     10  C   UNL     1       1.048   7.757  21.057  0.00  0.00    +0.000 A 
ATOM     11  C   UNL     1       2.052   6.847  20.758  0.00  0.00    +0.000 A 
ENDBRANCH   4   6
ENDBRANCH   1   3
BRANCH   1  12
ATOM     12  N   UNL     1       5.264   3.660  19.318  0.00  0.00    +0.000 NA
ATOM     13  H   UNL     1       4.772   4.196  20.040  0.00  0.00    +0.000 HD
BRANCH  12  14
ATOM     14  C   UNL     1       4.470   2.440  19.074  0.00  0.00    +0.000 C 
BRANCH  14  15
ATOM     15  C   UNL     1       3.023   2.633  19.442  0.00  0.00    +0.000 A 
ATOM     16  C   UNL     1       2.665   2.986  20.750  0.00  0.00    +0.000 A 
ATOM     17  C   UNL     1       1.322   3.146  21.095  0.00  0.00    +0.000 A 
ATOM     18  C   UNL     1       0.323   2.954  20.139  0.00  0.00    +0.000 A 
ATOM     19  C   UNL     1       0.665   2.600  18.836  0.00  0.00    +0.000 A 
ATOM     20  C   UNL     1       2.006   2.437  18.500  0.00  0.00    +0.000 A 
ATOM     21  F   UNL     1       2.311   2.088  17.242  0.00  0.00    +0.000 F 
ENDBRANCH  14  15
ENDBRANCH  12  14
ENDBRANCH   1  12
BRANCH   1  22
ATOM     22  C   UNL     1       5.328   3.737  16.744  0.00  0.00    +0.000 C 
BRANCH  22  23
ATOM     23  C   UNL     1       6.215   4.370  15.706  0.00  0.00    +0.000 A 
ATOM     24  C   UNL     1       7.185   5.333  15.913  0.00  0.00    +0.000 A 
ATOM     25  N   UNL     1       7.821   5.569  14.726  0.00  0.00    +0.000 N 
ATOM     26  C   UNL     1       7.241   4.826  13.724  0.00  0.00    +0.000 A 
ATOM     27  C   UNL     1       7.547   4.758  12.361  0.00  0.00    +0.000 A 
ATOM     28  C   UNL     1       6.762   3.919  11.564  0.00  0.00    +0.000 A 
ATOM     29  C   UNL     1       5.721   3.175  12.111  0.00  0.00    +0.000 A 
ATOM     30  C   UNL     1       5.443   3.243  13.480  0.00  0.00    +0.000 A 
ATOM     31  C   UNL     1       6.218   4.081  14.306  0.00  0.00    +0.000 A 
ATOM     32  H   UNL     1       8.596   6.205  14.593  0.00  0.00    +0.000 HD
ENDBRANCH  22  23
ENDBRANCH   1  22
TORSDOF 7
ENDMDL
