MODEL 1
REMARK VINA RESULT:      -7.7      0.000      0.000
REMARK  Name = 
REMARK  10 active torsions:
REMARK  status: ('A' for Active; 'I' for Inactive)
REMARK    1  A    between atoms: C_1  and  C_2
REMARK    2  A    between atoms: C_2  and  C_3
REMARK    3  A    between atoms: C_2  and  N_4
REMARK    4  A    between atoms: N_4  and  C_5
REMARK    5  A    between atoms: C_5  and  C_6
REMARK    6  A    between atoms: C_12  and  C_14
REMARK    7  A    between atoms: C_17  and  C_18
REMARK    8  A    between atoms: C_18  and  C_19
REMARK    9  A    between atoms: C_18  and  C_20
REMARK   10  A    between atoms: C_18  and  C_21
REMARK                            x       y       z     vdW  Elec       q    Type
REMARK                         _______ _______ _______ _____ _____    ______ ____
ROOT
ATOM      1  N   UNL     1       3.993   5.055  17.216  0.00  0.00    +0.000 N 
ATOM      2  C   UNL     1       4.246   6.394  17.584  0.00  0.00    +0.000 C 
ATOM      3  O   UNL     1       5.305   6.978  17.362  0.00  0.00    +0.000 OA
ENDROOT
BRANCH   2   4
ATOM      4  C   UNL     1       3.194   7.217  18.236  0.00  0.00    +0.000 A 
ATOM      5  C   UNL     1       2.846   7.009  19.565  0.00  0.00    +0.000 A 
ATOM      6  C   UNL     1       1.851   7.766  20.172  0.00  0.00    +0.000 A 
ATOM      7  C   UNL     1       1.237   8.831  19.505  0.00  0.00    +0.000 A 
ATOM      8  C   UNL     1       1.642   9.082  18.177  0.00  0.00    +0.000 A 
ATOM      9  C   UNL     1       2.605   8.279  17.546  0.00  0.00    +0.000 A 
BRANCH   7  10
ATOM     10  C   UNL     1       0.227   9.739  20.223  0.00  0.00    +0.000 C 
ATOM     11  C   UNL     1       0.855  11.053  20.750  0.00  0.00    +0.000 C 
ATOM     12  C   UNL     1      -0.883  10.126  19.228  0.00  0.00    +0.000 C 
ATOM     13  C   UNL     1      -0.392   9.019  21.437  0.00  0.00    +0.000 C 
ENDBRANCH   7  10
ENDBRANCH   2   4
BRANCH   1  15
ATOM     14  C   UNL     1       5.244   4.748  14.992  0.00  0.00    +0.000 C 
ATOM     15  C   UNL     1       5.005   4.283  16.435  0.00  0.00    +0.000 C 
ATOM     16  C   UNL     1       6.349   4.166  17.153  0.00  0.00    +0.000 C 
ENDBRANCH   1  15
BRANCH   1  17
ATOM     17  C   UNL     1       2.698   4.380  17.446  0.00  0.00    +0.000 C 
BRANCH  17  18
ATOM     18  C   UNL     1       2.442   3.768  18.821  0.00  0.00    +0.000 A 
ATOM     19  C   UNL     1       1.199   3.764  19.469  0.00  0.00    +0.000 A 
ATOM     20  C   UNL     1       1.060   3.261  20.769  0.00  0.00    +0.000 A 
ATOM     21  C   UNL     1       2.157   2.724  21.433  0.00  0.00    +0.000 A 
ATOM     22  C   UNL     1       3.384   2.649  20.783  0.00  0.00    +0.000 A 
ATOM     23  C   UNL     1       3.523   3.161  19.487  0.00  0.00    +0.000 A 
ENDBRANCH  17  18
ENDBRANCH   1  17
TORSDOF 5
ENDMDL
MODEL 2
REMARK VINA RESULT:      -7.7      0.109      1.005
REMARK  Name = 
REMARK  10 active torsions:
REMARK  status: ('A' for Active; 'I' for Inactive)
REMARK    1  A    between atoms: C_1  and  C_2
REMARK    2  A    between atoms: C_2  and  C_3
REMARK    3  A    between atoms: C_2  and  N_4
REMARK    4  A    between atoms: N_4  and  C_5
REMARK    5  A    between atoms: C_5  and  C_6
REMARK    6  A    between atoms: C_12  and  C_14
REMARK    7  A    between atoms: C_17  and  C_18
REMARK    8  A    between atoms: C_18  and  C_19
REMARK    9  A    between atoms: C_18  and  C_20
REMARK   10  A    between atoms: C_18  and  C_21
REMARK                            x       y       z     vdW  Elec       q    Type
REMARK                         _______ _______ _______ _____ _____    ______ ____
ROOT
ATOM      1  N   UNL     1       4.036   5.078  17.230  0.00  0.00    +0.000 N 
ATOM      2  C   UNL     1       4.268   6.429  17.564  0.00  0.00    +0.000 C 
ATOM      3  O   UNL     1       5.314   7.027  17.317  0.00  0.00    +0.000 OA
ENDROOT
BRANCH   2   4
ATOM      4  C   UNL     1       3.208   7.248  18.209  0.00  0.00    +0.000 A 
ATOM      5  C   UNL     1       2.866   7.053  19.541  0.00  0.00    +0.000 A 
ATOM      6  C   UNL     1       1.863   7.806  20.141  0.00  0.00    +0.000 A 
ATOM      7  C   UNL     1       1.236   8.856  19.462  0.00  0.00    +0.000 A 
ATOM      8  C   UNL     1       1.635   9.095  18.130  0.00  0.00    +0.000 A 
ATOM      9  C   UNL     1       2.606   8.295  17.507  0.00  0.00    +0.000 A 
BRANCH   7  10
ATOM     10  C   UNL     1       0.218   9.761  20.172  0.00  0.00    +0.000 C 
ATOM     11  C   UNL     1       0.829  11.093  20.672  0.00  0.00    +0.000 C 
ATOM     12  C   UNL     1      -0.904  10.116  19.177  0.00  0.00    +0.000 C 
ATOM     13  C   UNL     1      -0.383   9.053  21.401  0.00  0.00    +0.000 C 
ENDBRANCH   7  10
ENDBRANCH   2   4
BRANCH   1  15
ATOM     14  C   UNL     1       5.282   4.754  15.006  0.00  0.00    +0.000 C 
ATOM     15  C   UNL     1       5.053   4.305  16.457  0.00  0.00    +0.000 C 
ATOM     16  C   UNL     1       6.400   4.212  17.172  0.00  0.00    +0.000 C 
ENDBRANCH   1  15
BRANCH   1  17
ATOM     17  C   UNL     1       2.756   4.385  17.491  0.00  0.00    +0.000 C 
BRANCH  17  18
ATOM     18  C   UNL     1       2.523   3.806  18.884  0.00  0.00    +0.000 A 
ATOM     19  C   UNL     1       3.522   3.231  19.681  0.00  0.00    +0.000 A 
ATOM     20  C   UNL     1       3.217   2.641  20.915  0.00  0.00    +0.000 A 
ATOM     21  C   UNL     1       1.909   2.644  21.388  0.00  0.00    +0.000 A 
ATOM     22  C   UNL     1       0.914   3.275  20.649  0.00  0.00    +0.000 A 
ATOM     23  C   UNL     1       1.220   3.855  19.412  0.00  0.00    +0.000 A 
ENDBRANCH  17  18
ENDBRANCH   1  17
TORSDOF 5
ENDMDL
MODEL 3
REMARK VINA RESULT:      -7.4      0.091      1.350
REMARK  Name = 
REMARK  10 active torsions:
REMARK  status: ('A' for Active; 'I' for Inactive)
REMARK    1  A    between atoms: C_1  and  C_2
REMARK    2  A    between atoms: C_2  and  C_3
REMARK    3  A    between atoms: C_2  and  N_4
REMARK    4  A    between atoms: N_4  and  C_5
REMARK    5  A    between atoms: C_5  and  C_6
REMARK    6  A    between atoms: C_12  and  C_14
REMARK    7  A    between atoms: C_17  and  C_18
REMARK    8  A    between atoms: C_18  and  C_19
REMARK    9  A    between atoms: C_18  and  C_20
REMARK   10  A    between atoms: C_18  and  C_21
REMARK                            x       y       z     vdW  Elec       q    Type
REMARK                         _______ _______ _______ _____ _____    ______ ____
ROOT
ATOM      1  N   UNL     1       3.931   5.092  17.215  0.00  0.00    +0.000 N 
ATOM      2  C   UNL     1       4.244   6.421  17.574  0.00  0.00    +0.000 C 
ATOM      3  O   UNL     1       5.316   6.966  17.320  0.00  0.00    +0.000 OA
ENDROOT
BRANCH   2   4
ATOM      4  C   UNL     1       3.242   7.281  18.258  0.00  0.00    +0.000 A 
ATOM      5  C   UNL     1       2.600   8.309  17.577  0.00  0.00    +0.000 A 
ATOM      6  C   UNL     1       1.676   9.125  18.219  0.00  0.00    +0.000 A 
ATOM      7  C   UNL     1       1.279   8.880  19.538  0.00  0.00    +0.000 A 
ATOM      8  C   UNL     1       1.884   7.793  20.203  0.00  0.00    +0.000 A 
ATOM      9  C   UNL     1       2.861   7.006  19.573  0.00  0.00    +0.000 A 
BRANCH   7  10
ATOM     10  C   UNL     1       0.169   9.711  20.198  0.00  0.00    +0.000 C 
ATOM     11  C   UNL     1      -0.987  10.063  19.229  0.00  0.00    +0.000 C 
ATOM     12  C   UNL     1      -0.435   8.895  21.356  0.00  0.00    +0.000 C 
ATOM     13  C   UNL     1       0.725  11.043  20.735  0.00  0.00    +0.000 C 
ENDBRANCH   7  10
ENDBRANCH   2   4
BRANCH   1  15
ATOM     14  C   UNL     1       5.138   4.770  14.969  0.00  0.00    +0.000 C 
ATOM     15  C   UNL     1       4.889   4.284  16.404  0.00  0.00    +0.000 C 
ATOM     16  C   UNL     1       6.232   4.076  17.103  0.00  0.00    +0.000 C 
ENDBRANCH   1  15
BRANCH   1  17
ATOM     17  C   UNL     1       2.619   4.465  17.485  0.00  0.00    +0.000 C 
BRANCH  17  18
ATOM     18  C   UNL     1       2.398   3.825  18.852  0.00  0.00    +0.000 A 
ATOM     19  C   UNL     1       1.182   3.845  19.551  0.00  0.00    +0.000 A 
ATOM     20  C   UNL     1       1.077   3.313  20.843  0.00  0.00    +0.000 A 
ATOM     21  C   UNL     1       2.182   2.721  21.447  0.00  0.00    +0.000 A 
ATOM     22  C   UNL     1       3.378   2.622  20.745  0.00  0.00    +0.000 A 
ATOM     23  C   UNL     1       3.482   3.164  19.458  0.00  0.00    +0.000 A 
ENDBRANCH  17  18
ENDBRANCH   1  17
TORSDOF 5
ENDMDL
MODEL 4
REMARK VINA RESULT:      -7.4      0.130      1.687
REMARK  Name = 
REMARK  10 active torsions:
REMARK  status: ('A' for Active; 'I' for Inactive)
REMARK    1  A    between atoms: C_1  and  C_2
REMARK    2  A    between atoms: C_2  and  C_3
REMARK    3  A    between atoms: C_2  and  N_4
REMARK    4  A    between atoms: N_4  and  C_5
REMARK    5  A    between atoms: C_5  and  C_6
REMARK    6  A    between atoms: C_12  and  C_14
REMARK    7  A    between atoms: C_17  and  C_18
REMARK    8  A    between atoms: C_18  and  C_19
REMARK    9  A    between atoms: C_18  and  C_20
REMARK   10  A    between atoms: C_18  and  C_21
REMARK                            x       y       z     vdW  Elec       q    Type
REMARK                         _______ _______ _______ _____ _____    ______ ____
ROOT
ATOM      1  N   UNL     1       3.934   5.126  17.218  0.00  0.00    +0.000 N 
ATOM      2  C   UNL     1       4.229   6.469  17.535  0.00  0.00    +0.000 C 
ATOM      3  O   UNL     1       5.283   7.029  17.238  0.00  0.00    +0.000 OA
ENDROOT
BRANCH   2   4
ATOM      4  C   UNL     1       3.229   7.327  18.223  0.00  0.00    +0.000 A 
ATOM      5  C   UNL     1       2.588   8.359  17.548  0.00  0.00    +0.000 A 
ATOM      6  C   UNL     1       1.665   9.172  18.194  0.00  0.00    +0.000 A 
ATOM      7  C   UNL     1       1.268   8.921  19.512  0.00  0.00    +0.000 A 
ATOM      8  C   UNL     1       1.872   7.829  20.172  0.00  0.00    +0.000 A 
ATOM      9  C   UNL     1       2.848   7.045  19.537  0.00  0.00    +0.000 A 
BRANCH   7  10
ATOM     10  C   UNL     1       0.158   9.749  20.177  0.00  0.00    +0.000 C 
ATOM     11  C   UNL     1      -1.018  10.072  19.222  0.00  0.00    +0.000 C 
ATOM     12  C   UNL     1      -0.417   8.944  21.358  0.00  0.00    +0.000 C 
ATOM     13  C   UNL     1       0.707  11.096  20.684  0.00  0.00    +0.000 C 
ENDBRANCH   7  10
ENDBRANCH   2   4
BRANCH   1  15
ATOM     14  C   UNL     1       5.167   4.829  14.982  0.00  0.00    +0.000 C 
ATOM     15  C   UNL     1       4.888   4.316  16.402  0.00  0.00    +0.000 C 
ATOM     16  C   UNL     1       6.215   4.064  17.115  0.00  0.00    +0.000 C 
ENDBRANCH   1  15
BRANCH   1  17
ATOM     17  C   UNL     1       2.644   4.479  17.539  0.00  0.00    +0.000 C 
BRANCH  17  18
ATOM     18  C   UNL     1       2.476   3.861  18.924  0.00  0.00    +0.000 A 
ATOM     19  C   UNL     1       3.510   3.260  19.656  0.00  0.00    +0.000 A 
ATOM     20  C   UNL     1       3.263   2.634  20.885  0.00  0.00    +0.000 A 
ATOM     21  C   UNL     1       1.979   2.627  21.420  0.00  0.00    +0.000 A 
ATOM     22  C   UNL     1       0.952   3.282  20.748  0.00  0.00    +0.000 A 
ATOM     23  C   UNL     1       1.200   3.897  19.516  0.00  0.00    +0.000 A 
ENDBRANCH  17  18
ENDBRANCH   1  17
TORSDOF 5
ENDMDL
MODEL 5
REMARK VINA RESULT:      -7.2      1.829      3.931
REMARK  Name = 
REMARK  10 active torsions:
REMARK  status: ('A' for Active; 'I' for Inactive)
REMARK    1  A    between atoms: C_1  and  C_2
REMARK    2  A    between atoms: C_2  and  C_3
REMARK    3  A    between atoms: C_2  and  N_4
REMARK    4  A    between atoms: N_4  and  C_5
REMARK    5  A    between atoms: C_5  and  C_6
REMARK    6  A    between atoms: C_12  and  C_14
REMARK    7  A    between atoms: C_17  and  C_18
REMARK    8  A    between atoms: C_18  and  C_19
REMARK    9  A    between atoms: C_18  and  C_20
REMARK   10  A    between atoms: C_18  and  C_21
REMARK                            x       y       z     vdW  Elec       q    Type
REMARK                         _______ _______ _______ _____ _____    ______ ____
ROOT
ATOM      1  N   UNL     1       3.386   4.032  19.380  0.00  0.00    +0.000 N 
ATOM      2  C   UNL     1       2.098   4.608  19.430  0.00  0.00    +0.000 C 
ATOM      3  O   UNL     1       1.062   3.961  19.568  0.00  0.00    +0.000 OA
ENDROOT
BRANCH   2   4
ATOM      4  C   UNL     1       1.920   6.083  19.367  0.00  0.00    +0.000 A 
ATOM      5  C   UNL     1       1.996   6.761  18.157  0.00  0.00    +0.000 A 
ATOM      6  C   UNL     1       1.847   8.142  18.098  0.00  0.00    +0.000 A 
ATOM      7  C   UNL     1       1.511   8.887  19.234  0.00  0.00    +0.000 A 
ATOM      8  C   UNL     1       1.368   8.184  20.449  0.00  0.00    +0.000 A 
ATOM      9  C   UNL     1       1.578   6.798  20.517  0.00  0.00    +0.000 A 
BRANCH   7  10
ATOM     10  C   UNL     1       1.227  10.393  19.137  0.00  0.00    +0.000 C 
ATOM     11  C   UNL     1       2.236  11.147  18.235  0.00  0.00    +0.000 C 
ATOM     12  C   UNL     1      -0.173  10.593  18.526  0.00  0.00    +0.000 C 
ATOM     13  C   UNL     1       1.287  11.054  20.527  0.00  0.00    +0.000 C 
ENDBRANCH   7  10
ENDBRANCH   2   4
BRANCH   1  15
ATOM     14  C   UNL     1       3.551   1.698  18.317  0.00  0.00    +0.000 C 
ATOM     15  C   UNL     1       3.565   2.564  19.585  0.00  0.00    +0.000 C 
ATOM     16  C   UNL     1       4.805   2.225  20.410  0.00  0.00    +0.000 C 
ENDBRANCH   1  15
BRANCH   1  17
ATOM     17  C   UNL     1       4.628   4.826  19.260  0.00  0.00    +0.000 C 
BRANCH  17  18
ATOM     18  C   UNL     1       5.365   4.809  17.924  0.00  0.00    +0.000 A 
ATOM     19  C   UNL     1       4.743   4.926  16.673  0.00  0.00    +0.000 A 
ATOM     20  C   UNL     1       5.476   4.813  15.484  0.00  0.00    +0.000 A 
ATOM     21  C   UNL     1       6.852   4.613  15.526  0.00  0.00    +0.000 A 
ATOM     22  C   UNL     1       7.501   4.569  16.756  0.00  0.00    +0.000 A 
ATOM     23  C   UNL     1       6.765   4.672  17.942  0.00  0.00    +0.000 A 
ENDBRANCH  17  18
ENDBRANCH   1  17
TORSDOF 5
ENDMDL
MODEL 6
REMARK VINA RESULT:      -7.1      1.770      4.234
REMARK  Name = 
REMARK  10 active torsions:
REMARK  status: ('A' for Active; 'I' for Inactive)
REMARK    1  A    between atoms: C_1  and  C_2
REMARK    2  A    between atoms: C_2  and  C_3
REMARK    3  A    between atoms: C_2  and  N_4
REMARK    4  A    between atoms: N_4  and  C_5
REMARK    5  A    between atoms: C_5  and  C_6
REMARK    6  A    between atoms: C_12  and  C_14
REMARK    7  A    between atoms: C_17  and  C_18
REMARK    8  A    between atoms: C_18  and  C_19
REMARK    9  A    between atoms: C_18  and  C_20
REMARK   10  A    between atoms: C_18  and  C_21
REMARK                            x       y       z     vdW  Elec       q    Type
REMARK                         _______ _______ _______ _____ _____    ______ ____
ROOT
ATOM      1  N   UNL     1       3.944   4.126  19.145  0.00  0.00    +0.000 N 
ATOM      2  C   UNL     1       2.637   4.580  19.417  0.00  0.00    +0.000 C 
ATOM      3  O   UNL     1       1.716   3.848  19.776  0.00  0.00    +0.000 OA
ENDROOT
BRANCH   2   4
ATOM      4  C   UNL     1       2.299   6.027  19.334  0.00  0.00    +0.000 A 
ATOM      5  C   UNL     1       2.314   6.694  18.115  0.00  0.00    +0.000 A 
ATOM      6  C   UNL     1       2.015   8.049  18.037  0.00  0.00    +0.000 A 
ATOM      7  C   UNL     1       1.587   8.767  19.159  0.00  0.00    +0.000 A 
ATOM      8  C   UNL     1       1.508   8.067  20.382  0.00  0.00    +0.000 A 
ATOM      9  C   UNL     1       1.867   6.713  20.471  0.00  0.00    +0.000 A 
BRANCH   7  10
ATOM     10  C   UNL     1       1.141  10.231  19.039  0.00  0.00    +0.000 C 
ATOM     11  C   UNL     1       2.116  11.099  18.205  0.00  0.00    +0.000 C 
ATOM     12  C   UNL     1      -0.228  10.275  18.335  0.00  0.00    +0.000 C 
ATOM     13  C   UNL     1       1.033  10.888  20.428  0.00  0.00    +0.000 C 
ENDBRANCH   7  10
ENDBRANCH   2   4
BRANCH   1  15
ATOM     14  C   UNL     1       4.183   2.185  20.811  0.00  0.00    +0.000 C 
ATOM     15  C   UNL     1       4.309   2.696  19.368  0.00  0.00    +0.000 C 
ATOM     16  C   UNL     1       3.572   1.740  18.432  0.00  0.00    +0.000 C 
ENDBRANCH   1  15
BRANCH   1  17
ATOM     17  C   UNL     1       5.054   5.025  18.760  0.00  0.00    +0.000 C 
BRANCH  17  18
ATOM     18  C   UNL     1       5.679   4.844  17.380  0.00  0.00    +0.000 A 
ATOM     19  C   UNL     1       7.052   4.929  17.113  0.00  0.00    +0.000 A 
ATOM     20  C   UNL     1       7.546   4.838  15.804  0.00  0.00    +0.000 A 
ATOM     21  C   UNL     1       6.674   4.628  14.741  0.00  0.00    +0.000 A 
ATOM     22  C   UNL     1       5.315   4.465  14.990  0.00  0.00    +0.000 A 
ATOM     23  C   UNL     1       4.824   4.567  16.296  0.00  0.00    +0.000 A 
ENDBRANCH  17  18
ENDBRANCH   1  17
TORSDOF 5
ENDMDL
MODEL 7
REMARK VINA RESULT:      -7.1      1.013      1.196
REMARK  Name = 
REMARK  10 active torsions:
REMARK  status: ('A' for Active; 'I' for Inactive)
REMARK    1  A    between atoms: C_1  and  C_2
REMARK    2  A    between atoms: C_2  and  C_3
REMARK    3  A    between atoms: C_2  and  N_4
REMARK    4  A    between atoms: N_4  and  C_5
REMARK    5  A    between atoms: C_5  and  C_6
REMARK    6  A    between atoms: C_12  and  C_14
REMARK    7  A    between atoms: C_17  and  C_18
REMARK    8  A    between atoms: C_18  and  C_19
REMARK    9  A    between atoms: C_18  and  C_20
REMARK   10  A    between atoms: C_18  and  C_21
REMARK                            x       y       z     vdW  Elec       q    Type
REMARK                         _______ _______ _______ _____ _____    ______ ____
ROOT
ATOM      1  N   UNL     1       3.437   5.481  17.607  0.00  0.00    +0.000 N 
ATOM      2  C   UNL     1       3.745   6.840  17.830  0.00  0.00    +0.000 C 
ATOM      3  O   UNL     1       4.838   7.347  17.585  0.00  0.00    +0.000 OA
ENDROOT
BRANCH   2   4
ATOM      4  C   UNL     1       2.713   7.780  18.345  0.00  0.00    +0.000 A 
ATOM      5  C   UNL     1       2.309   7.739  19.674  0.00  0.00    +0.000 A 
ATOM      6  C   UNL     1       1.334   8.606  20.153  0.00  0.00    +0.000 A 
ATOM      7  C   UNL     1       0.799   9.618  19.348  0.00  0.00    +0.000 A 
ATOM      8  C   UNL     1       1.263   9.698  18.018  0.00  0.00    +0.000 A 
ATOM      9  C   UNL     1       2.205   8.785  17.519  0.00  0.00    +0.000 A 
BRANCH   7  10
ATOM     10  C   UNL     1      -0.187  10.646  19.920  0.00  0.00    +0.000 C 
ATOM     11  C   UNL     1       0.360  12.095  19.896  0.00  0.00    +0.000 C 
ATOM     12  C   UNL     1      -1.471  10.626  19.068  0.00  0.00    +0.000 C 
ATOM     13  C   UNL     1      -0.531  10.321  21.386  0.00  0.00    +0.000 C 
ENDBRANCH   7  10
ENDBRANCH   2   4
BRANCH   1  15
ATOM     14  C   UNL     1       5.093   5.110  15.677  0.00  0.00    +0.000 C 
ATOM     15  C   UNL     1       4.434   4.579  16.958  0.00  0.00    +0.000 C 
ATOM     16  C   UNL     1       5.521   4.103  17.920  0.00  0.00    +0.000 C 
ENDBRANCH   1  15
BRANCH   1  17
ATOM     17  C   UNL     1       2.103   4.897  17.862  0.00  0.00    +0.000 C 
BRANCH  17  18
ATOM     18  C   UNL     1       1.887   4.150  19.175  0.00  0.00    +0.000 A 
ATOM     19  C   UNL     1       2.374   4.574  20.420  0.00  0.00    +0.000 A 
ATOM     20  C   UNL     1       2.210   3.790  21.570  0.00  0.00    +0.000 A 
ATOM     21  C   UNL     1       1.527   2.580  21.500  0.00  0.00    +0.000 A 
ATOM     22  C   UNL     1       0.970   2.175  20.292  0.00  0.00    +0.000 A 
ATOM     23  C   UNL     1       1.144   2.955  19.143  0.00  0.00    +0.000 A 
ENDBRANCH  17  18
ENDBRANCH   1  17
TORSDOF 5
ENDMDL
MODEL 8
REMARK VINA RESULT:      -7.1      1.739      4.111
REMARK  Name = 
REMARK  10 active torsions:
REMARK  status: ('A' for Active; 'I' for Inactive)
REMARK    1  A    between atoms: C_1  and  C_2
REMARK    2  A    between atoms: C_2  and  C_3
REMARK    3  A    between atoms: C_2  and  N_4
REMARK    4  A    between atoms: N_4  and  C_5
REMARK    5  A    between atoms: C_5  and  C_6
REMARK    6  A    between atoms: C_12  and  C_14
REMARK    7  A    between atoms: C_17  and  C_18
REMARK    8  A    between atoms: C_18  and  C_19
REMARK    9  A    between atoms: C_18  and  C_20
REMARK   10  A    between atoms: C_18  and  C_21
REMARK                            x       y       z     vdW  Elec       q    Type
REMARK                         _______ _______ _______ _____ _____    ______ ____
ROOT
ATOM      1  N   UNL     1       3.685   4.550  19.313  0.00  0.00    +0.000 N 
ATOM      2  C   UNL     1       2.373   5.031  19.508  0.00  0.00    +0.000 C 
ATOM      3  O   UNL     1       1.413   4.315  19.783  0.00  0.00    +0.000 OA
ENDROOT
BRANCH   2   4
ATOM      4  C   UNL     1       2.077   6.487  19.439  0.00  0.00    +0.000 A 
ATOM      5  C   UNL     1       2.154   7.175  18.234  0.00  0.00    +0.000 A 
ATOM      6  C   UNL     1       1.894   8.539  18.170  0.00  0.00    +0.000 A 
ATOM      7  C   UNL     1       1.445   9.248  19.289  0.00  0.00    +0.000 A 
ATOM      8  C   UNL     1       1.303   8.530  20.495  0.00  0.00    +0.000 A 
ATOM      9  C   UNL     1       1.623   7.165  20.572  0.00  0.00    +0.000 A 
BRANCH   7  10
ATOM     10  C   UNL     1       1.043  10.726  19.180  0.00  0.00    +0.000 C 
ATOM     11  C   UNL     1       1.022  11.455  20.547  0.00  0.00    +0.000 C 
ATOM     12  C   UNL     1       2.069  11.452  18.290  0.00  0.00    +0.000 C 
ATOM     13  C   UNL     1      -0.365  10.870  18.574  0.00  0.00    +0.000 C 
ENDBRANCH   7  10
ENDBRANCH   2   4
BRANCH   1  15
ATOM     14  C   UNL     1       3.479   2.485  20.829  0.00  0.00    +0.000 C 
ATOM     15  C   UNL     1       3.999   3.105  19.524  0.00  0.00    +0.000 C 
ATOM     16  C   UNL     1       3.575   2.226  18.348  0.00  0.00    +0.000 C 
ENDBRANCH   1  15
BRANCH   1  17
ATOM     17  C   UNL     1       4.840   5.429  19.028  0.00  0.00    +0.000 C 
BRANCH  17  18
ATOM     18  C   UNL     1       5.507   5.317  17.660  0.00  0.00    +0.000 A 
ATOM     19  C   UNL     1       4.932   5.750  16.458  0.00  0.00    +0.000 A 
ATOM     20  C   UNL     1       5.568   5.534  15.228  0.00  0.00    +0.000 A 
ATOM     21  C   UNL     1       6.808   4.907  15.183  0.00  0.00    +0.000 A 
ATOM     22  C   UNL     1       7.433   4.536  16.369  0.00  0.00    +0.000 A 
ATOM     23  C   UNL     1       6.791   4.744  17.595  0.00  0.00    +0.000 A 
ENDBRANCH  17  18
ENDBRANCH   1  17
TORSDOF 5
ENDMDL
MODEL 9
REMARK VINA RESULT:      -7.1      3.199      7.845
REMARK  Name = 
REMARK  10 active torsions:
REMARK  status: ('A' for Active; 'I' for Inactive)
REMARK    1  A    between atoms: C_1  and  C_2
REMARK    2  A    between atoms: C_2  and  C_3
REMARK    3  A    between atoms: C_2  and  N_4
REMARK    4  A    between atoms: N_4  and  C_5
REMARK    5  A    between atoms: C_5  and  C_6
REMARK    6  A    between atoms: C_12  and  C_14
REMARK    7  A    between atoms: C_17  and  C_18
REMARK    8  A    between atoms: C_18  and  C_19
REMARK    9  A    between atoms: C_18  and  C_20
REMARK   10  A    between atoms: C_18  and  C_21
REMARK                            x       y       z     vdW  Elec       q    Type
REMARK                         _______ _______ _______ _____ _____    ______ ____
ROOT
ATOM      1  N   UNL     1      -0.263  11.841  19.472  0.00  0.00    +0.000 N 
ATOM      2  C   UNL     1       1.070  11.384  19.411  0.00  0.00    +0.000 C 
ATOM      3  O   UNL     1       2.052  12.123  19.450  0.00  0.00    +0.000 OA
ENDROOT
BRANCH   2   4
ATOM      4  C   UNL     1       1.376   9.930  19.346  0.00  0.00    +0.000 A 
ATOM      5  C   UNL     1       1.845   9.350  18.173  0.00  0.00    +0.000 A 
ATOM      6  C   UNL     1       2.115   7.989  18.106  0.00  0.00    +0.000 A 
ATOM      7  C   UNL     1       2.027   7.171  19.238  0.00  0.00    +0.000 A 
ATOM      8  C   UNL     1       1.616   7.779  20.443  0.00  0.00    +0.000 A 
ATOM      9  C   UNL     1       1.286   9.142  20.496  0.00  0.00    +0.000 A 
BRANCH   7  10
ATOM     10  C   UNL     1       2.445   5.694  19.182  0.00  0.00    +0.000 C 
ATOM     11  C   UNL     1       1.923   4.960  17.922  0.00  0.00    +0.000 C 
ATOM     12  C   UNL     1       3.984   5.618  19.154  0.00  0.00    +0.000 C 
ATOM     13  C   UNL     1       1.909   4.926  20.404  0.00  0.00    +0.000 C 
ENDBRANCH   7  10
ENDBRANCH   2   4
BRANCH   1  15
ATOM     14  C   UNL     1      -0.507  14.175  18.425  0.00  0.00    +0.000 C 
ATOM     15  C   UNL     1      -0.556  13.290  19.679  0.00  0.00    +0.000 C 
ATOM     16  C   UNL     1      -1.874  13.532  20.413  0.00  0.00    +0.000 C 
ENDBRANCH   1  15
BRANCH   1  17
ATOM     17  C   UNL     1      -1.433  10.936  19.471  0.00  0.00    +0.000 C 
BRANCH  17  18
ATOM     18  C   UNL     1      -2.193  10.746  18.162  0.00  0.00    +0.000 A 
ATOM     19  C   UNL     1      -1.770   9.919  17.111  0.00  0.00    +0.000 A 
ATOM     20  C   UNL     1      -2.475   9.862  15.902  0.00  0.00    +0.000 A 
ATOM     21  C   UNL     1      -3.636  10.608  15.733  0.00  0.00    +0.000 A 
ATOM     22  C   UNL     1      -4.116  11.378  16.788  0.00  0.00    +0.000 A 
ATOM     23  C   UNL     1      -3.404  11.441  17.991  0.00  0.00    +0.000 A 
ENDBRANCH  17  18
ENDBRANCH   1  17
TORSDOF 5
ENDMDL
