MODEL 1
REMARK VINA RESULT:      -7.7      0.000      0.000
REMARK  Name = 
REMARK  6 active torsions:
REMARK  status: ('A' for Active; 'I' for Inactive)
REMARK    1  A    between atoms: N_1  and  N_2
REMARK    2  A    between atoms: C_3  and  S_4
REMARK    3  A    between atoms: S_4  and  C_5
REMARK    4  A    between atoms: C_5  and  C_6
REMARK    5  A    between atoms: N_8  and  C_9
REMARK    6  A    between atoms: C_17  and  C_18
REMARK                            x       y       z     vdW  Elec       q    Type
REMARK                         _______ _______ _______ _____ _____    ______ ____
ROOT
ATOM      1  N   UNL     1       6.507   3.962  15.257  0.00  0.00    +0.000 N 
ATOM      2  C   UNL     1       7.293   4.912  15.872  0.00  0.00    +0.000 A 
ATOM      3  N   UNL     1       7.832   5.697  14.969  0.00  0.00    +0.000 NA
ATOM      4  N   UNL     1       7.389   5.279  13.732  0.00  0.00    +0.000 NA
ATOM      5  C   UNL     1       6.580   4.245  13.913  0.00  0.00    +0.000 A 
ENDROOT
BRANCH   5   6
ATOM      6  C   UNL     1       5.885   3.553  12.872  0.00  0.00    +0.000 A 
ATOM      7  C   UNL     1       6.341   2.521  12.067  0.00  0.00    +0.000 A 
ATOM      8  C   UNL     1       5.301   2.196  11.162  0.00  0.00    +0.000 A 
ATOM      9  C   UNL     1       4.261   3.038  11.463  0.00  0.00    +0.000 A 
ATOM     10  O   UNL     1       4.595   3.849  12.499  0.00  0.00    +0.000 OA
ENDBRANCH   5   6
BRANCH   1  11
ATOM     11  N   UNL     1       5.776   2.892  15.899  0.00  0.00    +0.000 N 
ATOM     12  H   UNL     1       4.783   2.955  15.678  0.00  0.00    +0.000 HD
ATOM     13  H   UNL     1       5.849   2.967  16.915  0.00  0.00    +0.000 HD
ENDBRANCH   1  11
BRANCH   2  14
ATOM     14  S   UNL     1       7.497   4.979  17.587  0.00  0.00    +0.000 S 
BRANCH  14  15
ATOM     15  C   UNL     1       5.986   5.848  18.095  0.00  0.00    +0.000 C 
BRANCH  15  16
ATOM     16  C   UNL     1       5.037   4.832  18.701  0.00  0.00    +0.000 C 
ATOM     17  O   UNL     1       5.440   3.731  19.081  0.00  0.00    +0.000 OA
ATOM     18  N   UNL     1       3.697   5.192  18.744  0.00  0.00    +0.000 N 
ATOM     19  H   UNL     1       3.419   6.150  18.577  0.00  0.00    +0.000 HD
BRANCH  18  20
ATOM     20  C   UNL     1       2.733   4.221  19.225  0.00  0.00    +0.000 C 
ATOM     21  C   UNL     1       1.623   3.871  18.232  0.00  0.00    +0.000 C 
ATOM     22  C   UNL     1       0.881   2.634  18.754  0.00  0.00    +0.000 C 
ATOM     23  C   UNL     1       0.364   2.807  20.188  0.00  0.00    +0.000 C 
ATOM     24  C   UNL     1       1.381   3.427  21.150  0.00  0.00    +0.000 C 
ATOM     25  C   UNL     1       2.087   4.640  20.549  0.00  0.00    +0.000 C 
ENDBRANCH  18  20
ENDBRANCH  15  16
ENDBRANCH  14  15
ENDBRANCH   2  14
TORSDOF 6
ENDMDL
MODEL 2
REMARK VINA RESULT:      -7.7      1.114      1.607
REMARK  Name = 
REMARK  6 active torsions:
REMARK  status: ('A' for Active; 'I' for Inactive)
REMARK    1  A    between atoms: N_1  and  N_2
REMARK    2  A    between atoms: C_3  and  S_4
REMARK    3  A    between atoms: S_4  and  C_5
REMARK    4  A    between atoms: C_5  and  C_6
REMARK    5  A    between atoms: N_8  and  C_9
REMARK    6  A    between atoms: C_17  and  C_18
REMARK                            x       y       z     vdW  Elec       q    Type
REMARK                         _______ _______ _______ _____ _____    ______ ____
ROOT
ATOM      1  N   UNL     1       6.402   3.861  15.252  0.00  0.00    +0.000 N 
ATOM      2  C   UNL     1       7.132   4.814  15.927  0.00  0.00    +0.000 A 
ATOM      3  N   UNL     1       7.675   5.647  15.070  0.00  0.00    +0.000 NA
ATOM      4  N   UNL     1       7.291   5.258  13.805  0.00  0.00    +0.000 NA
ATOM      5  C   UNL     1       6.511   4.193  13.922  0.00  0.00    +0.000 A 
ENDROOT
BRANCH   5   6
ATOM      6  C   UNL     1       5.878   3.514  12.834  0.00  0.00    +0.000 A 
ATOM      7  C   UNL     1       4.620   3.733  12.294  0.00  0.00    +0.000 A 
ATOM      8  C   UNL     1       4.430   2.785  11.259  0.00  0.00    +0.000 A 
ATOM      9  C   UNL     1       5.581   2.040  11.213  0.00  0.00    +0.000 A 
ATOM     10  O   UNL     1       6.465   2.479  12.146  0.00  0.00    +0.000 OA
ENDBRANCH   5   6
BRANCH   1  11
ATOM     11  N   UNL     1       5.685   2.745  15.830  0.00  0.00    +0.000 N 
ATOM     12  H   UNL     1       4.783   3.050  16.194  0.00  0.00    +0.000 HD
ATOM     13  H   UNL     1       6.200   2.362  16.625  0.00  0.00    +0.000 HD
ENDBRANCH   1  11
BRANCH   2  14
ATOM     14  S   UNL     1       7.273   4.828  17.649  0.00  0.00    +0.000 S 
BRANCH  14  15
ATOM     15  C   UNL     1       6.270   6.278  18.080  0.00  0.00    +0.000 C 
BRANCH  15  16
ATOM     16  C   UNL     1       4.821   5.841  18.169  0.00  0.00    +0.000 C 
ATOM     17  O   UNL     1       3.911   6.563  17.758  0.00  0.00    +0.000 OA
ATOM     18  N   UNL     1       4.583   4.620  18.787  0.00  0.00    +0.000 N 
ATOM     19  H   UNL     1       5.347   3.981  18.967  0.00  0.00    +0.000 HD
BRANCH  18  20
ATOM     20  C   UNL     1       3.210   4.197  18.984  0.00  0.00    +0.000 C 
ATOM     21  C   UNL     1       2.654   4.452  20.387  0.00  0.00    +0.000 C 
ATOM     22  C   UNL     1       1.135   4.242  20.349  0.00  0.00    +0.000 C 
ATOM     23  C   UNL     1       0.733   2.871  19.788  0.00  0.00    +0.000 C 
ATOM     24  C   UNL     1       1.492   2.466  18.522  0.00  0.00    +0.000 C 
ATOM     25  C   UNL     1       2.992   2.722  18.634  0.00  0.00    +0.000 C 
ENDBRANCH  18  20
ENDBRANCH  15  16
ENDBRANCH  14  15
ENDBRANCH   2  14
TORSDOF 6
ENDMDL
MODEL 3
REMARK VINA RESULT:      -7.4      3.383      4.995
REMARK  Name = 
REMARK  6 active torsions:
REMARK  status: ('A' for Active; 'I' for Inactive)
REMARK    1  A    between atoms: N_1  and  N_2
REMARK    2  A    between atoms: C_3  and  S_4
REMARK    3  A    between atoms: S_4  and  C_5
REMARK    4  A    between atoms: C_5  and  C_6
REMARK    5  A    between atoms: N_8  and  C_9
REMARK    6  A    between atoms: C_17  and  C_18
REMARK                            x       y       z     vdW  Elec       q    Type
REMARK                         _______ _______ _______ _____ _____    ______ ____
ROOT
ATOM      1  N   UNL     1       3.956   3.166  18.492  0.00  0.00    +0.000 N 
ATOM      2  C   UNL     1       2.648   2.820  18.751  0.00  0.00    +0.000 A 
ATOM      3  N   UNL     1       1.906   3.063  17.695  0.00  0.00    +0.000 NA
ATOM      4  N   UNL     1       2.729   3.561  16.709  0.00  0.00    +0.000 NA
ATOM      5  C   UNL     1       3.964   3.606  17.188  0.00  0.00    +0.000 A 
ENDROOT
BRANCH   5   6
ATOM      6  C   UNL     1       5.116   4.030  16.455  0.00  0.00    +0.000 A 
ATOM      7  C   UNL     1       5.241   4.247  15.091  0.00  0.00    +0.000 A 
ATOM      8  C   UNL     1       6.584   4.619  14.840  0.00  0.00    +0.000 A 
ATOM      9  C   UNL     1       7.210   4.618  16.061  0.00  0.00    +0.000 A 
ATOM     10  O   UNL     1       6.334   4.279  17.041  0.00  0.00    +0.000 OA
ENDBRANCH   5   6
BRANCH   1  11
ATOM     11  N   UNL     1       5.073   3.089  19.408  0.00  0.00    +0.000 N 
ATOM     12  H   UNL     1       4.793   2.634  20.275  0.00  0.00    +0.000 HD
ATOM     13  H   UNL     1       5.390   4.026  19.665  0.00  0.00    +0.000 HD
ENDBRANCH   1  11
BRANCH   2  14
ATOM     14  S   UNL     1       2.141   2.184  20.275  0.00  0.00    +0.000 S 
BRANCH  14  15
ATOM     15  C   UNL     1       2.398   3.613  21.365  0.00  0.00    +0.000 C 
BRANCH  15  16
ATOM     16  C   UNL     1       1.719   4.815  20.738  0.00  0.00    +0.000 C 
ATOM     17  O   UNL     1       0.526   4.786  20.435  0.00  0.00    +0.000 OA
ATOM     18  N   UNL     1       2.530   5.913  20.477  0.00  0.00    +0.000 N 
ATOM     19  H   UNL     1       3.457   5.970  20.877  0.00  0.00    +0.000 HD
BRANCH  18  20
ATOM     20  C   UNL     1       1.954   7.053  19.791  0.00  0.00    +0.000 C 
ATOM     21  C   UNL     1       2.751   7.545  18.581  0.00  0.00    +0.000 C 
ATOM     22  C   UNL     1       1.876   8.532  17.797  0.00  0.00    +0.000 C 
ATOM     23  C   UNL     1       1.342   9.679  18.665  0.00  0.00    +0.000 C 
ATOM     24  C   UNL     1       0.788   9.233  20.020  0.00  0.00    +0.000 C 
ATOM     25  C   UNL     1       1.707   8.239  20.727  0.00  0.00    +0.000 C 
ENDBRANCH  18  20
ENDBRANCH  15  16
ENDBRANCH  14  15
ENDBRANCH   2  14
TORSDOF 6
ENDMDL
MODEL 4
REMARK VINA RESULT:      -7.3      1.028      1.165
REMARK  Name = 
REMARK  6 active torsions:
REMARK  status: ('A' for Active; 'I' for Inactive)
REMARK    1  A    between atoms: N_1  and  N_2
REMARK    2  A    between atoms: C_3  and  S_4
REMARK    3  A    between atoms: S_4  and  C_5
REMARK    4  A    between atoms: C_5  and  C_6
REMARK    5  A    between atoms: N_8  and  C_9
REMARK    6  A    between atoms: C_17  and  C_18
REMARK                            x       y       z     vdW  Elec       q    Type
REMARK                         _______ _______ _______ _____ _____    ______ ____
ROOT
ATOM      1  N   UNL     1       6.378   3.865  15.262  0.00  0.00    +0.000 N 
ATOM      2  C   UNL     1       7.099   4.822  15.943  0.00  0.00    +0.000 A 
ATOM      3  N   UNL     1       7.650   5.654  15.090  0.00  0.00    +0.000 NA
ATOM      4  N   UNL     1       7.281   5.261  13.821  0.00  0.00    +0.000 NA
ATOM      5  C   UNL     1       6.502   4.195  13.933  0.00  0.00    +0.000 A 
ENDROOT
BRANCH   5   6
ATOM      6  C   UNL     1       5.882   3.512  12.839  0.00  0.00    +0.000 A 
ATOM      7  C   UNL     1       4.642   3.745  12.266  0.00  0.00    +0.000 A 
ATOM      8  C   UNL     1       4.460   2.786  11.240  0.00  0.00    +0.000 A 
ATOM      9  C   UNL     1       5.598   2.021  11.232  0.00  0.00    +0.000 A 
ATOM     10  O   UNL     1       6.467   2.457  12.180  0.00  0.00    +0.000 OA
ENDBRANCH   5   6
BRANCH   1  11
ATOM     11  N   UNL     1       5.657   2.750  15.835  0.00  0.00    +0.000 N 
ATOM     12  H   UNL     1       4.688   2.750  15.519  0.00  0.00    +0.000 HD
ATOM     13  H   UNL     1       5.626   2.829  16.853  0.00  0.00    +0.000 HD
ENDBRANCH   1  11
BRANCH   2  14
ATOM     14  S   UNL     1       7.221   4.840  17.666  0.00  0.00    +0.000 S 
BRANCH  14  15
ATOM     15  C   UNL     1       6.072   6.180  18.094  0.00  0.00    +0.000 C 
BRANCH  15  16
ATOM     16  C   UNL     1       4.714   5.567  18.375  0.00  0.00    +0.000 C 
ATOM     17  O   UNL     1       3.677   6.209  18.200  0.00  0.00    +0.000 OA
ATOM     18  N   UNL     1       4.716   4.277  18.889  0.00  0.00    +0.000 N 
ATOM     19  H   UNL     1       5.561   3.720  18.871  0.00  0.00    +0.000 HD
BRANCH  18  20
ATOM     20  C   UNL     1       3.450   3.678  19.266  0.00  0.00    +0.000 C 
ATOM     21  C   UNL     1       2.479   3.446  18.106  0.00  0.00    +0.000 C 
ATOM     22  C   UNL     1       1.341   2.545  18.603  0.00  0.00    +0.000 C 
ATOM     23  C   UNL     1       0.650   3.092  19.859  0.00  0.00    +0.000 C 
ATOM     24  C   UNL     1       1.615   3.598  20.935  0.00  0.00    +0.000 C 
ATOM     25  C   UNL     1       2.725   4.471  20.357  0.00  0.00    +0.000 C 
ENDBRANCH  18  20
ENDBRANCH  15  16
ENDBRANCH  14  15
ENDBRANCH   2  14
TORSDOF 6
ENDMDL
MODEL 5
REMARK VINA RESULT:      -7.2      0.415      1.139
REMARK  Name = 
REMARK  6 active torsions:
REMARK  status: ('A' for Active; 'I' for Inactive)
REMARK    1  A    between atoms: N_1  and  N_2
REMARK    2  A    between atoms: C_3  and  S_4
REMARK    3  A    between atoms: S_4  and  C_5
REMARK    4  A    between atoms: C_5  and  C_6
REMARK    5  A    between atoms: N_8  and  C_9
REMARK    6  A    between atoms: C_17  and  C_18
REMARK                            x       y       z     vdW  Elec       q    Type
REMARK                         _______ _______ _______ _____ _____    ______ ____
ROOT
ATOM      1  N   UNL     1       6.477   3.914  15.266  0.00  0.00    +0.000 N 
ATOM      2  C   UNL     1       7.265   4.843  15.909  0.00  0.00    +0.000 A 
ATOM      3  N   UNL     1       7.808   5.652  15.029  0.00  0.00    +0.000 NA
ATOM      4  N   UNL     1       7.364   5.272  13.780  0.00  0.00    +0.000 NA
ATOM      5  C   UNL     1       6.551   4.237  13.931  0.00  0.00    +0.000 A 
ENDROOT
BRANCH   5   6
ATOM      6  C   UNL     1       5.854   3.577  12.870  0.00  0.00    +0.000 A 
ATOM      7  C   UNL     1       6.306   2.566  12.037  0.00  0.00    +0.000 A 
ATOM      8  C   UNL     1       5.265   2.272  11.122  0.00  0.00    +0.000 A 
ATOM      9  C   UNL     1       4.230   3.111  11.445  0.00  0.00    +0.000 A 
ATOM     10  O   UNL     1       4.567   3.891  12.504  0.00  0.00    +0.000 OA
ENDBRANCH   5   6
BRANCH   1  11
ATOM     11  N   UNL     1       5.742   2.828  15.875  0.00  0.00    +0.000 N 
ATOM     12  H   UNL     1       6.266   1.957  15.805  0.00  0.00    +0.000 HD
ATOM     13  H   UNL     1       4.860   2.672  15.382  0.00  0.00    +0.000 HD
ENDBRANCH   1  11
BRANCH   2  14
ATOM     14  S   UNL     1       7.470   4.859  17.624  0.00  0.00    +0.000 S 
BRANCH  14  15
ATOM     15  C   UNL     1       6.158   6.007  18.132  0.00  0.00    +0.000 C 
BRANCH  15  16
ATOM     16  C   UNL     1       5.015   5.194  18.709  0.00  0.00    +0.000 C 
ATOM     17  O   UNL     1       5.227   4.162  19.348  0.00  0.00    +0.000 OA
ATOM     18  N   UNL     1       3.733   5.648  18.426  0.00  0.00    +0.000 N 
ATOM     19  H   UNL     1       3.591   6.573  18.043  0.00  0.00    +0.000 HD
BRANCH  18  20
ATOM     20  C   UNL     1       2.603   4.856  18.872  0.00  0.00    +0.000 C 
ATOM     21  C   UNL     1       2.520   4.650  20.386  0.00  0.00    +0.000 C 
ATOM     22  C   UNL     1       1.138   4.073  20.719  0.00  0.00    +0.000 C 
ATOM     23  C   UNL     1       0.813   2.801  19.925  0.00  0.00    +0.000 C 
ATOM     24  C   UNL     1       1.155   2.887  18.435  0.00  0.00    +0.000 C 
ATOM     25  C   UNL     1       2.537   3.487  18.189  0.00  0.00    +0.000 C 
ENDBRANCH  18  20
ENDBRANCH  15  16
ENDBRANCH  14  15
ENDBRANCH   2  14
TORSDOF 6
ENDMDL
MODEL 6
REMARK VINA RESULT:      -7.1      3.160      4.737
REMARK  Name = 
REMARK  6 active torsions:
REMARK  status: ('A' for Active; 'I' for Inactive)
REMARK    1  A    between atoms: N_1  and  N_2
REMARK    2  A    between atoms: C_3  and  S_4
REMARK    3  A    between atoms: S_4  and  C_5
REMARK    4  A    between atoms: C_5  and  C_6
REMARK    5  A    between atoms: N_8  and  C_9
REMARK    6  A    between atoms: C_17  and  C_18
REMARK                            x       y       z     vdW  Elec       q    Type
REMARK                         _______ _______ _______ _____ _____    ______ ____
ROOT
ATOM      1  N   UNL     1       4.093   3.187  18.353  0.00  0.00    +0.000 N 
ATOM      2  C   UNL     1       4.124   3.192  19.730  0.00  0.00    +0.000 A 
ATOM      3  N   UNL     1       5.124   3.932  20.150  0.00  0.00    +0.000 NA
ATOM      4  N   UNL     1       5.762   4.444  19.040  0.00  0.00    +0.000 NA
ATOM      5  C   UNL     1       5.127   4.006  17.963  0.00  0.00    +0.000 A 
ENDROOT
BRANCH   5   6
ATOM      6  C   UNL     1       5.462   4.348  16.616  0.00  0.00    +0.000 A 
ATOM      7  C   UNL     1       5.509   5.603  16.029  0.00  0.00    +0.000 A 
ATOM      8  C   UNL     1       5.853   5.424  14.667  0.00  0.00    +0.000 A 
ATOM      9  C   UNL     1       6.006   4.072  14.491  0.00  0.00    +0.000 A 
ATOM     10  O   UNL     1       5.787   3.416  15.659  0.00  0.00    +0.000 OA
ENDBRANCH   5   6
BRANCH   1  11
ATOM     11  N   UNL     1       3.170   2.461  17.508  0.00  0.00    +0.000 N 
ATOM     12  H   UNL     1       3.098   2.906  16.594  0.00  0.00    +0.000 HD
ATOM     13  H   UNL     1       2.231   2.475  17.909  0.00  0.00    +0.000 HD
ENDBRANCH   1  11
BRANCH   2  14
ATOM     14  S   UNL     1       2.987   2.312  20.688  0.00  0.00    +0.000 S 
BRANCH  14  15
ATOM     15  C   UNL     1       2.294   3.630  21.725  0.00  0.00    +0.000 C 
BRANCH  15  16
ATOM     16  C   UNL     1       1.747   4.712  20.813  0.00  0.00    +0.000 C 
ATOM     17  O   UNL     1       0.700   4.547  20.186  0.00  0.00    +0.000 OA
ATOM     18  N   UNL     1       2.521   5.859  20.687  0.00  0.00    +0.000 N 
ATOM     19  H   UNL     1       3.284   6.034  21.328  0.00  0.00    +0.000 HD
BRANCH  18  20
ATOM     20  C   UNL     1       2.094   6.884  19.755  0.00  0.00    +0.000 C 
ATOM     21  C   UNL     1       3.092   7.191  18.636  0.00  0.00    +0.000 C 
ATOM     22  C   UNL     1       2.383   8.050  17.581  0.00  0.00    +0.000 C 
ATOM     23  C   UNL     1       1.742   9.314  18.170  0.00  0.00    +0.000 C 
ATOM     24  C   UNL     1       0.961   9.074  19.465  0.00  0.00    +0.000 C 
ATOM     25  C   UNL     1       1.726   8.197  20.453  0.00  0.00    +0.000 C 
ENDBRANCH  18  20
ENDBRANCH  15  16
ENDBRANCH  14  15
ENDBRANCH   2  14
TORSDOF 6
ENDMDL
MODEL 7
REMARK VINA RESULT:      -7.0      4.336      8.068
REMARK  Name = 
REMARK  6 active torsions:
REMARK  status: ('A' for Active; 'I' for Inactive)
REMARK    1  A    between atoms: N_1  and  N_2
REMARK    2  A    between atoms: C_3  and  S_4
REMARK    3  A    between atoms: S_4  and  C_5
REMARK    4  A    between atoms: C_5  and  C_6
REMARK    5  A    between atoms: N_8  and  C_9
REMARK    6  A    between atoms: C_17  and  C_18
REMARK                            x       y       z     vdW  Elec       q    Type
REMARK                         _______ _______ _______ _____ _____    ______ ____
ROOT
ATOM      1  N   UNL     1       5.066   4.944  18.285  0.00  0.00    +0.000 N 
ATOM      2  C   UNL     1       5.509   6.023  17.552  0.00  0.00    +0.000 A 
ATOM      3  N   UNL     1       4.535   6.890  17.402  0.00  0.00    +0.000 NA
ATOM      4  N   UNL     1       3.428   6.394  18.057  0.00  0.00    +0.000 NA
ATOM      5  C   UNL     1       3.759   5.232  18.600  0.00  0.00    +0.000 A 
ENDROOT
BRANCH   5   6
ATOM      6  C   UNL     1       2.892   4.421  19.398  0.00  0.00    +0.000 A 
ATOM      7  C   UNL     1       1.522   4.247  19.282  0.00  0.00    +0.000 A 
ATOM      8  C   UNL     1       1.112   3.380  20.325  0.00  0.00    +0.000 A 
ATOM      9  C   UNL     1       2.251   3.063  21.021  0.00  0.00    +0.000 A 
ATOM     10  O   UNL     1       3.330   3.671  20.464  0.00  0.00    +0.000 OA
ENDBRANCH   5   6
BRANCH   1  11
ATOM     11  N   UNL     1       5.822   3.761  18.634  0.00  0.00    +0.000 N 
ATOM     12  H   UNL     1       6.738   3.778  18.188  0.00  0.00    +0.000 HD
ATOM     13  H   UNL     1       5.351   2.922  18.289  0.00  0.00    +0.000 HD
ENDBRANCH   1  11
BRANCH   2  14
ATOM     14  S   UNL     1       7.122   6.132  16.943  0.00  0.00    +0.000 S 
BRANCH  14  15
ATOM     15  C   UNL     1       8.009   6.783  18.387  0.00  0.00    +0.000 C 
BRANCH  15  16
ATOM     16  C   UNL     1       8.078   8.292  18.259  0.00  0.00    +0.000 C 
ATOM     17  O   UNL     1       7.437   8.888  17.391  0.00  0.00    +0.000 OA
ATOM     18  N   UNL     1       8.940   8.945  19.131  0.00  0.00    +0.000 N 
ATOM     19  H   UNL     1       9.325   8.458  19.929  0.00  0.00    +0.000 HD
BRANCH  18  20
ATOM     20  C   UNL     1       9.116  10.378  18.990  0.00  0.00    +0.000 C 
ATOM     21  C   UNL     1      10.186  10.797  17.979  0.00  0.00    +0.000 C 
ATOM     22  C   UNL     1      10.041  12.302  17.720  0.00  0.00    +0.000 C 
ATOM     23  C   UNL     1      10.077  13.137  19.007  0.00  0.00    +0.000 C 
ATOM     24  C   UNL     1       9.221  12.573  20.144  0.00  0.00    +0.000 C 
ATOM     25  C   UNL     1       9.409  11.069  20.324  0.00  0.00    +0.000 C 
ENDBRANCH  18  20
ENDBRANCH  15  16
ENDBRANCH  14  15
ENDBRANCH   2  14
TORSDOF 6
ENDMDL
MODEL 8
REMARK VINA RESULT:      -7.0      4.490      8.189
REMARK  Name = 
REMARK  6 active torsions:
REMARK  status: ('A' for Active; 'I' for Inactive)
REMARK    1  A    between atoms: N_1  and  N_2
REMARK    2  A    between atoms: C_3  and  S_4
REMARK    3  A    between atoms: S_4  and  C_5
REMARK    4  A    between atoms: C_5  and  C_6
REMARK    5  A    between atoms: N_8  and  C_9
REMARK    6  A    between atoms: C_17  and  C_18
REMARK                            x       y       z     vdW  Elec       q    Type
REMARK                         _______ _______ _______ _____ _____    ______ ____
ROOT
ATOM      1  N   UNL     1       4.824   4.854  18.327  0.00  0.00    +0.000 N 
ATOM      2  C   UNL     1       5.307   6.024  17.784  0.00  0.00    +0.000 A 
ATOM      3  N   UNL     1       4.309   6.829  17.502  0.00  0.00    +0.000 NA
ATOM      4  N   UNL     1       3.142   6.197  17.877  0.00  0.00    +0.000 NA
ATOM      5  C   UNL     1       3.460   5.016  18.387  0.00  0.00    +0.000 A 
ENDROOT
BRANCH   5   6
ATOM      6  C   UNL     1       2.527   4.076  18.927  0.00  0.00    +0.000 A 
ATOM      7  C   UNL     1       1.543   4.285  19.880  0.00  0.00    +0.000 A 
ATOM      8  C   UNL     1       0.904   3.042  20.112  0.00  0.00    +0.000 A 
ATOM      9  C   UNL     1       1.524   2.139  19.286  0.00  0.00    +0.000 A 
ATOM     10  O   UNL     1       2.492   2.752  18.558  0.00  0.00    +0.000 OA
ENDBRANCH   5   6
BRANCH   1  11
ATOM     11  N   UNL     1       5.598   3.701  18.734  0.00  0.00    +0.000 N 
ATOM     12  H   UNL     1       5.413   3.472  19.709  0.00  0.00    +0.000 HD
ATOM     13  H   UNL     1       6.598   3.900  18.671  0.00  0.00    +0.000 HD
ENDBRANCH   1  11
BRANCH   2  14
ATOM     14  S   UNL     1       6.993   6.303  17.530  0.00  0.00    +0.000 S 
BRANCH  14  15
ATOM     15  C   UNL     1       7.032   8.107  17.326  0.00  0.00    +0.000 C 
BRANCH  15  16
ATOM     16  C   UNL     1       8.208   8.647  18.115  0.00  0.00    +0.000 C 
ATOM     17  O   UNL     1       8.815   7.938  18.920  0.00  0.00    +0.000 OA
ATOM     18  N   UNL     1       8.517   9.987  17.920  0.00  0.00    +0.000 N 
ATOM     19  H   UNL     1       8.113  10.497  17.146  0.00  0.00    +0.000 HD
BRANCH  18  20
ATOM     20  C   UNL     1       9.571  10.580  18.720  0.00  0.00    +0.000 C 
ATOM     21  C   UNL     1       9.086  11.469  19.867  0.00  0.00    +0.000 C 
ATOM     22  C   UNL     1      10.278  11.764  20.787  0.00  0.00    +0.000 C 
ATOM     23  C   UNL     1      11.478  12.359  20.039  0.00  0.00    +0.000 C 
ATOM     24  C   UNL     1      11.813  11.647  18.725  0.00  0.00    +0.000 C 
ATOM     25  C   UNL     1      10.572  11.375  17.877  0.00  0.00    +0.000 C 
ENDBRANCH  18  20
ENDBRANCH  15  16
ENDBRANCH  14  15
ENDBRANCH   2  14
TORSDOF 6
ENDMDL
MODEL 9
REMARK VINA RESULT:      -6.9      1.372      1.717
REMARK  Name = 
REMARK  6 active torsions:
REMARK  status: ('A' for Active; 'I' for Inactive)
REMARK    1  A    between atoms: N_1  and  N_2
REMARK    2  A    between atoms: C_3  and  S_4
REMARK    3  A    between atoms: S_4  and  C_5
REMARK    4  A    between atoms: C_5  and  C_6
REMARK    5  A    between atoms: N_8  and  C_9
REMARK    6  A    between atoms: C_17  and  C_18
REMARK                            x       y       z     vdW  Elec       q    Type
REMARK                         _______ _______ _______ _____ _____    ______ ____
ROOT
ATOM      1  N   UNL     1       5.971   4.377  15.271  0.00  0.00    +0.000 N 
ATOM      2  C   UNL     1       6.789   5.248  15.956  0.00  0.00    +0.000 A 
ATOM      3  N   UNL     1       7.736   5.689  15.160  0.00  0.00    +0.000 NA
ATOM      4  N   UNL     1       7.540   5.120  13.920  0.00  0.00    +0.000 NA
ATOM      5  C   UNL     1       6.468   4.345  13.989  0.00  0.00    +0.000 A 
ENDROOT
BRANCH   5   6
ATOM      6  C   UNL     1       5.914   3.609  12.894  0.00  0.00    +0.000 A 
ATOM      7  C   UNL     1       4.676   3.760  12.290  0.00  0.00    +0.000 A 
ATOM      8  C   UNL     1       4.573   2.774  11.278  0.00  0.00    +0.000 A 
ATOM      9  C   UNL     1       5.753   2.076  11.309  0.00  0.00    +0.000 A 
ATOM     10  O   UNL     1       6.573   2.578  12.268  0.00  0.00    +0.000 OA
ENDBRANCH   5   6
BRANCH   1  11
ATOM     11  N   UNL     1       4.840   3.649  15.801  0.00  0.00    +0.000 N 
ATOM     12  H   UNL     1       5.153   2.828  16.318  0.00  0.00    +0.000 HD
ATOM     13  H   UNL     1       4.250   3.302  15.042  0.00  0.00    +0.000 HD
ENDBRANCH   1  11
BRANCH   2  14
ATOM     14  S   UNL     1       6.545   5.635  17.622  0.00  0.00    +0.000 S 
BRANCH  14  15
ATOM     15  C   UNL     1       5.115   6.750  17.526  0.00  0.00    +0.000 C 
BRANCH  15  16
ATOM     16  C   UNL     1       4.008   6.175  18.388  0.00  0.00    +0.000 C 
ATOM     17  O   UNL     1       3.023   6.849  18.693  0.00  0.00    +0.000 OA
ATOM     18  N   UNL     1       4.201   4.880  18.853  0.00  0.00    +0.000 N 
ATOM     19  H   UNL     1       4.930   4.299  18.462  0.00  0.00    +0.000 HD
BRANCH  18  20
ATOM     20  C   UNL     1       3.219   4.315  19.759  0.00  0.00    +0.000 C 
ATOM     21  C   UNL     1       3.623   2.982  20.394  0.00  0.00    +0.000 C 
ATOM     22  C   UNL     1       2.644   2.676  21.535  0.00  0.00    +0.000 C 
ATOM     23  C   UNL     1       1.176   2.703  21.088  0.00  0.00    +0.000 C 
ATOM     24  C   UNL     1       0.813   3.900  20.205  0.00  0.00    +0.000 C 
ATOM     25  C   UNL     1       1.844   4.148  19.107  0.00  0.00    +0.000 C 
ENDBRANCH  18  20
ENDBRANCH  15  16
ENDBRANCH  14  15
ENDBRANCH   2  14
TORSDOF 6
ENDMDL
