MODEL 1
REMARK VINA RESULT:      -7.3      0.000      0.000
REMARK  Name = 
REMARK  3 active torsions:
REMARK  status: ('A' for Active; 'I' for Inactive)
REMARK    1  A    between atoms: C_1  and  C_2
REMARK    2  A    between atoms: C_11  and  N_12
REMARK    3  A    between atoms: N_15  and  C_16
REMARK                            x       y       z     vdW  Elec       q    Type
REMARK                         _______ _______ _______ _____ _____    ______ ____
ROOT
ATOM      1  C   UNL     1       2.098  12.223  18.851  0.00  0.00    +0.000 C 
ATOM      2  C   UNL     1       0.720  11.801  18.465  0.00  0.00    +0.000 C 
ATOM      3  C   UNL     1      -0.224  11.201  19.216  0.00  0.00    +0.000 C 
ATOM      4  C   UNL     1      -1.533  10.998  18.553  0.00  0.00    +0.000 A 
ATOM      5  C   UNL     1      -1.623  10.134  17.450  0.00  0.00    +0.000 A 
ATOM      6  C   UNL     1      -2.837   9.966  16.789  0.00  0.00    +0.000 A 
ATOM      7  C   UNL     1      -3.961  10.660  17.226  0.00  0.00    +0.000 A 
ATOM      8  C   UNL     1      -3.884  11.495  18.342  0.00  0.00    +0.000 A 
ATOM      9  C   UNL     1      -2.677  11.651  19.040  0.00  0.00    +0.000 A 
ATOM     10  C   UNL     1      -2.652  12.557  20.205  0.00  0.00    +0.000 C 
ATOM     11  C   UNL     1      -1.913  12.474  21.336  0.00  0.00    +0.000 C 
ATOM     12  C   UNL     1      -0.969  11.343  21.609  0.00  0.00    +0.000 A 
ATOM     13  C   UNL     1      -0.987  10.755  22.891  0.00  0.00    +0.000 A 
ATOM     14  C   UNL     1      -0.164   9.674  23.210  0.00  0.00    +0.000 A 
ATOM     15  C   UNL     1       0.702   9.160  22.250  0.00  0.00    +0.000 A 
ATOM     16  C   UNL     1       0.740   9.724  20.972  0.00  0.00    +0.000 A 
ATOM     17  C   UNL     1      -0.092  10.807  20.638  0.00  0.00    +0.000 A 
ENDROOT
BRANCH  11  18
ATOM     18  N   UNL     1      -2.053  13.459  22.330  0.00  0.00    +0.000 N 
ATOM     19  C   UNL     1      -1.144  14.628  22.363  0.00  0.00    +0.000 C 
ATOM     20  C   UNL     1      -0.956  15.129  23.811  0.00  0.00    +0.000 C 
ATOM     21  N   UNL     1      -2.241  15.442  24.476  0.00  0.00    +0.000 NA
ATOM     22  C   UNL     1      -2.019  15.871  25.854  0.00  0.00    +0.000 C 
ATOM     23  C   UNL     1      -3.108  14.241  24.432  0.00  0.00    +0.000 C 
ATOM     24  C   UNL     1      -3.347  13.742  22.989  0.00  0.00    +0.000 C 
ENDBRANCH  11  18
TORSDOF 1
ENDMDL
MODEL 2
REMARK VINA RESULT:      -7.2      0.550      1.128
REMARK  Name = 
REMARK  3 active torsions:
REMARK  status: ('A' for Active; 'I' for Inactive)
REMARK    1  A    between atoms: C_1  and  C_2
REMARK    2  A    between atoms: C_11  and  N_12
REMARK    3  A    between atoms: N_15  and  C_16
REMARK                            x       y       z     vdW  Elec       q    Type
REMARK                         _______ _______ _______ _____ _____    ______ ____
ROOT
ATOM      1  C   UNL     1       2.025  12.598  19.160  0.00  0.00    +0.000 C 
ATOM      2  C   UNL     1       0.681  12.125  18.715  0.00  0.00    +0.000 C 
ATOM      3  C   UNL     1      -0.238  11.418  19.402  0.00  0.00    +0.000 C 
ATOM      4  C   UNL     1      -1.521  11.187  18.697  0.00  0.00    +0.000 A 
ATOM      5  C   UNL     1      -1.540  10.402  17.534  0.00  0.00    +0.000 A 
ATOM      6  C   UNL     1      -2.730  10.212  16.836  0.00  0.00    +0.000 A 
ATOM      7  C   UNL     1      -3.901  10.805  17.297  0.00  0.00    +0.000 A 
ATOM      8  C   UNL     1      -3.894  11.560  18.472  0.00  0.00    +0.000 A 
ATOM      9  C   UNL     1      -2.710  11.735  19.206  0.00  0.00    +0.000 A 
ATOM     10  C   UNL     1      -2.759  12.554  20.433  0.00  0.00    +0.000 C 
ATOM     11  C   UNL     1      -2.036  12.432  21.570  0.00  0.00    +0.000 C 
ATOM     12  C   UNL     1      -1.032  11.341  21.781  0.00  0.00    +0.000 A 
ATOM     13  C   UNL     1      -1.036  10.662  23.017  0.00  0.00    +0.000 A 
ATOM     14  C   UNL     1      -0.156   9.611  23.276  0.00  0.00    +0.000 A 
ATOM     15  C   UNL     1       0.756   9.220  22.300  0.00  0.00    +0.000 A 
ATOM     16  C   UNL     1       0.782   9.876  21.067  0.00  0.00    +0.000 A 
ATOM     17  C   UNL     1      -0.107  10.930  20.794  0.00  0.00    +0.000 A 
ENDROOT
BRANCH  11  18
ATOM     18  N   UNL     1      -2.252  13.333  22.629  0.00  0.00    +0.000 N 
ATOM     19  C   UNL     1      -3.450  13.208  23.489  0.00  0.00    +0.000 C 
ATOM     20  C   UNL     1      -3.881  14.590  24.026  0.00  0.00    +0.000 C 
ATOM     21  N   UNL     1      -2.789  15.288  24.741  0.00  0.00    +0.000 NA
ATOM     22  C   UNL     1      -3.226  16.605  25.194  0.00  0.00    +0.000 C 
ATOM     23  C   UNL     1      -1.621  15.403  23.836  0.00  0.00    +0.000 C 
ATOM     24  C   UNL     1      -1.142  14.028  23.317  0.00  0.00    +0.000 C 
ENDBRANCH  11  18
TORSDOF 1
ENDMDL
MODEL 3
REMARK VINA RESULT:      -7.0      2.203      6.202
REMARK  Name = 
REMARK  3 active torsions:
REMARK  status: ('A' for Active; 'I' for Inactive)
REMARK    1  A    between atoms: C_1  and  C_2
REMARK    2  A    between atoms: C_11  and  N_12
REMARK    3  A    between atoms: N_15  and  C_16
REMARK                            x       y       z     vdW  Elec       q    Type
REMARK                         _______ _______ _______ _____ _____    ______ ____
ROOT
ATOM      1  C   UNL     1      -0.213   9.754  22.882  0.00  0.00    +0.000 C 
ATOM      2  C   UNL     1      -1.150  10.905  23.036  0.00  0.00    +0.000 C 
ATOM      3  C   UNL     1      -1.298  11.989  22.248  0.00  0.00    +0.000 C 
ATOM      4  C   UNL     1      -2.393  12.910  22.631  0.00  0.00    +0.000 A 
ATOM      5  C   UNL     1      -2.322  13.599  23.853  0.00  0.00    +0.000 A 
ATOM      6  C   UNL     1      -3.363  14.435  24.246  0.00  0.00    +0.000 A 
ATOM      7  C   UNL     1      -4.476  14.585  23.424  0.00  0.00    +0.000 A 
ATOM      8  C   UNL     1      -4.536  13.927  22.194  0.00  0.00    +0.000 A 
ATOM      9  C   UNL     1      -3.482  13.106  21.766  0.00  0.00    +0.000 A 
ATOM     10  C   UNL     1      -3.606  12.426  20.462  0.00  0.00    +0.000 C 
ATOM     11  C   UNL     1      -2.638  12.099  19.573  0.00  0.00    +0.000 C 
ATOM     12  C   UNL     1      -1.195  12.441  19.782  0.00  0.00    +0.000 A 
ATOM     13  C   UNL     1      -0.474  12.980  18.696  0.00  0.00    +0.000 A 
ATOM     14  C   UNL     1       0.863  13.356  18.821  0.00  0.00    +0.000 A 
ATOM     15  C   UNL     1       1.512  13.195  20.042  0.00  0.00    +0.000 A 
ATOM     16  C   UNL     1       0.823  12.663  21.134  0.00  0.00    +0.000 A 
ATOM     17  C   UNL     1      -0.528  12.289  21.019  0.00  0.00    +0.000 A 
ENDROOT
BRANCH  11  18
ATOM     18  N   UNL     1      -2.988  11.448  18.377  0.00  0.00    +0.000 N 
ATOM     19  C   UNL     1      -2.330  10.179  17.991  0.00  0.00    +0.000 C 
ATOM     20  C   UNL     1      -2.269  10.042  16.455  0.00  0.00    +0.000 C 
ATOM     21  N   UNL     1      -3.601  10.158  15.821  0.00  0.00    +0.000 NA
ATOM     22  C   UNL     1      -3.492  10.066  14.368  0.00  0.00    +0.000 C 
ATOM     23  C   UNL     1      -4.212  11.448  16.222  0.00  0.00    +0.000 C 
ATOM     24  C   UNL     1      -4.323  11.593  17.756  0.00  0.00    +0.000 C 
ENDBRANCH  11  18
TORSDOF 1
ENDMDL
MODEL 4
REMARK VINA RESULT:      -6.7      1.537      2.065
REMARK  Name = 
REMARK  3 active torsions:
REMARK  status: ('A' for Active; 'I' for Inactive)
REMARK    1  A    between atoms: C_1  and  C_2
REMARK    2  A    between atoms: C_11  and  N_12
REMARK    3  A    between atoms: N_15  and  C_16
REMARK                            x       y       z     vdW  Elec       q    Type
REMARK                         _______ _______ _______ _____ _____    ______ ____
ROOT
ATOM      1  C   UNL     1       1.841   9.861  18.159  0.00  0.00    +0.000 C 
ATOM      2  C   UNL     1       0.378  10.136  18.048  0.00  0.00    +0.000 C 
ATOM      3  C   UNL     1      -0.543  10.230  19.028  0.00  0.00    +0.000 C 
ATOM      4  C   UNL     1      -1.905  10.609  18.587  0.00  0.00    +0.000 A 
ATOM      5  C   UNL     1      -2.631   9.740  17.757  0.00  0.00    +0.000 A 
ATOM      6  C   UNL     1      -3.895  10.102  17.299  0.00  0.00    +0.000 A 
ATOM      7  C   UNL     1      -4.437  11.330  17.668  0.00  0.00    +0.000 A 
ATOM      8  C   UNL     1      -3.732  12.183  18.519  0.00  0.00    +0.000 A 
ATOM      9  C   UNL     1      -2.471  11.821  19.017  0.00  0.00    +0.000 A 
ATOM     10  C   UNL     1      -1.767  12.768  19.903  0.00  0.00    +0.000 C 
ATOM     11  C   UNL     1      -0.921  12.511  20.929  0.00  0.00    +0.000 C 
ATOM     12  C   UNL     1      -0.582  11.122  21.373  0.00  0.00    +0.000 A 
ATOM     13  C   UNL     1      -0.586  10.845  22.756  0.00  0.00    +0.000 A 
ATOM     14  C   UNL     1      -0.316   9.567  23.246  0.00  0.00    +0.000 A 
ATOM     15  C   UNL     1      -0.028   8.535  22.357  0.00  0.00    +0.000 A 
ATOM     16  C   UNL     1      -0.017   8.782  20.982  0.00  0.00    +0.000 A 
ATOM     17  C   UNL     1      -0.296  10.065  20.479  0.00  0.00    +0.000 A 
ENDROOT
BRANCH  11  18
ATOM     18  N   UNL     1      -0.360  13.582  21.648  0.00  0.00    +0.000 N 
ATOM     19  C   UNL     1      -0.957  14.021  22.930  0.00  0.00    +0.000 C 
ATOM     20  C   UNL     1      -0.723  15.531  23.150  0.00  0.00    +0.000 C 
ATOM     21  N   UNL     1       0.710  15.899  23.083  0.00  0.00    +0.000 NA
ATOM     22  C   UNL     1       0.882  17.339  23.253  0.00  0.00    +0.000 C 
ATOM     23  C   UNL     1       1.258  15.454  21.779  0.00  0.00    +0.000 C 
ATOM     24  C   UNL     1       1.073  13.937  21.551  0.00  0.00    +0.000 C 
ENDBRANCH  11  18
TORSDOF 1
ENDMDL
MODEL 5
REMARK VINA RESULT:      -6.7      1.614      1.856
REMARK  Name = 
REMARK  3 active torsions:
REMARK  status: ('A' for Active; 'I' for Inactive)
REMARK    1  A    between atoms: C_1  and  C_2
REMARK    2  A    between atoms: C_11  and  N_12
REMARK    3  A    between atoms: N_15  and  C_16
REMARK                            x       y       z     vdW  Elec       q    Type
REMARK                         _______ _______ _______ _____ _____    ______ ____
ROOT
ATOM      1  C   UNL     1       1.811   9.853  18.223  0.00  0.00    +0.000 C 
ATOM      2  C   UNL     1       0.346  10.070  18.038  0.00  0.00    +0.000 C 
ATOM      3  C   UNL     1      -0.609  10.246  18.973  0.00  0.00    +0.000 C 
ATOM      4  C   UNL     1      -1.965  10.532  18.452  0.00  0.00    +0.000 A 
ATOM      5  C   UNL     1      -2.640   9.553  17.705  0.00  0.00    +0.000 A 
ATOM      6  C   UNL     1      -3.898   9.822  17.172  0.00  0.00    +0.000 A 
ATOM      7  C   UNL     1      -4.483  11.068  17.382  0.00  0.00    +0.000 A 
ATOM      8  C   UNL     1      -3.830  12.032  18.151  0.00  0.00    +0.000 A 
ATOM      9  C   UNL     1      -2.576  11.767  18.723  0.00  0.00    +0.000 A 
ATOM     10  C   UNL     1      -1.927  12.830  19.516  0.00  0.00    +0.000 C 
ATOM     11  C   UNL     1      -1.110  12.716  20.589  0.00  0.00    +0.000 C 
ATOM     12  C   UNL     1      -0.748  11.397  21.199  0.00  0.00    +0.000 A 
ATOM     13  C   UNL     1      -0.791  11.278  22.604  0.00  0.00    +0.000 A 
ATOM     14  C   UNL     1      -0.503  10.073  23.244  0.00  0.00    +0.000 A 
ATOM     15  C   UNL     1      -0.159   8.956  22.488  0.00  0.00    +0.000 A 
ATOM     16  C   UNL     1      -0.109   9.045  21.095  0.00  0.00    +0.000 A 
ATOM     17  C   UNL     1      -0.406  10.254  20.441  0.00  0.00    +0.000 A 
ENDROOT
BRANCH  11  18
ATOM     18  N   UNL     1      -0.601  13.877  21.198  0.00  0.00    +0.000 N 
ATOM     19  C   UNL     1       0.693  14.449  20.763  0.00  0.00    +0.000 C 
ATOM     20  C   UNL     1       1.393  15.169  21.937  0.00  0.00    +0.000 C 
ATOM     21  N   UNL     1       0.539  16.208  22.555  0.00  0.00    +0.000 NA
ATOM     22  C   UNL     1       1.221  16.832  23.684  0.00  0.00    +0.000 C 
ATOM     23  C   UNL     1      -0.735  15.586  22.988  0.00  0.00    +0.000 C 
ATOM     24  C   UNL     1      -1.477  14.894  21.822  0.00  0.00    +0.000 C 
ENDBRANCH  11  18
TORSDOF 1
ENDMDL
MODEL 6
REMARK VINA RESULT:      -6.6      1.092      1.413
REMARK  Name = 
REMARK  3 active torsions:
REMARK  status: ('A' for Active; 'I' for Inactive)
REMARK    1  A    between atoms: C_1  and  C_2
REMARK    2  A    between atoms: C_11  and  N_12
REMARK    3  A    between atoms: N_15  and  C_16
REMARK                            x       y       z     vdW  Elec       q    Type
REMARK                         _______ _______ _______ _____ _____    ______ ____
ROOT
ATOM      1  C   UNL     1       0.710  12.863  18.471  0.00  0.00    +0.000 C 
ATOM      2  C   UNL     1      -0.749  12.554  18.410  0.00  0.00    +0.000 C 
ATOM      3  C   UNL     1      -1.530  11.965  19.338  0.00  0.00    +0.000 C 
ATOM      4  C   UNL     1      -2.971  11.890  19.002  0.00  0.00    +0.000 A 
ATOM      5  C   UNL     1      -3.387  11.108  17.912  0.00  0.00    +0.000 A 
ATOM      6  C   UNL     1      -4.733  11.061  17.558  0.00  0.00    +0.000 A 
ATOM      7  C   UNL     1      -5.664  11.793  18.288  0.00  0.00    +0.000 A 
ATOM      8  C   UNL     1      -5.259  12.545  19.393  0.00  0.00    +0.000 A 
ATOM      9  C   UNL     1      -3.912  12.579  19.784  0.00  0.00    +0.000 A 
ATOM     10  C   UNL     1      -3.541  13.402  20.952  0.00  0.00    +0.000 C 
ATOM     11  C   UNL     1      -2.562  13.197  21.864  0.00  0.00    +0.000 C 
ATOM     12  C   UNL     1      -1.670  11.994  21.843  0.00  0.00    +0.000 A 
ATOM     13  C   UNL     1      -1.427  11.324  23.060  0.00  0.00    +0.000 A 
ATOM     14  C   UNL     1      -0.637  10.175  23.117  0.00  0.00    +0.000 A 
ATOM     15  C   UNL     1      -0.067   9.673  21.950  0.00  0.00    +0.000 A 
ATOM     16  C   UNL     1      -0.291  10.317  20.731  0.00  0.00    +0.000 A 
ATOM     17  C   UNL     1      -1.093  11.471  20.664  0.00  0.00    +0.000 A 
ENDROOT
BRANCH  11  18
ATOM     18  N   UNL     1      -2.385  14.121  22.910  0.00  0.00    +0.000 N 
ATOM     19  C   UNL     1      -1.465  15.270  22.751  0.00  0.00    +0.000 C 
ATOM     20  C   UNL     1      -0.862  15.677  24.112  0.00  0.00    +0.000 C 
ATOM     21  N   UNL     1      -1.898  15.969  25.128  0.00  0.00    +0.000 NA
ATOM     22  C   UNL     1      -1.285  16.307  26.409  0.00  0.00    +0.000 C 
ATOM     23  C   UNL     1      -2.783  14.787  25.264  0.00  0.00    +0.000 C 
ATOM     24  C   UNL     1      -3.433  14.383  23.921  0.00  0.00    +0.000 C 
ENDBRANCH  11  18
TORSDOF 1
ENDMDL
MODEL 7
REMARK VINA RESULT:      -6.6      1.020      1.602
REMARK  Name = 
REMARK  3 active torsions:
REMARK  status: ('A' for Active; 'I' for Inactive)
REMARK    1  A    between atoms: C_1  and  C_2
REMARK    2  A    between atoms: C_11  and  N_12
REMARK    3  A    between atoms: N_15  and  C_16
REMARK                            x       y       z     vdW  Elec       q    Type
REMARK                         _______ _______ _______ _____ _____    ______ ____
ROOT
ATOM      1  C   UNL     1       0.942  12.884  18.590  0.00  0.00    +0.000 C 
ATOM      2  C   UNL     1      -0.509  12.556  18.472  0.00  0.00    +0.000 C 
ATOM      3  C   UNL     1      -1.306  11.912  19.348  0.00  0.00    +0.000 C 
ATOM      4  C   UNL     1      -2.735  11.829  18.966  0.00  0.00    +0.000 A 
ATOM      5  C   UNL     1      -3.106  11.093  17.829  0.00  0.00    +0.000 A 
ATOM      6  C   UNL     1      -4.439  11.041  17.433  0.00  0.00    +0.000 A 
ATOM      7  C   UNL     1      -5.404  11.723  18.168  0.00  0.00    +0.000 A 
ATOM      8  C   UNL     1      -5.045  12.430  19.317  0.00  0.00    +0.000 A 
ATOM      9  C   UNL     1      -3.710  12.466  19.750  0.00  0.00    +0.000 A 
ATOM     10  C   UNL     1      -3.387  13.240  20.965  0.00  0.00    +0.000 C 
ATOM     11  C   UNL     1      -2.432  13.008  21.896  0.00  0.00    +0.000 C 
ATOM     12  C   UNL     1      -1.520  11.822  21.846  0.00  0.00    +0.000 A 
ATOM     13  C   UNL     1      -1.300  11.100  23.038  0.00  0.00    +0.000 A 
ATOM     14  C   UNL     1      -0.493   9.963  23.065  0.00  0.00    +0.000 A 
ATOM     15  C   UNL     1       0.119   9.525  21.894  0.00  0.00    +0.000 A 
ATOM     16  C   UNL     1      -0.080  10.221  20.700  0.00  0.00    +0.000 A 
ATOM     17  C   UNL     1      -0.899  11.363  20.662  0.00  0.00    +0.000 A 
ENDROOT
BRANCH  11  18
ATOM     18  N   UNL     1      -2.302  13.886  22.988  0.00  0.00    +0.000 N 
ATOM     19  C   UNL     1      -3.308  13.889  24.074  0.00  0.00    +0.000 C 
ATOM     20  C   UNL     1      -3.423  15.292  24.706  0.00  0.00    +0.000 C 
ATOM     21  N   UNL     1      -2.122  15.805  25.191  0.00  0.00    +0.000 NA
ATOM     22  C   UNL     1      -2.269  17.149  25.741  0.00  0.00    +0.000 C 
ATOM     23  C   UNL     1      -1.155  15.799  24.068  0.00  0.00    +0.000 C 
ATOM     24  C   UNL     1      -0.990  14.394  23.444  0.00  0.00    +0.000 C 
ENDBRANCH  11  18
TORSDOF 1
ENDMDL
MODEL 8
REMARK VINA RESULT:      -6.5      2.071      4.381
REMARK  Name = 
REMARK  3 active torsions:
REMARK  status: ('A' for Active; 'I' for Inactive)
REMARK    1  A    between atoms: C_1  and  C_2
REMARK    2  A    between atoms: C_11  and  N_12
REMARK    3  A    between atoms: N_15  and  C_16
REMARK                            x       y       z     vdW  Elec       q    Type
REMARK                         _______ _______ _______ _____ _____    ______ ____
ROOT
ATOM      1  C   UNL     1       0.009   9.061  21.111  0.00  0.00    +0.000 C 
ATOM      2  C   UNL     1       0.538  10.299  20.466  0.00  0.00    +0.000 C 
ATOM      3  C   UNL     1      -0.060  11.111  19.572  0.00  0.00    +0.000 C 
ATOM      4  C   UNL     1       0.708  12.320  19.196  0.00  0.00    +0.000 A 
ATOM      5  C   UNL     1       1.924  12.180  18.507  0.00  0.00    +0.000 A 
ATOM      6  C   UNL     1       2.679  13.304  18.184  0.00  0.00    +0.000 A 
ATOM      7  C   UNL     1       2.224  14.568  18.548  0.00  0.00    +0.000 A 
ATOM      8  C   UNL     1       1.000  14.715  19.203  0.00  0.00    +0.000 A 
ATOM      9  C   UNL     1       0.210  13.595  19.508  0.00  0.00    +0.000 A 
ATOM     10  C   UNL     1      -1.069  13.809  20.214  0.00  0.00    +0.000 C 
ATOM     11  C   UNL     1      -2.223  13.107  20.123  0.00  0.00    +0.000 C 
ATOM     12  C   UNL     1      -2.396  11.947  19.192  0.00  0.00    +0.000 A 
ATOM     13  C   UNL     1      -3.580  11.876  18.429  0.00  0.00    +0.000 A 
ATOM     14  C   UNL     1      -3.799  10.845  17.515  0.00  0.00    +0.000 A 
ATOM     15  C   UNL     1      -2.835   9.856  17.348  0.00  0.00    +0.000 A 
ATOM     16  C   UNL     1      -1.652   9.902  18.091  0.00  0.00    +0.000 A 
ATOM     17  C   UNL     1      -1.420  10.941  19.009  0.00  0.00    +0.000 A 
ENDROOT
BRANCH  11  18
ATOM     18  N   UNL     1      -3.332  13.495  20.896  0.00  0.00    +0.000 N 
ATOM     19  C   UNL     1      -3.707  12.732  22.108  0.00  0.00    +0.000 C 
ATOM     20  C   UNL     1      -5.230  12.809  22.350  0.00  0.00    +0.000 C 
ATOM     21  N   UNL     1      -5.722  14.203  22.431  0.00  0.00    +0.000 NA
ATOM     22  C   UNL     1      -7.170  14.229  22.617  0.00  0.00    +0.000 C 
ATOM     23  C   UNL     1      -5.338  14.920  21.192  0.00  0.00    +0.000 C 
ATOM     24  C   UNL     1      -3.812  14.893  20.948  0.00  0.00    +0.000 C 
ENDBRANCH  11  18
TORSDOF 1
ENDMDL
MODEL 9
REMARK VINA RESULT:      -6.5      1.422      1.828
REMARK  Name = 
REMARK  3 active torsions:
REMARK  status: ('A' for Active; 'I' for Inactive)
REMARK    1  A    between atoms: C_1  and  C_2
REMARK    2  A    between atoms: C_11  and  N_12
REMARK    3  A    between atoms: N_15  and  C_16
REMARK                            x       y       z     vdW  Elec       q    Type
REMARK                         _______ _______ _______ _____ _____    ______ ____
ROOT
ATOM      1  C   UNL     1       0.812  13.674  18.857  0.00  0.00    +0.000 C 
ATOM      2  C   UNL     1      -0.480  13.022  18.491  0.00  0.00    +0.000 C 
ATOM      3  C   UNL     1      -1.267  12.222  19.238  0.00  0.00    +0.000 C 
ATOM      4  C   UNL     1      -2.541  11.813  18.605  0.00  0.00    +0.000 A 
ATOM      5  C   UNL     1      -2.516  11.002  17.459  0.00  0.00    +0.000 A 
ATOM      6  C   UNL     1      -3.704  10.644  16.827  0.00  0.00    +0.000 A 
ATOM      7  C   UNL     1      -4.919  11.095  17.336  0.00  0.00    +0.000 A 
ATOM      8  C   UNL     1      -4.951  11.875  18.494  0.00  0.00    +0.000 A 
ATOM      9  C   UNL     1      -3.765  12.218  19.162  0.00  0.00    +0.000 A 
ATOM     10  C   UNL     1      -3.860  13.056  20.374  0.00  0.00    +0.000 C 
ATOM     11  C   UNL     1      -3.072  13.056  21.475  0.00  0.00    +0.000 C 
ATOM     12  C   UNL     1      -1.927  12.107  21.656  0.00  0.00    +0.000 A 
ATOM     13  C   UNL     1      -1.785  11.465  22.903  0.00  0.00    +0.000 A 
ATOM     14  C   UNL     1      -0.766  10.542  23.137  0.00  0.00    +0.000 A 
ATOM     15  C   UNL     1       0.140  10.244  22.124  0.00  0.00    +0.000 A 
ATOM     16  C   UNL     1       0.022  10.866  20.878  0.00  0.00    +0.000 A 
ATOM     17  C   UNL     1      -1.007  11.792  20.631  0.00  0.00    +0.000 A 
ENDROOT
BRANCH  11  18
ATOM     18  N   UNL     1      -3.351  13.949  22.526  0.00  0.00    +0.000 N 
ATOM     19  C   UNL     1      -4.496  13.710  23.432  0.00  0.00    +0.000 C 
ATOM     20  C   UNL     1      -5.060  15.046  23.961  0.00  0.00    +0.000 C 
ATOM     21  N   UNL     1      -4.028  15.876  24.624  0.00  0.00    +0.000 NA
ATOM     22  C   UNL     1      -4.594  17.146  25.069  0.00  0.00    +0.000 C 
ATOM     23  C   UNL     1      -2.913  16.102  23.674  0.00  0.00    +0.000 C 
ATOM     24  C   UNL     1      -2.302  14.778  23.160  0.00  0.00    +0.000 C 
ENDBRANCH  11  18
TORSDOF 1
ENDMDL
