MODEL 1
REMARK VINA RESULT:      -8.3      0.000      0.000
REMARK  Name = 
REMARK  3 active torsions:
REMARK  status: ('A' for Active; 'I' for Inactive)
REMARK    1  A    between atoms: N_5  and  C_6
REMARK    2  A    between atoms: C_9  and  C_10
REMARK    3  A    between atoms: C_10  and  N_11
REMARK                            x       y       z     vdW  Elec       q    Type
REMARK                         _______ _______ _______ _____ _____    ______ ____
ROOT
ATOM      1  O   UNL     1       2.644   2.557  21.374  0.00  0.00    +0.000 OA
ATOM      2  C   UNL     1       2.561   3.620  20.782  0.00  0.00    +0.000 C 
ATOM      3  N   UNL     1       1.562   4.503  21.053  0.00  0.00    +0.000 N 
ATOM      4  C   UNL     1       1.190   5.444  20.054  0.00  0.00    +0.000 C 
ATOM      5  N   UNL     1       2.383   6.160  19.621  0.00  0.00    +0.000 N 
ATOM      6  C   UNL     1       3.462   5.352  19.226  0.00  0.00    +0.000 A 
ATOM      7  C   UNL     1       3.543   4.035  19.766  0.00  0.00    +0.000 A 
ATOM      8  C   UNL     1       4.555   3.150  19.433  0.00  0.00    +0.000 A 
ATOM      9  N   UNL     1       5.573   3.430  18.604  0.00  0.00    +0.000 NA
ATOM     10  C   UNL     1       5.512   4.681  18.116  0.00  0.00    +0.000 A 
ATOM     11  N   UNL     1       6.472   5.180  17.286  0.00  0.00    +0.000 N 
ATOM     12  C   UNL     1       6.141   6.449  16.904  0.00  0.00    +0.000 A 
ATOM     13  C   UNL     1       4.939   6.762  17.516  0.00  0.00    +0.000 A 
ATOM     14  C   UNL     1       4.538   5.661  18.342  0.00  0.00    +0.000 A 
ATOM     15  H   UNL     1       0.863   4.164  21.694  0.00  0.00    +0.000 HD
ATOM     16  H   UNL     1       7.294   4.658  17.013  0.00  0.00    +0.000 HD
ENDROOT
BRANCH   5  17
ATOM     17  C   UNL     1       2.328   7.629  19.559  0.00  0.00    +0.000 C 
ATOM     18  C   UNL     1       1.966   8.070  18.126  0.00  0.00    +0.000 C 
ATOM     19  C   UNL     1       1.549   9.527  18.058  0.00  0.00    +0.000 C 
ATOM     20  C   UNL     1       0.352   9.736  18.998  0.00  0.00    +0.000 C 
ATOM     21  C   UNL     1       0.844   9.594  20.438  0.00  0.00    +0.000 C 
ATOM     22  C   UNL     1       1.348   8.154  20.648  0.00  0.00    +0.000 C 
BRANCH  20  23
ATOM     23  C   UNL     1      -0.412  11.025  18.649  0.00  0.00    +0.000 C 
BRANCH  23  24
ATOM     24  N   UNL     1      -1.845  10.691  18.565  0.00  0.00    +0.000 NA
ATOM     25  C   UNL     1      -2.677  11.865  18.254  0.00  0.00    +0.000 C 
ATOM     26  C   UNL     1      -3.777  11.382  17.338  0.00  0.00    +0.000 C 
ATOM     27  C   UNL     1      -3.112  10.256  16.584  0.00  0.00    +0.000 C 
ATOM     28  F   UNL     1      -2.361  10.784  15.579  0.00  0.00    +0.000 F 
ATOM     29  C   UNL     1      -2.185   9.626  17.617  0.00  0.00    +0.000 C 
ENDBRANCH  23  24
ENDBRANCH  20  23
ENDBRANCH   5  17
TORSDOF 3
ENDMDL
MODEL 2
REMARK VINA RESULT:      -8.1      1.172      1.382
REMARK  Name = 
REMARK  3 active torsions:
REMARK  status: ('A' for Active; 'I' for Inactive)
REMARK    1  A    between atoms: N_5  and  C_6
REMARK    2  A    between atoms: C_9  and  C_10
REMARK    3  A    between atoms: C_10  and  N_11
REMARK                            x       y       z     vdW  Elec       q    Type
REMARK                         _______ _______ _______ _____ _____    ______ ____
ROOT
ATOM      1  O   UNL     1       1.530   2.210  21.399  0.00  0.00    +0.000 OA
ATOM      2  C   UNL     1       1.745   3.265  20.826  0.00  0.00    +0.000 C 
ATOM      3  N   UNL     1       0.826   4.268  20.829  0.00  0.00    +0.000 N 
ATOM      4  C   UNL     1       0.860   5.232  19.784  0.00  0.00    +0.000 C 
ATOM      5  N   UNL     1       2.205   5.788  19.708  0.00  0.00    +0.000 N 
ATOM      6  C   UNL     1       3.243   4.848  19.609  0.00  0.00    +0.000 A 
ATOM      7  C   UNL     1       3.011   3.539  20.126  0.00  0.00    +0.000 A 
ATOM      8  C   UNL     1       3.958   2.531  20.067  0.00  0.00    +0.000 A 
ATOM      9  N   UNL     1       5.191   2.670  19.554  0.00  0.00    +0.000 NA
ATOM     10  C   UNL     1       5.420   3.911  19.092  0.00  0.00    +0.000 A 
ATOM     11  N   UNL     1       6.625   4.274  18.566  0.00  0.00    +0.000 N 
ATOM     12  C   UNL     1       6.570   5.569  18.131  0.00  0.00    +0.000 A 
ATOM     13  C   UNL     1       5.294   6.037  18.395  0.00  0.00    +0.000 A 
ATOM     14  C   UNL     1       4.549   5.008  19.059  0.00  0.00    +0.000 A 
ATOM     15  H   UNL     1      -0.058   4.028  21.248  0.00  0.00    +0.000 HD
ATOM     16  H   UNL     1       7.419   3.651  18.519  0.00  0.00    +0.000 HD
ENDROOT
BRANCH   5  17
ATOM     17  C   UNL     1       2.350   7.252  19.660  0.00  0.00    +0.000 C 
ATOM     18  C   UNL     1       2.074   7.749  18.226  0.00  0.00    +0.000 C 
ATOM     19  C   UNL     1       1.859   9.249  18.167  0.00  0.00    +0.000 C 
ATOM     20  C   UNL     1       0.686   9.611  19.090  0.00  0.00    +0.000 C 
ATOM     21  C   UNL     1       1.131   9.392  20.536  0.00  0.00    +0.000 C 
ATOM     22  C   UNL     1       1.432   7.896  20.739  0.00  0.00    +0.000 C 
BRANCH  20  23
ATOM     23  C   UNL     1       0.110  10.994  18.743  0.00  0.00    +0.000 C 
BRANCH  23  24
ATOM     24  N   UNL     1      -0.979  10.797  17.769  0.00  0.00    +0.000 NA
ATOM     25  C   UNL     1      -1.817   9.630  18.092  0.00  0.00    +0.000 C 
ATOM     26  C   UNL     1      -3.236  10.008  17.739  0.00  0.00    +0.000 C 
ATOM     27  C   UNL     1      -3.256  11.497  17.988  0.00  0.00    +0.000 C 
ATOM     28  F   UNL     1      -3.416  11.717  19.322  0.00  0.00    +0.000 F 
ATOM     29  C   UNL     1      -1.862  11.952  17.574  0.00  0.00    +0.000 C 
ENDBRANCH  23  24
ENDBRANCH  20  23
ENDBRANCH   5  17
TORSDOF 3
ENDMDL
MODEL 3
REMARK VINA RESULT:      -8.1      2.610      4.051
REMARK  Name = 
REMARK  3 active torsions:
REMARK  status: ('A' for Active; 'I' for Inactive)
REMARK    1  A    between atoms: N_5  and  C_6
REMARK    2  A    between atoms: C_9  and  C_10
REMARK    3  A    between atoms: C_10  and  N_11
REMARK                            x       y       z     vdW  Elec       q    Type
REMARK                         _______ _______ _______ _____ _____    ______ ____
ROOT
ATOM      1  O   UNL     1       5.538   4.660  15.655  0.00  0.00    +0.000 OA
ATOM      2  C   UNL     1       4.812   5.196  16.475  0.00  0.00    +0.000 C 
ATOM      3  N   UNL     1       4.653   6.548  16.499  0.00  0.00    +0.000 N 
ATOM      4  C   UNL     1       4.247   7.168  17.713  0.00  0.00    +0.000 C 
ATOM      5  N   UNL     1       3.033   6.515  18.185  0.00  0.00    +0.000 N 
ATOM      6  C   UNL     1       3.100   5.117  18.290  0.00  0.00    +0.000 A 
ATOM      7  C   UNL     1       4.038   4.429  17.465  0.00  0.00    +0.000 A 
ATOM      8  C   UNL     1       4.198   3.054  17.498  0.00  0.00    +0.000 A 
ATOM      9  N   UNL     1       3.487   2.220  18.273  0.00  0.00    +0.000 NA
ATOM     10  C   UNL     1       2.584   2.865  19.032  0.00  0.00    +0.000 A 
ATOM     11  N   UNL     1       1.731   2.200  19.862  0.00  0.00    +0.000 N 
ATOM     12  C   UNL     1       0.957   3.095  20.546  0.00  0.00    +0.000 A 
ATOM     13  C   UNL     1       1.329   4.361  20.131  0.00  0.00    +0.000 A 
ATOM     14  C   UNL     1       2.339   4.242  19.120  0.00  0.00    +0.000 A 
ATOM     15  H   UNL     1       5.250   7.053  15.864  0.00  0.00    +0.000 HD
ATOM     16  H   UNL     1       1.705   1.192  19.936  0.00  0.00    +0.000 HD
ENDROOT
BRANCH   5  17
ATOM     17  C   UNL     1       1.896   7.364  18.578  0.00  0.00    +0.000 C 
ATOM     18  C   UNL     1       1.994   7.690  20.082  0.00  0.00    +0.000 C 
ATOM     19  C   UNL     1       1.076   8.827  20.488  0.00  0.00    +0.000 C 
ATOM     20  C   UNL     1       1.432  10.064  19.650  0.00  0.00    +0.000 C 
ATOM     21  C   UNL     1       1.018   9.797  18.204  0.00  0.00    +0.000 C 
ATOM     22  C   UNL     1       1.849   8.620  17.661  0.00  0.00    +0.000 C 
BRANCH  20  23
ATOM     23  C   UNL     1       0.894  11.350  20.300  0.00  0.00    +0.000 C 
BRANCH  23  24
ATOM     24  N   UNL     1      -0.445  11.055  20.842  0.00  0.00    +0.000 NA
ATOM     25  C   UNL     1      -0.581  11.459  22.251  0.00  0.00    +0.000 C 
ATOM     26  C   UNL     1      -1.988  11.987  22.413  0.00  0.00    +0.000 C 
ATOM     27  C   UNL     1      -2.283  12.571  21.053  0.00  0.00    +0.000 C 
ATOM     28  F   UNL     1      -1.715  13.806  20.972  0.00  0.00    +0.000 F 
ATOM     29  C   UNL     1      -1.565  11.632  20.091  0.00  0.00    +0.000 C 
ENDBRANCH  23  24
ENDBRANCH  20  23
ENDBRANCH   5  17
TORSDOF 3
ENDMDL
MODEL 4
REMARK VINA RESULT:      -8.0      1.879      2.464
REMARK  Name = 
REMARK  3 active torsions:
REMARK  status: ('A' for Active; 'I' for Inactive)
REMARK    1  A    between atoms: N_5  and  C_6
REMARK    2  A    between atoms: C_9  and  C_10
REMARK    3  A    between atoms: C_10  and  N_11
REMARK                            x       y       z     vdW  Elec       q    Type
REMARK                         _______ _______ _______ _____ _____    ______ ____
ROOT
ATOM      1  O   UNL     1       1.831   2.289  21.770  0.00  0.00    +0.000 OA
ATOM      2  C   UNL     1       1.970   3.308  21.116  0.00  0.00    +0.000 C 
ATOM      3  N   UNL     1       1.052   4.311  21.167  0.00  0.00    +0.000 N 
ATOM      4  C   UNL     1       0.959   5.212  20.070  0.00  0.00    +0.000 C 
ATOM      5  N   UNL     1       2.282   5.761  19.806  0.00  0.00    +0.000 N 
ATOM      6  C   UNL     1       3.307   4.816  19.643  0.00  0.00    +0.000 A 
ATOM      7  C   UNL     1       3.145   3.541  20.259  0.00  0.00    +0.000 A 
ATOM      8  C   UNL     1       4.086   2.531  20.149  0.00  0.00    +0.000 A 
ATOM      9  N   UNL     1       5.250   2.639  19.489  0.00  0.00    +0.000 NA
ATOM     10  C   UNL     1       5.416   3.850  18.932  0.00  0.00    +0.000 A 
ATOM     11  N   UNL     1       6.549   4.181  18.249  0.00  0.00    +0.000 N 
ATOM     12  C   UNL     1       6.436   5.448  17.749  0.00  0.00    +0.000 A 
ATOM     13  C   UNL     1       5.197   5.931  18.131  0.00  0.00    +0.000 A 
ATOM     14  C   UNL     1       4.540   4.943  18.936  0.00  0.00    +0.000 A 
ATOM     15  H   UNL     1       0.224   4.096  21.699  0.00  0.00    +0.000 HD
ATOM     16  H   UNL     1       7.336   3.556  18.147  0.00  0.00    +0.000 HD
ENDROOT
BRANCH   5  17
ATOM     17  C   UNL     1       2.411   7.220  19.656  0.00  0.00    +0.000 C 
ATOM     18  C   UNL     1       2.084   7.618  18.203  0.00  0.00    +0.000 C 
ATOM     19  C   UNL     1       1.853   9.110  18.051  0.00  0.00    +0.000 C 
ATOM     20  C   UNL     1       0.706   9.523  18.986  0.00  0.00    +0.000 C 
ATOM     21  C   UNL     1       1.200   9.405  20.428  0.00  0.00    +0.000 C 
ATOM     22  C   UNL     1       1.522   7.927  20.720  0.00  0.00    +0.000 C 
BRANCH  20  23
ATOM     23  C   UNL     1       0.106  10.876  18.567  0.00  0.00    +0.000 C 
BRANCH  23  24
ATOM     24  N   UNL     1       0.773  11.928  19.355  0.00  0.00    +0.000 NA
ATOM     25  C   UNL     1       1.772  12.669  18.568  0.00  0.00    +0.000 C 
ATOM     26  C   UNL     1       1.690  14.110  19.017  0.00  0.00    +0.000 C 
ATOM     27  C   UNL     1       0.237  14.258  19.397  0.00  0.00    +0.000 C 
ATOM     28  F   UNL     1      -0.494  14.458  18.265  0.00  0.00    +0.000 F 
ATOM     29  C   UNL     1      -0.124  12.901  19.987  0.00  0.00    +0.000 C 
ENDBRANCH  23  24
ENDBRANCH  20  23
ENDBRANCH   5  17
TORSDOF 3
ENDMDL
MODEL 5
REMARK VINA RESULT:      -8.0      2.040      2.355
REMARK  Name = 
REMARK  3 active torsions:
REMARK  status: ('A' for Active; 'I' for Inactive)
REMARK    1  A    between atoms: N_5  and  C_6
REMARK    2  A    between atoms: C_9  and  C_10
REMARK    3  A    between atoms: C_10  and  N_11
REMARK                            x       y       z     vdW  Elec       q    Type
REMARK                         _______ _______ _______ _____ _____    ______ ____
ROOT
ATOM      1  O   UNL     1       2.724   1.952  17.433  0.00  0.00    +0.000 OA
ATOM      2  C   UNL     1       2.760   3.163  17.573  0.00  0.00    +0.000 C 
ATOM      3  N   UNL     1       1.711   3.841  18.113  0.00  0.00    +0.000 N 
ATOM      4  C   UNL     1       1.558   5.222  17.807  0.00  0.00    +0.000 C 
ATOM      5  N   UNL     1       2.806   5.908  18.115  0.00  0.00    +0.000 N 
ATOM      6  C   UNL     1       3.959   5.352  17.537  0.00  0.00    +0.000 A 
ATOM      7  C   UNL     1       3.938   3.965  17.205  0.00  0.00    +0.000 A 
ATOM      8  C   UNL     1       5.013   3.319  16.619  0.00  0.00    +0.000 A 
ATOM      9  N   UNL     1       6.187   3.901  16.325  0.00  0.00    +0.000 NA
ATOM     10  C   UNL     1       6.217   5.201  16.663  0.00  0.00    +0.000 A 
ATOM     11  N   UNL     1       7.331   5.968  16.486  0.00  0.00    +0.000 N 
ATOM     12  C   UNL     1       7.074   7.255  16.867  0.00  0.00    +0.000 A 
ATOM     13  C   UNL     1       5.761   7.300  17.301  0.00  0.00    +0.000 A 
ATOM     14  C   UNL     1       5.201   5.982  17.229  0.00  0.00    +0.000 A 
ATOM     15  H   UNL     1       0.891   3.281  18.285  0.00  0.00    +0.000 HD
ATOM     16  H   UNL     1       8.201   5.604  16.123  0.00  0.00    +0.000 HD
ENDROOT
BRANCH   5  17
ATOM     17  C   UNL     1       2.742   7.140  18.917  0.00  0.00    +0.000 C 
ATOM     18  C   UNL     1       2.147   8.279  18.063  0.00  0.00    +0.000 C 
ATOM     19  C   UNL     1       1.725   9.470  18.903  0.00  0.00    +0.000 C 
ATOM     20  C   UNL     1       0.702   8.994  19.945  0.00  0.00    +0.000 C 
ATOM     21  C   UNL     1       1.427   8.108  20.958  0.00  0.00    +0.000 C 
ATOM     22  C   UNL     1       1.958   6.859  20.231  0.00  0.00    +0.000 C 
BRANCH  20  23
ATOM     23  C   UNL     1      -0.108  10.173  20.509  0.00  0.00    +0.000 C 
BRANCH  23  24
ATOM     24  N   UNL     1      -0.544  11.005  19.373  0.00  0.00    +0.000 NA
ATOM     25  C   UNL     1      -1.674  10.410  18.642  0.00  0.00    +0.000 C 
ATOM     26  C   UNL     1      -2.567  11.555  18.225  0.00  0.00    +0.000 C 
ATOM     27  C   UNL     1      -2.362  12.558  19.333  0.00  0.00    +0.000 C 
ATOM     28  F   UNL     1      -3.134  12.203  20.397  0.00  0.00    +0.000 F 
ATOM     29  C   UNL     1      -0.895  12.389  19.708  0.00  0.00    +0.000 C 
ENDBRANCH  23  24
ENDBRANCH  20  23
ENDBRANCH   5  17
TORSDOF 3
ENDMDL
MODEL 6
REMARK VINA RESULT:      -7.9      2.825      4.249
REMARK  Name = 
REMARK  3 active torsions:
REMARK  status: ('A' for Active; 'I' for Inactive)
REMARK    1  A    between atoms: N_5  and  C_6
REMARK    2  A    between atoms: C_9  and  C_10
REMARK    3  A    between atoms: C_10  and  N_11
REMARK                            x       y       z     vdW  Elec       q    Type
REMARK                         _______ _______ _______ _____ _____    ______ ____
ROOT
ATOM      1  O   UNL     1       5.651   4.903  15.625  0.00  0.00    +0.000 OA
ATOM      2  C   UNL     1       4.891   5.378  16.451  0.00  0.00    +0.000 C 
ATOM      3  N   UNL     1       4.703   6.722  16.546  0.00  0.00    +0.000 N 
ATOM      4  C   UNL     1       4.247   7.265  17.779  0.00  0.00    +0.000 C 
ATOM      5  N   UNL     1       3.034   6.563  18.177  0.00  0.00    +0.000 N 
ATOM      6  C   UNL     1       3.128   5.163  18.206  0.00  0.00    +0.000 A 
ATOM      7  C   UNL     1       4.104   4.541  17.372  0.00  0.00    +0.000 A 
ATOM      8  C   UNL     1       4.293   3.170  17.334  0.00  0.00    +0.000 A 
ATOM      9  N   UNL     1       3.577   2.279  18.039  0.00  0.00    +0.000 NA
ATOM     10  C   UNL     1       2.639   2.863  18.804  0.00  0.00    +0.000 A 
ATOM     11  N   UNL     1       1.776   2.135  19.570  0.00  0.00    +0.000 N 
ATOM     12  C   UNL     1       0.963   2.974  20.279  0.00  0.00    +0.000 A 
ATOM     13  C   UNL     1       1.321   4.269  19.947  0.00  0.00    +0.000 A 
ATOM     14  C   UNL     1       2.362   4.227  18.962  0.00  0.00    +0.000 A 
ATOM     15  H   UNL     1       5.307   7.274  15.959  0.00  0.00    +0.000 HD
ATOM     16  H   UNL     1       1.769   1.124  19.586  0.00  0.00    +0.000 HD
ENDROOT
BRANCH   5  17
ATOM     17  C   UNL     1       1.868   7.365  18.582  0.00  0.00    +0.000 C 
ATOM     18  C   UNL     1       2.012   7.769  20.064  0.00  0.00    +0.000 C 
ATOM     19  C   UNL     1       1.048   8.872  20.458  0.00  0.00    +0.000 C 
ATOM     20  C   UNL     1       1.297  10.085  19.548  0.00  0.00    +0.000 C 
ATOM     21  C   UNL     1       0.837   9.725  18.136  0.00  0.00    +0.000 C 
ATOM     22  C   UNL     1       1.710   8.571  17.611  0.00  0.00    +0.000 C 
BRANCH  20  23
ATOM     23  C   UNL     1       0.714  11.369  20.162  0.00  0.00    +0.000 C 
BRANCH  23  24
ATOM     24  N   UNL     1       0.639  12.384  19.096  0.00  0.00    +0.000 NA
ATOM     25  C   UNL     1      -0.539  13.257  19.234  0.00  0.00    +0.000 C 
ATOM     26  C   UNL     1      -0.098  14.642  18.818  0.00  0.00    +0.000 C 
ATOM     27  C   UNL     1       1.357  14.662  19.218  0.00  0.00    +0.000 C 
ATOM     28  F   UNL     1       1.442  14.920  20.552  0.00  0.00    +0.000 F 
ATOM     29  C   UNL     1       1.825  13.236  18.957  0.00  0.00    +0.000 C 
ENDBRANCH  23  24
ENDBRANCH  20  23
ENDBRANCH   5  17
TORSDOF 3
ENDMDL
MODEL 7
REMARK VINA RESULT:      -7.8      1.850      1.992
REMARK  Name = 
REMARK  3 active torsions:
REMARK  status: ('A' for Active; 'I' for Inactive)
REMARK    1  A    between atoms: N_5  and  C_6
REMARK    2  A    between atoms: C_9  and  C_10
REMARK    3  A    between atoms: C_10  and  N_11
REMARK                            x       y       z     vdW  Elec       q    Type
REMARK                         _______ _______ _______ _____ _____    ______ ____
ROOT
ATOM      1  O   UNL     1       2.523   2.035  17.508  0.00  0.00    +0.000 OA
ATOM      2  C   UNL     1       2.627   3.245  17.605  0.00  0.00    +0.000 C 
ATOM      3  N   UNL     1       1.623   4.000  18.129  0.00  0.00    +0.000 N 
ATOM      4  C   UNL     1       1.543   5.375  17.774  0.00  0.00    +0.000 C 
ATOM      5  N   UNL     1       2.830   6.001  18.047  0.00  0.00    +0.000 N 
ATOM      6  C   UNL     1       3.945   5.362  17.481  0.00  0.00    +0.000 A 
ATOM      7  C   UNL     1       3.844   3.968  17.199  0.00  0.00    +0.000 A 
ATOM      8  C   UNL     1       4.876   3.243  16.628  0.00  0.00    +0.000 A 
ATOM      9  N   UNL     1       6.078   3.747  16.304  0.00  0.00    +0.000 NA
ATOM     10  C   UNL     1       6.182   5.055  16.595  0.00  0.00    +0.000 A 
ATOM     11  N   UNL     1       7.336   5.752  16.381  0.00  0.00    +0.000 N 
ATOM     12  C   UNL     1       7.153   7.064  16.717  0.00  0.00    +0.000 A 
ATOM     13  C   UNL     1       5.849   7.198  17.160  0.00  0.00    +0.000 A 
ATOM     14  C   UNL     1       5.217   5.911  17.140  0.00  0.00    +0.000 A 
ATOM     15  H   UNL     1       0.775   3.493  18.327  0.00  0.00    +0.000 HD
ATOM     16  H   UNL     1       8.180   5.327  16.024  0.00  0.00    +0.000 HD
ENDROOT
BRANCH   5  17
ATOM     17  C   UNL     1       2.843   7.263  18.805  0.00  0.00    +0.000 C 
ATOM     18  C   UNL     1       2.442   8.426  17.874  0.00  0.00    +0.000 C 
ATOM     19  C   UNL     1       2.093   9.686  18.642  0.00  0.00    +0.000 C 
ATOM     20  C   UNL     1       0.948   9.363  19.614  0.00  0.00    +0.000 C 
ATOM     21  C   UNL     1       1.493   8.444  20.706  0.00  0.00    +0.000 C 
ATOM     22  C   UNL     1       1.936   7.118  20.061  0.00  0.00    +0.000 C 
BRANCH  20  23
ATOM     23  C   UNL     1       0.233  10.644  20.077  0.00  0.00    +0.000 C 
BRANCH  23  24
ATOM     24  N   UNL     1      -1.172  10.559  19.640  0.00  0.00    +0.000 NA
ATOM     25  C   UNL     1      -1.970  11.713  20.087  0.00  0.00    +0.000 C 
ATOM     26  C   UNL     1      -2.932  12.031  18.966  0.00  0.00    +0.000 C 
ATOM     27  C   UNL     1      -2.160  11.619  17.737  0.00  0.00    +0.000 C 
ATOM     28  F   UNL     1      -1.288  12.614  17.413  0.00  0.00    +0.000 F 
ATOM     29  C   UNL     1      -1.371  10.399  18.196  0.00  0.00    +0.000 C 
ENDBRANCH  23  24
ENDBRANCH  20  23
ENDBRANCH   5  17
TORSDOF 3
ENDMDL
MODEL 8
REMARK VINA RESULT:      -7.7      2.435      2.840
REMARK  Name = 
REMARK  3 active torsions:
REMARK  status: ('A' for Active; 'I' for Inactive)
REMARK    1  A    between atoms: N_5  and  C_6
REMARK    2  A    between atoms: C_9  and  C_10
REMARK    3  A    between atoms: C_10  and  N_11
REMARK                            x       y       z     vdW  Elec       q    Type
REMARK                         _______ _______ _______ _____ _____    ______ ____
ROOT
ATOM      1  O   UNL     1       2.819   1.972  17.559  0.00  0.00    +0.000 OA
ATOM      2  C   UNL     1       2.836   3.187  17.661  0.00  0.00    +0.000 C 
ATOM      3  N   UNL     1       1.771   3.867  18.166  0.00  0.00    +0.000 N 
ATOM      4  C   UNL     1       1.602   5.235  17.814  0.00  0.00    +0.000 C 
ATOM      5  N   UNL     1       2.837   5.948  18.114  0.00  0.00    +0.000 N 
ATOM      6  C   UNL     1       4.004   5.391  17.569  0.00  0.00    +0.000 A 
ATOM      7  C   UNL     1       4.007   3.994  17.281  0.00  0.00    +0.000 A 
ATOM      8  C   UNL     1       5.099   3.346  16.729  0.00  0.00    +0.000 A 
ATOM      9  N   UNL     1       6.268   3.934  16.431  0.00  0.00    +0.000 NA
ATOM     10  C   UNL     1       6.275   5.245  16.727  0.00  0.00    +0.000 A 
ATOM     11  N   UNL     1       7.380   6.022  16.538  0.00  0.00    +0.000 N 
ATOM     12  C   UNL     1       7.100   7.316  16.874  0.00  0.00    +0.000 A 
ATOM     13  C   UNL     1       5.781   7.357  17.291  0.00  0.00    +0.000 A 
ATOM     14  C   UNL     1       5.241   6.029  17.254  0.00  0.00    +0.000 A 
ATOM     15  H   UNL     1       0.957   3.301  18.346  0.00  0.00    +0.000 HD
ATOM     16  H   UNL     1       8.260   5.659  16.197  0.00  0.00    +0.000 HD
ENDROOT
BRANCH   5  17
ATOM     17  C   UNL     1       2.746   7.205  18.875  0.00  0.00    +0.000 C 
ATOM     18  C   UNL     1       2.128   8.302  17.984  0.00  0.00    +0.000 C 
ATOM     19  C   UNL     1       1.680   9.511  18.784  0.00  0.00    +0.000 C 
ATOM     20  C   UNL     1       0.665   9.048  19.840  0.00  0.00    +0.000 C 
ATOM     21  C   UNL     1       1.407   8.212  20.882  0.00  0.00    +0.000 C 
ATOM     22  C   UNL     1       1.965   6.951  20.197  0.00  0.00    +0.000 C 
BRANCH  20  23
ATOM     23  C   UNL     1      -0.171  10.228  20.364  0.00  0.00    +0.000 C 
BRANCH  23  24
ATOM     24  N   UNL     1       0.308  11.451  19.695  0.00  0.00    +0.000 NA
ATOM     25  C   UNL     1      -0.731  12.077  18.860  0.00  0.00    +0.000 C 
ATOM     26  C   UNL     1      -0.555  13.571  19.003  0.00  0.00    +0.000 C 
ATOM     27  C   UNL     1      -0.021  13.710  20.408  0.00  0.00    +0.000 C 
ATOM     28  F   UNL     1      -1.062  13.641  21.283  0.00  0.00    +0.000 F 
ATOM     29  C   UNL     1       0.858  12.478  20.586  0.00  0.00    +0.000 C 
ENDBRANCH  23  24
ENDBRANCH  20  23
ENDBRANCH   5  17
TORSDOF 3
ENDMDL
MODEL 9
REMARK VINA RESULT:      -7.3      1.969      2.414
REMARK  Name = 
REMARK  3 active torsions:
REMARK  status: ('A' for Active; 'I' for Inactive)
REMARK    1  A    between atoms: N_5  and  C_6
REMARK    2  A    between atoms: C_9  and  C_10
REMARK    3  A    between atoms: C_10  and  N_11
REMARK                            x       y       z     vdW  Elec       q    Type
REMARK                         _______ _______ _______ _____ _____    ______ ____
ROOT
ATOM      1  O   UNL     1       3.052   2.495  21.117  0.00  0.00    +0.000 OA
ATOM      2  C   UNL     1       2.803   3.594  20.650  0.00  0.00    +0.000 C 
ATOM      3  N   UNL     1       1.880   4.412  21.224  0.00  0.00    +0.000 N 
ATOM      4  C   UNL     1       1.253   5.406  20.424  0.00  0.00    +0.000 C 
ATOM      5  N   UNL     1       2.287   6.201  19.775  0.00  0.00    +0.000 N 
ATOM      6  C   UNL     1       3.255   5.470  19.067  0.00  0.00    +0.000 A 
ATOM      7  C   UNL     1       3.497   4.122  19.463  0.00  0.00    +0.000 A 
ATOM      8  C   UNL     1       4.417   3.307  18.826  0.00  0.00    +0.000 A 
ATOM      9  N   UNL     1       5.195   3.689  17.801  0.00  0.00    +0.000 NA
ATOM     10  C   UNL     1       4.988   4.968  17.445  0.00  0.00    +0.000 A 
ATOM     11  N   UNL     1       5.704   5.566  16.450  0.00  0.00    +0.000 N 
ATOM     12  C   UNL     1       5.261   6.845  16.263  0.00  0.00    +0.000 A 
ATOM     13  C   UNL     1       4.238   7.061  17.169  0.00  0.00    +0.000 A 
ATOM     14  C   UNL     1       4.075   5.888  17.977  0.00  0.00    +0.000 A 
ATOM     15  H   UNL     1       1.366   3.998  21.986  0.00  0.00    +0.000 HD
ATOM     16  H   UNL     1       6.446   5.100  15.946  0.00  0.00    +0.000 HD
ENDROOT
BRANCH   5  17
ATOM     17  C   UNL     1       2.184   7.668  19.846  0.00  0.00    +0.000 C 
ATOM     18  C   UNL     1       1.528   8.200  18.556  0.00  0.00    +0.000 C 
ATOM     19  C   UNL     1       1.070   9.640  18.693  0.00  0.00    +0.000 C 
ATOM     20  C   UNL     1       0.084   9.728  19.868  0.00  0.00    +0.000 C 
ATOM     21  C   UNL     1       0.862   9.498  21.163  0.00  0.00    +0.000 C 
ATOM     22  C   UNL     1       1.433   8.068  21.149  0.00  0.00    +0.000 C 
BRANCH  20  23
ATOM     23  C   UNL     1      -0.766  11.008  19.787  0.00  0.00    +0.000 C 
BRANCH  23  24
ATOM     24  N   UNL     1       0.121  12.112  19.378  0.00  0.00    +0.000 NA
ATOM     25  C   UNL     1      -0.497  12.980  18.362  0.00  0.00    +0.000 C 
ATOM     26  C   UNL     1      -0.061  14.391  18.680  0.00  0.00    +0.000 C 
ATOM     27  C   UNL     1       0.087  14.364  20.182  0.00  0.00    +0.000 C 
ATOM     28  F   UNL     1      -1.144  14.504  20.747  0.00  0.00    +0.000 F 
ATOM     29  C   UNL     1       0.608  12.961  20.469  0.00  0.00    +0.000 C 
ENDBRANCH  23  24
ENDBRANCH  20  23
ENDBRANCH   5  17
TORSDOF 3
ENDMDL
