MODEL 1
REMARK VINA RESULT:      -6.6      0.000      0.000
REMARK  Name = 
REMARK  7 active torsions:
REMARK  status: ('A' for Active; 'I' for Inactive)
REMARK    1  A    between atoms: C_1  and  C_2
REMARK    2  A    between atoms: C_5  and  S_6
REMARK    3  A    between atoms: S_6  and  N_9
REMARK    4  A    between atoms: C_10  and  C_11
REMARK    5  A    between atoms: C_20  and  C_21
REMARK    6  A    between atoms: C_21  and  O_23
REMARK    7  A    between atoms: C_24  and  C_25
REMARK                            x       y       z     vdW  Elec       q    Type
REMARK                         _______ _______ _______ _____ _____    ______ ____
ROOT
ATOM      1  N   UNL     1      -1.067  13.412  20.879  0.00  0.00    +0.000 NA
ATOM      2  C   UNL     1      -1.835  12.370  21.671  0.00  0.00    +0.000 C 
ATOM      3  C   UNL     1      -0.696  11.675  22.460  0.00  0.00    +0.000 C 
ATOM      4  C   UNL     1      -0.208  10.632  21.565  0.00  0.00    +0.000 C 
ATOM      5  C   UNL     1       0.170  11.057  20.342  0.00  0.00    +0.000 C 
ATOM      6  C   UNL     1       0.058  12.608  19.960  0.00  0.00    +0.000 C 
ENDROOT
BRANCH   2   7
ATOM      7  C   UNL     1      -3.071  12.539  22.535  0.00  0.00    +0.000 A 
ATOM      8  C   UNL     1      -3.149  12.461  23.925  0.00  0.00    +0.000 A 
ATOM      9  C   UNL     1      -4.394  12.538  24.576  0.00  0.00    +0.000 A 
ATOM     10  C   UNL     1      -5.570  12.759  23.858  0.00  0.00    +0.000 A 
ATOM     11  C   UNL     1      -5.495  12.990  22.498  0.00  0.00    +0.000 A 
ATOM     12  C   UNL     1      -4.259  12.934  21.878  0.00  0.00    +0.000 A 
ATOM     13  F   UNL     1      -4.230  13.304  20.587  0.00  0.00    +0.000 F 
ENDBRANCH   2   7
BRANCH   6  14
ATOM     14  C   UNL     1       1.412  13.313  19.741  0.00  0.00    +0.000 A 
ATOM     15  C   UNL     1       2.372  13.489  20.758  0.00  0.00    +0.000 A 
ATOM     16  C   UNL     1       3.552  14.222  20.529  0.00  0.00    +0.000 A 
ATOM     17  C   UNL     1       3.786  14.812  19.288  0.00  0.00    +0.000 A 
ATOM     18 CL   UNL     1       5.180  15.790  19.039  0.00  0.00    +0.000 Cl
ATOM     19  C   UNL     1       2.883  14.614  18.252  0.00  0.00    +0.000 A 
ATOM     20  C   UNL     1       1.740  13.827  18.467  0.00  0.00    +0.000 A 
ENDBRANCH   6  14
BRANCH   1  21
ATOM     21  S   UNL     1      -0.793  14.930  21.707  0.00  0.00    +0.000 S 
ATOM     22  O   UNL     1       0.356  14.761  22.572  0.00  0.00    +0.000 OA
ATOM     23  O   UNL     1      -1.997  15.446  22.307  0.00  0.00    +0.000 OA
BRANCH  21  28
ATOM     24  C   UNL     1       1.327  18.270  17.115  0.00  0.00    +0.000 C 
ATOM     25  C   UNL     1       0.723  17.576  18.303  0.00  0.00    +0.000 A 
ATOM     26  C   UNL     1      -0.488  16.881  18.182  0.00  0.00    +0.000 A 
ATOM     27  C   UNL     1      -1.024  16.188  19.270  0.00  0.00    +0.000 A 
ATOM     28  C   UNL     1      -0.301  16.122  20.462  0.00  0.00    +0.000 A 
ATOM     29  C   UNL     1       0.855  16.898  20.632  0.00  0.00    +0.000 A 
ATOM     30  C   UNL     1       1.369  17.614  19.547  0.00  0.00    +0.000 A 
ENDBRANCH  21  28
ENDBRANCH   1  21
BRANCH   5  31
ATOM     31  C   UNL     1       0.499   9.870  19.487  0.00  0.00    +0.000 C 
ATOM     32  O   UNL     1       0.226   9.818  18.290  0.00  0.00    +0.000 OA
BRANCH  31  33
ATOM     33  O   UNL     1       1.108   8.843  20.104  0.00  0.00    +0.000 OA
ATOM     34  H   UNL     1       1.925   8.520  19.712  0.00  0.00    +0.000 HD
ENDBRANCH  31  33
ENDBRANCH   5  31
TORSDOF 6
ENDMDL
MODEL 2
REMARK VINA RESULT:      -6.5      0.207      1.021
REMARK  Name = 
REMARK  7 active torsions:
REMARK  status: ('A' for Active; 'I' for Inactive)
REMARK    1  A    between atoms: C_1  and  C_2
REMARK    2  A    between atoms: C_5  and  S_6
REMARK    3  A    between atoms: S_6  and  N_9
REMARK    4  A    between atoms: C_10  and  C_11
REMARK    5  A    between atoms: C_20  and  C_21
REMARK    6  A    between atoms: C_21  and  O_23
REMARK    7  A    between atoms: C_24  and  C_25
REMARK                            x       y       z     vdW  Elec       q    Type
REMARK                         _______ _______ _______ _____ _____    ______ ____
ROOT
ATOM      1  N   UNL     1      -1.141  13.530  20.858  0.00  0.00    +0.000 NA
ATOM      2  C   UNL     1      -1.874  12.455  21.640  0.00  0.00    +0.000 C 
ATOM      3  C   UNL     1      -0.709  11.776  22.404  0.00  0.00    +0.000 C 
ATOM      4  C   UNL     1      -0.205  10.761  21.485  0.00  0.00    +0.000 C 
ATOM      5  C   UNL     1       0.148  11.216  20.266  0.00  0.00    +0.000 C 
ATOM      6  C   UNL     1      -0.008  12.770  19.912  0.00  0.00    +0.000 C 
ENDROOT
BRANCH   2   7
ATOM      7  C   UNL     1      -3.104  12.578  22.521  0.00  0.00    +0.000 A 
ATOM      8  C   UNL     1      -3.163  12.476  23.910  0.00  0.00    +0.000 A 
ATOM      9  C   UNL     1      -4.402  12.510  24.576  0.00  0.00    +0.000 A 
ATOM     10  C   UNL     1      -5.592  12.712  23.875  0.00  0.00    +0.000 A 
ATOM     11  C   UNL     1      -5.539  12.966  22.519  0.00  0.00    +0.000 A 
ATOM     12  C   UNL     1      -4.309  12.952  21.884  0.00  0.00    +0.000 A 
ATOM     13  F   UNL     1      -4.305  13.343  20.599  0.00  0.00    +0.000 F 
ENDBRANCH   2   7
BRANCH   6  14
ATOM     14  C   UNL     1       1.326  13.513  19.691  0.00  0.00    +0.000 A 
ATOM     15  C   UNL     1       1.683  14.128  18.474  0.00  0.00    +0.000 A 
ATOM     16  C   UNL     1       2.952  14.712  18.297  0.00  0.00    +0.000 A 
ATOM     17  C   UNL     1       3.895  14.675  19.323  0.00  0.00    +0.000 A 
ATOM     18 CL   UNL     1       5.478  15.301  19.071  0.00  0.00    +0.000 Cl
ATOM     19  C   UNL     1       3.555  14.122  20.550  0.00  0.00    +0.000 A 
ATOM     20  C   UNL     1       2.265  13.599  20.742  0.00  0.00    +0.000 A 
ENDBRANCH   6  14
BRANCH   1  21
ATOM     21  S   UNL     1      -0.896  15.040  21.709  0.00  0.00    +0.000 S 
ATOM     22  O   UNL     1       0.246  14.874  22.584  0.00  0.00    +0.000 OA
ATOM     23  O   UNL     1      -2.113  15.532  22.303  0.00  0.00    +0.000 OA
BRANCH  21  28
ATOM     24  C   UNL     1       1.187  18.458  17.158  0.00  0.00    +0.000 C 
ATOM     25  C   UNL     1       0.597  17.746  18.342  0.00  0.00    +0.000 A 
ATOM     26  C   UNL     1      -0.634  17.084  18.234  0.00  0.00    +0.000 A 
ATOM     27  C   UNL     1      -1.159  16.373  19.316  0.00  0.00    +0.000 A 
ATOM     28  C   UNL     1      -0.406  16.255  20.486  0.00  0.00    +0.000 A 
ATOM     29  C   UNL     1       0.772  16.997  20.647  0.00  0.00    +0.000 A 
ATOM     30  C   UNL     1       1.276  17.731  19.568  0.00  0.00    +0.000 A 
ENDBRANCH  21  28
ENDBRANCH   1  21
BRANCH   5  31
ATOM     31  C   UNL     1       0.497  10.053  19.387  0.00  0.00    +0.000 C 
ATOM     32  O   UNL     1       1.016   9.027  19.819  0.00  0.00    +0.000 OA
BRANCH  31  33
ATOM     33  O   UNL     1       0.221  10.192  18.079  0.00  0.00    +0.000 OA
ATOM     34  H   UNL     1      -0.708  10.239  17.830  0.00  0.00    +0.000 HD
ENDBRANCH  31  33
ENDBRANCH   5  31
TORSDOF 6
ENDMDL
MODEL 3
REMARK VINA RESULT:      -6.2      1.870      3.356
REMARK  Name = 
REMARK  7 active torsions:
REMARK  status: ('A' for Active; 'I' for Inactive)
REMARK    1  A    between atoms: C_1  and  C_2
REMARK    2  A    between atoms: C_5  and  S_6
REMARK    3  A    between atoms: S_6  and  N_9
REMARK    4  A    between atoms: C_10  and  C_11
REMARK    5  A    between atoms: C_20  and  C_21
REMARK    6  A    between atoms: C_21  and  O_23
REMARK    7  A    between atoms: C_24  and  C_25
REMARK                            x       y       z     vdW  Elec       q    Type
REMARK                         _______ _______ _______ _____ _____    ______ ____
ROOT
ATOM      1  N   UNL     1      -1.445  13.861  21.078  0.00  0.00    +0.000 NA
ATOM      2  C   UNL     1      -2.261  12.692  21.599  0.00  0.00    +0.000 C 
ATOM      3  C   UNL     1      -1.150  11.731  22.091  0.00  0.00    +0.000 C 
ATOM      4  C   UNL     1      -0.786  10.950  20.914  0.00  0.00    +0.000 C 
ATOM      5  C   UNL     1      -0.427  11.674  19.834  0.00  0.00    +0.000 C 
ATOM      6  C   UNL     1      -0.429  13.274  19.903  0.00  0.00    +0.000 C 
ENDROOT
BRANCH   2   7
ATOM      7  C   UNL     1      -3.442  12.694  22.552  0.00  0.00    +0.000 A 
ATOM      8  C   UNL     1      -3.422  12.439  23.922  0.00  0.00    +0.000 A 
ATOM      9  C   UNL     1      -4.623  12.376  24.654  0.00  0.00    +0.000 A 
ATOM     10  C   UNL     1      -5.852  12.632  24.044  0.00  0.00    +0.000 A 
ATOM     11  C   UNL     1      -5.877  13.035  22.724  0.00  0.00    +0.000 A 
ATOM     12  C   UNL     1      -4.684  13.114  22.026  0.00  0.00    +0.000 A 
ATOM     13  F   UNL     1      -4.757  13.645  20.794  0.00  0.00    +0.000 F 
ENDBRANCH   2   7
BRANCH   6  14
ATOM     14  C   UNL     1       0.968  13.921  19.803  0.00  0.00    +0.000 A 
ATOM     15  C   UNL     1       1.313  14.883  18.833  0.00  0.00    +0.000 A 
ATOM     16  C   UNL     1       2.629  15.373  18.727  0.00  0.00    +0.000 A 
ATOM     17  C   UNL     1       3.629  14.895  19.572  0.00  0.00    +0.000 A 
ATOM     18 CL   UNL     1       5.256  15.421  19.376  0.00  0.00    +0.000 Cl
ATOM     19  C   UNL     1       3.309  13.985  20.570  0.00  0.00    +0.000 A 
ATOM     20  C   UNL     1       1.981  13.549  20.713  0.00  0.00    +0.000 A 
ENDBRANCH   6  14
BRANCH   1  21
ATOM     21  S   UNL     1      -1.013  15.065  22.273  0.00  0.00    +0.000 S 
ATOM     22  O   UNL     1      -0.201  16.068  21.618  0.00  0.00    +0.000 OA
ATOM     23  O   UNL     1      -0.482  14.471  23.474  0.00  0.00    +0.000 OA
BRANCH  21  28
ATOM     24  C   UNL     1      -6.530  17.043  23.822  0.00  0.00    +0.000 C 
ATOM     25  C   UNL     1      -5.110  16.707  23.460  0.00  0.00    +0.000 A 
ATOM     26  C   UNL     1      -4.220  16.236  24.435  0.00  0.00    +0.000 A 
ATOM     27  C   UNL     1      -2.917  15.869  24.092  0.00  0.00    +0.000 A 
ATOM     28  C   UNL     1      -2.530  15.894  22.751  0.00  0.00    +0.000 A 
ATOM     29  C   UNL     1      -3.370  16.461  21.783  0.00  0.00    +0.000 A 
ATOM     30  C   UNL     1      -4.663  16.855  22.140  0.00  0.00    +0.000 A 
ENDBRANCH  21  28
ENDBRANCH   1  21
BRANCH   5  31
ATOM     31  C   UNL     1      -0.232  10.755  18.666  0.00  0.00    +0.000 C 
ATOM     32  O   UNL     1      -1.142  10.075  18.197  0.00  0.00    +0.000 OA
BRANCH  31  33
ATOM     33  O   UNL     1       1.009  10.699  18.154  0.00  0.00    +0.000 OA
ATOM     34  H   UNL     1       1.299  11.450  17.626  0.00  0.00    +0.000 HD
ENDBRANCH  31  33
ENDBRANCH   5  31
TORSDOF 6
ENDMDL
MODEL 4
REMARK VINA RESULT:      -6.0      3.335      6.610
REMARK  Name = 
REMARK  7 active torsions:
REMARK  status: ('A' for Active; 'I' for Inactive)
REMARK    1  A    between atoms: C_1  and  C_2
REMARK    2  A    between atoms: C_5  and  S_6
REMARK    3  A    between atoms: S_6  and  N_9
REMARK    4  A    between atoms: C_10  and  C_11
REMARK    5  A    between atoms: C_20  and  C_21
REMARK    6  A    between atoms: C_21  and  O_23
REMARK    7  A    between atoms: C_24  and  C_25
REMARK                            x       y       z     vdW  Elec       q    Type
REMARK                         _______ _______ _______ _____ _____    ______ ____
ROOT
ATOM      1  N   UNL     1       0.145  13.656  21.542  0.00  0.00    +0.000 NA
ATOM      2  C   UNL     1       1.328  13.036  20.822  0.00  0.00    +0.000 C 
ATOM      3  C   UNL     1       0.625  12.028  19.878  0.00  0.00    +0.000 C 
ATOM      4  C   UNL     1       0.477  10.815  20.675  0.00  0.00    +0.000 C 
ATOM      5  C   UNL     1      -0.159  10.977  21.853  0.00  0.00    +0.000 C 
ATOM      6  C   UNL     1      -0.682  12.426  22.291  0.00  0.00    +0.000 C 
ENDROOT
BRANCH   2   7
ATOM      7  C   UNL     1       2.491  13.716  20.125  0.00  0.00    +0.000 A 
ATOM      8  C   UNL     1       2.704  13.831  18.752  0.00  0.00    +0.000 A 
ATOM      9  C   UNL     1       3.891  14.403  18.258  0.00  0.00    +0.000 A 
ATOM     10  C   UNL     1       4.851  14.929  19.124  0.00  0.00    +0.000 A 
ATOM     11  C   UNL     1       4.589  14.962  20.479  0.00  0.00    +0.000 A 
ATOM     12  C   UNL     1       3.406  14.415  20.945  0.00  0.00    +0.000 A 
ATOM     13  F   UNL     1       3.144  14.601  22.249  0.00  0.00    +0.000 F 
ENDBRANCH   2   7
BRANCH   6  14
ATOM     14  C   UNL     1      -2.217  12.559  22.359  0.00  0.00    +0.000 A 
ATOM     15  C   UNL     1      -3.053  12.526  21.225  0.00  0.00    +0.000 A 
ATOM     16  C   UNL     1      -4.440  12.745  21.335  0.00  0.00    +0.000 A 
ATOM     17  C   UNL     1      -5.014  13.023  22.573  0.00  0.00    +0.000 A 
ATOM     18 CL   UNL     1      -6.692  13.389  22.691  0.00  0.00    +0.000 Cl
ATOM     19  C   UNL     1      -4.225  13.012  23.715  0.00  0.00    +0.000 A 
ATOM     20  C   UNL     1      -2.853  12.727  23.609  0.00  0.00    +0.000 A 
ENDBRANCH   6  14
BRANCH   1  21
ATOM     21  S   UNL     1      -0.595  15.020  20.731  0.00  0.00    +0.000 S 
ATOM     22  O   UNL     1      -1.473  14.501  19.704  0.00  0.00    +0.000 OA
ATOM     23  O   UNL     1       0.378  16.004  20.329  0.00  0.00    +0.000 OA
BRANCH  21  28
ATOM     24  C   UNL     1      -4.430  16.899  25.033  0.00  0.00    +0.000 C 
ATOM     25  C   UNL     1      -3.446  16.591  23.939  0.00  0.00    +0.000 A 
ATOM     26  C   UNL     1      -2.103  16.334  24.243  0.00  0.00    +0.000 A 
ATOM     27  C   UNL     1      -1.197  15.992  23.236  0.00  0.00    +0.000 A 
ATOM     28  C   UNL     1      -1.659  15.825  21.929  0.00  0.00    +0.000 A 
ATOM     29  C   UNL     1      -2.973  16.182  21.592  0.00  0.00    +0.000 A 
ATOM     30  C   UNL     1      -3.865  16.553  22.603  0.00  0.00    +0.000 A 
ENDBRANCH  21  28
ENDBRANCH   1  21
BRANCH   5  31
ATOM     31  C   UNL     1      -0.102   9.694  22.625  0.00  0.00    +0.000 C 
ATOM     32  O   UNL     1       0.289   9.635  23.789  0.00  0.00    +0.000 OA
BRANCH  31  33
ATOM     33  O   UNL     1      -0.495   8.588  21.971  0.00  0.00    +0.000 OA
ATOM     34  H   UNL     1      -0.624   8.665  21.020  0.00  0.00    +0.000 HD
ENDBRANCH  31  33
ENDBRANCH   5  31
TORSDOF 6
ENDMDL
MODEL 5
REMARK VINA RESULT:      -6.0      1.649      2.948
REMARK  Name = 
REMARK  7 active torsions:
REMARK  status: ('A' for Active; 'I' for Inactive)
REMARK    1  A    between atoms: C_1  and  C_2
REMARK    2  A    between atoms: C_5  and  S_6
REMARK    3  A    between atoms: S_6  and  N_9
REMARK    4  A    between atoms: C_10  and  C_11
REMARK    5  A    between atoms: C_20  and  C_21
REMARK    6  A    between atoms: C_21  and  O_23
REMARK    7  A    between atoms: C_24  and  C_25
REMARK                            x       y       z     vdW  Elec       q    Type
REMARK                         _______ _______ _______ _____ _____    ______ ____
ROOT
ATOM      1  N   UNL     1      -1.125  13.500  20.932  0.00  0.00    +0.000 NA
ATOM      2  C   UNL     1      -1.929  12.417  21.629  0.00  0.00    +0.000 C 
ATOM      3  C   UNL     1      -0.814  11.616  22.347  0.00  0.00    +0.000 C 
ATOM      4  C   UNL     1      -0.362  10.641  21.360  0.00  0.00    +0.000 C 
ATOM      5  C   UNL     1       0.029  11.162  20.179  0.00  0.00    +0.000 C 
ATOM      6  C   UNL     1      -0.029  12.744  19.939  0.00  0.00    +0.000 C 
ENDROOT
BRANCH   2   7
ATOM      7  C   UNL     1      -3.158  12.550  22.508  0.00  0.00    +0.000 A 
ATOM      8  C   UNL     1      -3.205  12.548  23.902  0.00  0.00    +0.000 A 
ATOM      9  C   UNL     1      -4.441  12.576  24.574  0.00  0.00    +0.000 A 
ATOM     10  C   UNL     1      -5.642  12.673  23.871  0.00  0.00    +0.000 A 
ATOM     11  C   UNL     1      -5.608  12.829  22.499  0.00  0.00    +0.000 A 
ATOM     12  C   UNL     1      -4.382  12.823  21.856  0.00  0.00    +0.000 A 
ATOM     13  F   UNL     1      -4.402  13.119  20.546  0.00  0.00    +0.000 F 
ENDBRANCH   2   7
BRANCH   6  14
ATOM     14  C   UNL     1       1.349  13.419  19.781  0.00  0.00    +0.000 A 
ATOM     15  C   UNL     1       2.350  13.386  20.772  0.00  0.00    +0.000 A 
ATOM     16  C   UNL     1       3.556  14.098  20.615  0.00  0.00    +0.000 A 
ATOM     17  C   UNL     1       3.774  14.873  19.477  0.00  0.00    +0.000 A 
ATOM     18 CL   UNL     1       5.203  15.820  19.332  0.00  0.00    +0.000 Cl
ATOM     19  C   UNL     1       2.827  14.885  18.462  0.00  0.00    +0.000 A 
ATOM     20  C   UNL     1       1.656  14.120  18.595  0.00  0.00    +0.000 A 
ENDBRANCH   6  14
BRANCH   1  21
ATOM     21  S   UNL     1      -0.799  14.926  21.893  0.00  0.00    +0.000 S 
ATOM     22  O   UNL     1      -0.009  15.832  21.085  0.00  0.00    +0.000 OA
ATOM     23  O   UNL     1      -0.288  14.595  23.199  0.00  0.00    +0.000 OA
BRANCH  21  28
ATOM     24  C   UNL     1      -6.457  16.860  22.883  0.00  0.00    +0.000 C 
ATOM     25  C   UNL     1      -5.011  16.539  22.630  0.00  0.00    +0.000 A 
ATOM     26  C   UNL     1      -4.134  16.318  23.701  0.00  0.00    +0.000 A 
ATOM     27  C   UNL     1      -2.802  15.963  23.470  0.00  0.00    +0.000 A 
ATOM     28  C   UNL     1      -2.370  15.747  22.160  0.00  0.00    +0.000 A 
ATOM     29  C   UNL     1      -3.203  16.067  21.078  0.00  0.00    +0.000 A 
ATOM     30  C   UNL     1      -4.526  16.451  21.319  0.00  0.00    +0.000 A 
ENDBRANCH  21  28
ENDBRANCH   1  21
BRANCH   5  31
ATOM     31  C   UNL     1       0.317  10.047  19.220  0.00  0.00    +0.000 C 
ATOM     32  O   UNL     1      -0.160  10.005  18.088  0.00  0.00    +0.000 OA
BRANCH  31  33
ATOM     33  O   UNL     1       1.127   9.072  19.666  0.00  0.00    +0.000 OA
ATOM     34  H   UNL     1       1.605   9.240  20.485  0.00  0.00    +0.000 HD
ENDBRANCH  31  33
ENDBRANCH   5  31
TORSDOF 6
ENDMDL
MODEL 6
REMARK VINA RESULT:      -5.9      6.898     10.553
REMARK  Name = 
REMARK  7 active torsions:
REMARK  status: ('A' for Active; 'I' for Inactive)
REMARK    1  A    between atoms: C_1  and  C_2
REMARK    2  A    between atoms: C_5  and  S_6
REMARK    3  A    between atoms: S_6  and  N_9
REMARK    4  A    between atoms: C_10  and  C_11
REMARK    5  A    between atoms: C_20  and  C_21
REMARK    6  A    between atoms: C_21  and  O_23
REMARK    7  A    between atoms: C_24  and  C_25
REMARK                            x       y       z     vdW  Elec       q    Type
REMARK                         _______ _______ _______ _____ _____    ______ ____
ROOT
ATOM      1  N   UNL     1       7.511  14.059  21.685  0.00  0.00    +0.000 NA
ATOM      2  C   UNL     1       7.406  15.430  21.043  0.00  0.00    +0.000 C 
ATOM      3  C   UNL     1       7.316  16.350  22.287  0.00  0.00    +0.000 C 
ATOM      4  C   UNL     1       5.895  16.396  22.613  0.00  0.00    +0.000 C 
ATOM      5  C   UNL     1       5.309  15.195  22.792  0.00  0.00    +0.000 C 
ATOM      6  C   UNL     1       6.166  13.851  22.637  0.00  0.00    +0.000 C 
ENDROOT
BRANCH   2   7
ATOM      7  C   UNL     1       8.272  16.055  19.965  0.00  0.00    +0.000 A 
ATOM      8  C   UNL     1       9.312  16.967  20.139  0.00  0.00    +0.000 A 
ATOM      9  C   UNL     1       9.955  17.537  19.024  0.00  0.00    +0.000 A 
ATOM     10  C   UNL     1       9.618  17.156  17.725  0.00  0.00    +0.000 A 
ATOM     11  C   UNL     1       8.698  16.143  17.538  0.00  0.00    +0.000 A 
ATOM     12  C   UNL     1       8.091  15.578  18.647  0.00  0.00    +0.000 A 
ATOM     13  F   UNL     1       7.315  14.507  18.412  0.00  0.00    +0.000 F 
ENDBRANCH   2   7
BRANCH   6  14
ATOM     14  C   UNL     1       6.356  13.057  23.946  0.00  0.00    +0.000 A 
ATOM     15  C   UNL     1       5.999  11.702  24.093  0.00  0.00    +0.000 A 
ATOM     16  C   UNL     1       6.107  11.050  25.338  0.00  0.00    +0.000 A 
ATOM     17  C   UNL     1       6.550  11.745  26.461  0.00  0.00    +0.000 A 
ATOM     18 CL   UNL     1       6.587  10.976  28.000  0.00  0.00    +0.000 Cl
ATOM     19  C   UNL     1       6.957  13.066  26.336  0.00  0.00    +0.000 A 
ATOM     20  C   UNL     1       6.910  13.692  25.079  0.00  0.00    +0.000 A 
ENDBRANCH   6  14
BRANCH   1  21
ATOM     21  S   UNL     1       9.132  13.550  22.106  0.00  0.00    +0.000 S 
ATOM     22  O   UNL     1       9.036  12.262  22.760  0.00  0.00    +0.000 OA
ATOM     23  O   UNL     1       9.863  14.584  22.795  0.00  0.00    +0.000 OA
BRANCH  21  28
ATOM     24  C   UNL     1      11.617  13.280  16.584  0.00  0.00    +0.000 C 
ATOM     25  C   UNL     1      11.097  13.220  17.993  0.00  0.00    +0.000 A 
ATOM     26  C   UNL     1      11.675  14.005  18.999  0.00  0.00    +0.000 A 
ATOM     27  C   UNL     1      11.158  13.995  20.297  0.00  0.00    +0.000 A 
ATOM     28  C   UNL     1      10.004  13.258  20.568  0.00  0.00    +0.000 A 
ATOM     29  C   UNL     1       9.479  12.386  19.602  0.00  0.00    +0.000 A 
ATOM     30  C   UNL     1      10.022  12.380  18.314  0.00  0.00    +0.000 A 
ENDBRANCH  21  28
ENDBRANCH   1  21
BRANCH   5  31
ATOM     31  C   UNL     1       3.833  15.387  22.966  0.00  0.00    +0.000 C 
ATOM     32  O   UNL     1       3.357  16.275  23.669  0.00  0.00    +0.000 OA
BRANCH  31  33
ATOM     33  O   UNL     1       3.039  14.520  22.313  0.00  0.00    +0.000 OA
ATOM     34  H   UNL     1       3.335  13.606  22.266  0.00  0.00    +0.000 HD
ENDBRANCH  31  33
ENDBRANCH   5  31
TORSDOF 6
ENDMDL
MODEL 7
REMARK VINA RESULT:      -5.9      3.253      6.574
REMARK  Name = 
REMARK  7 active torsions:
REMARK  status: ('A' for Active; 'I' for Inactive)
REMARK    1  A    between atoms: C_1  and  C_2
REMARK    2  A    between atoms: C_5  and  S_6
REMARK    3  A    between atoms: S_6  and  N_9
REMARK    4  A    between atoms: C_10  and  C_11
REMARK    5  A    between atoms: C_20  and  C_21
REMARK    6  A    between atoms: C_21  and  O_23
REMARK    7  A    between atoms: C_24  and  C_25
REMARK                            x       y       z     vdW  Elec       q    Type
REMARK                         _______ _______ _______ _____ _____    ______ ____
ROOT
ATOM      1  N   UNL     1       0.820  13.584  20.943  0.00  0.00    +0.000 NA
ATOM      2  C   UNL     1       1.995  13.135  20.094  0.00  0.00    +0.000 C 
ATOM      3  C   UNL     1       1.280  12.379  18.946  0.00  0.00    +0.000 C 
ATOM      4  C   UNL     1       1.120  11.016  19.441  0.00  0.00    +0.000 C 
ATOM      5  C   UNL     1       0.489  10.908  20.628  0.00  0.00    +0.000 C 
ATOM      6  C   UNL     1      -0.018  12.222  21.391  0.00  0.00    +0.000 C 
ENDROOT
BRANCH   2   7
ATOM      7  C   UNL     1       3.164  13.946  19.566  0.00  0.00    +0.000 A 
ATOM      8  C   UNL     1       3.411  14.312  18.244  0.00  0.00    +0.000 A 
ATOM      9  C   UNL     1       4.600  14.981  17.899  0.00  0.00    +0.000 A 
ATOM     10  C   UNL     1       5.527  15.353  18.874  0.00  0.00    +0.000 A 
ATOM     11  C   UNL     1       5.228  15.134  20.204  0.00  0.00    +0.000 A 
ATOM     12  C   UNL     1       4.043  14.496  20.527  0.00  0.00    +0.000 A 
ATOM     13  F   UNL     1       3.743  14.438  21.835  0.00  0.00    +0.000 F 
ENDBRANCH   2   7
BRANCH   6  14
ATOM     14  C   UNL     1      -1.552  12.350  21.495  0.00  0.00    +0.000 A 
ATOM     15  C   UNL     1      -2.395  12.536  20.381  0.00  0.00    +0.000 A 
ATOM     16  C   UNL     1      -3.780  12.740  20.540  0.00  0.00    +0.000 A 
ATOM     17  C   UNL     1      -4.344  12.786  21.814  0.00  0.00    +0.000 A 
ATOM     18 CL   UNL     1      -6.017  13.134  22.011  0.00  0.00    +0.000 Cl
ATOM     19  C   UNL     1      -3.547  12.555  22.927  0.00  0.00    +0.000 A 
ATOM     20  C   UNL     1      -2.178  12.286  22.759  0.00  0.00    +0.000 A 
ENDBRANCH   6  14
BRANCH   1  21
ATOM     21  S   UNL     1       0.092  15.105  20.472  0.00  0.00    +0.000 S 
ATOM     22  O   UNL     1      -0.798  14.844  19.361  0.00  0.00    +0.000 OA
ATOM     23  O   UNL     1       1.075  16.144  20.296  0.00  0.00    +0.000 OA
BRANCH  21  28
ATOM     24  C   UNL     1      -3.686  15.990  25.128  0.00  0.00    +0.000 C 
ATOM     25  C   UNL     1      -2.716  15.930  23.982  0.00  0.00    +0.000 A 
ATOM     26  C   UNL     1      -1.371  15.607  24.205  0.00  0.00    +0.000 A 
ATOM     27  C   UNL     1      -0.478  15.495  23.136  0.00  0.00    +0.000 A 
ATOM     28  C   UNL     1      -0.954  15.626  21.830  0.00  0.00    +0.000 A 
ATOM     29  C   UNL     1      -2.269  16.054  21.597  0.00  0.00    +0.000 A 
ATOM     30  C   UNL     1      -3.149  16.194  22.675  0.00  0.00    +0.000 A 
ENDBRANCH  21  28
ENDBRANCH   1  21
BRANCH   5  31
ATOM     31  C   UNL     1       0.534   9.481  21.083  0.00  0.00    +0.000 C 
ATOM     32  O   UNL     1       1.265   8.641  20.563  0.00  0.00    +0.000 OA
BRANCH  31  33
ATOM     33  O   UNL     1      -0.287   9.153  22.096  0.00  0.00    +0.000 OA
ATOM     34  H   UNL     1      -1.224   9.077  21.892  0.00  0.00    +0.000 HD
ENDBRANCH  31  33
ENDBRANCH   5  31
TORSDOF 6
ENDMDL
MODEL 8
REMARK VINA RESULT:      -5.8      3.331      6.548
REMARK  Name = 
REMARK  7 active torsions:
REMARK  status: ('A' for Active; 'I' for Inactive)
REMARK    1  A    between atoms: C_1  and  C_2
REMARK    2  A    between atoms: C_5  and  S_6
REMARK    3  A    between atoms: S_6  and  N_9
REMARK    4  A    between atoms: C_10  and  C_11
REMARK    5  A    between atoms: C_20  and  C_21
REMARK    6  A    between atoms: C_21  and  O_23
REMARK    7  A    between atoms: C_24  and  C_25
REMARK                            x       y       z     vdW  Elec       q    Type
REMARK                         _______ _______ _______ _____ _____    ______ ____
ROOT
ATOM      1  N   UNL     1       0.373  13.736  21.512  0.00  0.00    +0.000 NA
ATOM      2  C   UNL     1       1.552  13.120  20.781  0.00  0.00    +0.000 C 
ATOM      3  C   UNL     1       0.838  12.201  19.757  0.00  0.00    +0.000 C 
ATOM      4  C   UNL     1       0.625  10.946  20.469  0.00  0.00    +0.000 C 
ATOM      5  C   UNL     1      -0.035  11.056  21.640  0.00  0.00    +0.000 C 
ATOM      6  C   UNL     1      -0.517  12.492  22.159  0.00  0.00    +0.000 C 
ENDROOT
BRANCH   2   7
ATOM      7  C   UNL     1       2.756  13.799  20.158  0.00  0.00    +0.000 A 
ATOM      8  C   UNL     1       3.027  13.961  18.799  0.00  0.00    +0.000 A 
ATOM      9  C   UNL     1       4.245  14.525  18.376  0.00  0.00    +0.000 A 
ATOM     10  C   UNL     1       5.180  14.995  19.299  0.00  0.00    +0.000 A 
ATOM     11  C   UNL     1       4.864  14.982  20.644  0.00  0.00    +0.000 A 
ATOM     12  C   UNL     1       3.652  14.444  21.040  0.00  0.00    +0.000 A 
ATOM     13  F   UNL     1       3.341  14.587  22.339  0.00  0.00    +0.000 F 
ENDBRANCH   2   7
BRANCH   6  14
ATOM     14  C   UNL     1      -2.048  12.678  22.199  0.00  0.00    +0.000 A 
ATOM     15  C   UNL     1      -2.778  12.873  23.388  0.00  0.00    +0.000 A 
ATOM     16  C   UNL     1      -4.185  12.944  23.377  0.00  0.00    +0.000 A 
ATOM     17  C   UNL     1      -4.889  12.799  22.183  0.00  0.00    +0.000 A 
ATOM     18 CL   UNL     1      -6.610  12.787  22.185  0.00  0.00    +0.000 Cl
ATOM     19  C   UNL     1      -4.195  12.657  20.989  0.00  0.00    +0.000 A 
ATOM     20  C   UNL     1      -2.790  12.652  20.998  0.00  0.00    +0.000 A 
ENDBRANCH   6  14
BRANCH   1  21
ATOM     21  S   UNL     1      -0.296  15.176  20.774  0.00  0.00    +0.000 S 
ATOM     22  O   UNL     1      -1.126  14.759  19.663  0.00  0.00    +0.000 OA
ATOM     23  O   UNL     1       0.715  16.167  20.504  0.00  0.00    +0.000 OA
BRANCH  21  28
ATOM     24  C   UNL     1      -4.274  16.792  25.053  0.00  0.00    +0.000 C 
ATOM     25  C   UNL     1      -3.260  16.551  23.970  0.00  0.00    +0.000 A 
ATOM     26  C   UNL     1      -1.914  16.332  24.292  0.00  0.00    +0.000 A 
ATOM     27  C   UNL     1      -0.978  16.051  23.293  0.00  0.00    +0.000 A 
ATOM     28  C   UNL     1      -1.410  15.908  21.973  0.00  0.00    +0.000 A 
ATOM     29  C   UNL     1      -2.729  16.229  21.621  0.00  0.00    +0.000 A 
ATOM     30  C   UNL     1      -3.652  16.539  22.625  0.00  0.00    +0.000 A 
ENDBRANCH  21  28
ENDBRANCH   1  21
BRANCH   5  31
ATOM     31  C   UNL     1      -0.045   9.724  22.328  0.00  0.00    +0.000 C 
ATOM     32  O   UNL     1       0.119   8.665  21.726  0.00  0.00    +0.000 OA
BRANCH  31  33
ATOM     33  O   UNL     1      -0.256   9.741  23.655  0.00  0.00    +0.000 OA
ATOM     34  H   UNL     1      -0.049   8.937  24.141  0.00  0.00    +0.000 HD
ENDBRANCH  31  33
ENDBRANCH   5  31
TORSDOF 6
ENDMDL
MODEL 9
REMARK VINA RESULT:      -5.8      3.027      6.846
REMARK  Name = 
REMARK  7 active torsions:
REMARK  status: ('A' for Active; 'I' for Inactive)
REMARK    1  A    between atoms: C_1  and  C_2
REMARK    2  A    between atoms: C_5  and  S_6
REMARK    3  A    between atoms: S_6  and  N_9
REMARK    4  A    between atoms: C_10  and  C_11
REMARK    5  A    between atoms: C_20  and  C_21
REMARK    6  A    between atoms: C_21  and  O_23
REMARK    7  A    between atoms: C_24  and  C_25
REMARK                            x       y       z     vdW  Elec       q    Type
REMARK                         _______ _______ _______ _____ _____    ______ ____
ROOT
ATOM      1  N   UNL     1      -1.625  13.624  20.495  0.00  0.00    +0.000 NA
ATOM      2  C   UNL     1      -0.567  13.303  19.456  0.00  0.00    +0.000 C 
ATOM      3  C   UNL     1       0.616  14.182  19.934  0.00  0.00    +0.000 C 
ATOM      4  C   UNL     1       0.393  15.479  19.303  0.00  0.00    +0.000 C 
ATOM      5  C   UNL     1      -0.814  16.031  19.539  0.00  0.00    +0.000 C 
ATOM      6  C   UNL     1      -1.885  15.264  20.450  0.00  0.00    +0.000 C 
ENDROOT
BRANCH   2   7
ATOM      7  C   UNL     1      -0.079  11.951  18.969  0.00  0.00    +0.000 A 
ATOM      8  C   UNL     1       1.198  11.411  19.113  0.00  0.00    +0.000 A 
ATOM      9  C   UNL     1       1.526  10.182  18.512  0.00  0.00    +0.000 A 
ATOM     10  C   UNL     1       0.568   9.443  17.815  0.00  0.00    +0.000 A 
ATOM     11  C   UNL     1      -0.739   9.888  17.792  0.00  0.00    +0.000 A 
ATOM     12  C   UNL     1      -1.048  11.088  18.409  0.00  0.00    +0.000 A 
ATOM     13  F   UNL     1      -2.353  11.398  18.474  0.00  0.00    +0.000 F 
ENDBRANCH   2   7
BRANCH   6  14
ATOM     14  C   UNL     1      -2.197  15.957  21.792  0.00  0.00    +0.000 A 
ATOM     15  C   UNL     1      -3.486  16.010  22.360  0.00  0.00    +0.000 A 
ATOM     16  C   UNL     1      -3.733  16.735  23.542  0.00  0.00    +0.000 A 
ATOM     17  C   UNL     1      -2.705  17.439  24.165  0.00  0.00    +0.000 A 
ATOM     18 CL   UNL     1      -3.029  18.405  25.552  0.00  0.00    +0.000 Cl
ATOM     19  C   UNL     1      -1.415  17.364  23.658  0.00  0.00    +0.000 A 
ATOM     20  C   UNL     1      -1.161  16.585  22.517  0.00  0.00    +0.000 A 
ENDBRANCH   6  14
BRANCH   1  21
ATOM     21  S   UNL     1      -1.566  12.653  21.951  0.00  0.00    +0.000 S 
ATOM     22  O   UNL     1      -0.805  13.385  22.941  0.00  0.00    +0.000 OA
ATOM     23  O   UNL     1      -1.161  11.296  21.681  0.00  0.00    +0.000 OA
BRANCH  21  28
ATOM     24  C   UNL     1      -7.205  13.253  24.091  0.00  0.00    +0.000 C 
ATOM     25  C   UNL     1      -5.832  12.943  23.564  0.00  0.00    +0.000 A 
ATOM     26  C   UNL     1      -5.593  12.901  22.184  0.00  0.00    +0.000 A 
ATOM     27  C   UNL     1      -4.306  12.668  21.691  0.00  0.00    +0.000 A 
ATOM     28  C   UNL     1      -3.240  12.561  22.585  0.00  0.00    +0.000 A 
ATOM     29  C   UNL     1      -3.479  12.493  23.966  0.00  0.00    +0.000 A 
ATOM     30  C   UNL     1      -4.775  12.697  24.450  0.00  0.00    +0.000 A 
ENDBRANCH  21  28
ENDBRANCH   1  21
BRANCH   5  31
ATOM     31  C   UNL     1      -0.959  17.273  18.712  0.00  0.00    +0.000 C 
ATOM     32  O   UNL     1      -1.983  17.951  18.707  0.00  0.00    +0.000 OA
BRANCH  31  33
ATOM     33  O   UNL     1       0.098  17.609  17.953  0.00  0.00    +0.000 OA
ATOM     34  H   UNL     1       0.109  17.280  17.048  0.00  0.00    +0.000 HD
ENDBRANCH  31  33
ENDBRANCH   5  31
TORSDOF 6
ENDMDL
