MODEL 1
REMARK VINA RESULT:      -7.4      0.000      0.000
REMARK  Name = 
REMARK  16 active torsions:
REMARK  status: ('A' for Active; 'I' for Inactive)
REMARK    1  A    between atoms: C_1  and  C_2
REMARK    2  A    between atoms: C_2  and  O_3
REMARK    3  A    between atoms: O_3  and  C_4
REMARK    4  A    between atoms: C_9  and  C_10
REMARK    5  A    between atoms: C_10  and  C_11
REMARK    6  A    between atoms: C_10  and  N_18
REMARK    7  A    between atoms: N_13  and  C_14
REMARK    8  A    between atoms: C_14  and  C_15
REMARK    9  A    between atoms: C_15  and  O_16
REMARK   10  A    between atoms: O_16  and  C_17
REMARK   11  A    between atoms: N_18  and  C_19
REMARK   12  A    between atoms: C_19  and  C_20
REMARK   13  A    between atoms: C_20  and  O_21
REMARK   14  A    between atoms: O_21  and  C_22
REMARK   15  A    between atoms: C_23  and  C_25
REMARK   16  A    between atoms: C_25  and  N_26
REMARK                            x       y       z     vdW  Elec       q    Type
REMARK                         _______ _______ _______ _____ _____    ______ ____
ROOT
ATOM      1  C   UNL     1       0.379  10.642  18.743  0.00  0.00    +0.000 C 
ENDROOT
BRANCH   1   7
ATOM      2  C   UNL     1      -2.144  11.605  19.039  0.00  0.00    +0.000 A 
ATOM      3  C   UNL     1      -3.436  11.642  18.468  0.00  0.00    +0.000 A 
ATOM      4  C   UNL     1      -3.783  10.846  17.381  0.00  0.00    +0.000 A 
ATOM      5  C   UNL     1      -2.875   9.942  16.879  0.00  0.00    +0.000 A 
ATOM      6  C   UNL     1      -1.611   9.854  17.453  0.00  0.00    +0.000 A 
ATOM      7  C   UNL     1      -1.171  10.685  18.508  0.00  0.00    +0.000 A 
BRANCH   2   8
ATOM      8  O   UNL     1      -1.848  12.423  20.111  0.00  0.00    +0.000 OA
BRANCH   8  10
ATOM      9  C   UNL     1      -3.625  12.715  21.864  0.00  0.00    +0.000 C 
ATOM     10  C   UNL     1      -2.853  13.303  20.681  0.00  0.00    +0.000 C 
ENDBRANCH   8  10
ENDBRANCH   2   8
ENDBRANCH   1   7
BRANCH   1  11
ATOM     11  C   UNL     1       1.207  11.898  19.145  0.00  0.00    +0.000 C 
ATOM     12  O   UNL     1       1.382  12.204  20.325  0.00  0.00    +0.000 OA
ATOM     13  N   UNL     1       1.833  12.583  18.143  0.00  0.00    +0.000 N 
ATOM     14  H   UNL     1       1.550  12.374  17.190  0.00  0.00    +0.000 HD
BRANCH  13  15
ATOM     15  C   UNL     1       2.607  13.796  18.315  0.00  0.00    +0.000 C 
BRANCH  15  16
ATOM     16  C   UNL     1       1.684  14.969  18.661  0.00  0.00    +0.000 C 
BRANCH  16  17
ATOM     17  O   UNL     1       2.481  16.156  18.750  0.00  0.00    +0.000 OA
ATOM     18  C   UNL     1       3.051  16.535  17.508  0.00  0.00    +0.000 C 
ENDBRANCH  16  17
ENDBRANCH  15  16
ENDBRANCH  13  15
ENDBRANCH   1  11
BRANCH   1  19
ATOM     19  N   UNL     1       0.908   9.469  19.631  0.00  0.00    +0.000 N 
ATOM     20  C   UNL     1       1.845   8.584  19.074  0.00  0.00    +0.000 C 
ATOM     21  O   UNL     1       2.314   8.829  17.949  0.00  0.00    +0.000 OA
BRANCH  19  22
ATOM     22  C   UNL     1       0.228   9.269  20.939  0.00  0.00    +0.000 C 
BRANCH  22  23
ATOM     23  C   UNL     1       1.098   9.431  22.214  0.00  0.00    +0.000 C 
BRANCH  23  24
ATOM     24  O   UNL     1       0.313   9.837  23.328  0.00  0.00    +0.000 OA
ATOM     25  C   UNL     1      -0.867  10.554  23.033  0.00  0.00    +0.000 C 
ENDBRANCH  23  24
ENDBRANCH  22  23
ENDBRANCH  19  22
BRANCH  20  26
ATOM     26  C   UNL     1       2.231   7.234  19.706  0.00  0.00    +0.000 C 
BRANCH  26  27
ATOM     27  N   UNL     1       2.677   6.169  18.823  0.00  0.00    +0.000 N 
ATOM     28  N   UNL     1       3.856   6.380  18.197  0.00  0.00    +0.000 NA
ATOM     29  N   UNL     1       4.142   5.308  17.474  0.00  0.00    +0.000 NA
ATOM     30  C   UNL     1       3.236   4.348  17.781  0.00  0.00    +0.000 A 
ATOM     31  C   UNL     1       3.177   3.014  17.321  0.00  0.00    +0.000 A 
ATOM     32  C   UNL     1       2.197   2.165  17.840  0.00  0.00    +0.000 A 
ATOM     33  C   UNL     1       1.294   2.650  18.794  0.00  0.00    +0.000 A 
ATOM     34  C   UNL     1       1.321   3.982  19.239  0.00  0.00    +0.000 A 
ATOM     35  C   UNL     1       2.302   4.836  18.700  0.00  0.00    +0.000 A 
ENDBRANCH  26  27
ENDBRANCH  20  26
ENDBRANCH   1  19
TORSDOF 13
ENDMDL
MODEL 2
REMARK VINA RESULT:      -6.9      1.074      1.244
REMARK  Name = 
REMARK  16 active torsions:
REMARK  status: ('A' for Active; 'I' for Inactive)
REMARK    1  A    between atoms: C_1  and  C_2
REMARK    2  A    between atoms: C_2  and  O_3
REMARK    3  A    between atoms: O_3  and  C_4
REMARK    4  A    between atoms: C_9  and  C_10
REMARK    5  A    between atoms: C_10  and  C_11
REMARK    6  A    between atoms: C_10  and  N_18
REMARK    7  A    between atoms: N_13  and  C_14
REMARK    8  A    between atoms: C_14  and  C_15
REMARK    9  A    between atoms: C_15  and  O_16
REMARK   10  A    between atoms: O_16  and  C_17
REMARK   11  A    between atoms: N_18  and  C_19
REMARK   12  A    between atoms: C_19  and  C_20
REMARK   13  A    between atoms: C_20  and  O_21
REMARK   14  A    between atoms: O_21  and  C_22
REMARK   15  A    between atoms: C_23  and  C_25
REMARK   16  A    between atoms: C_25  and  N_26
REMARK                            x       y       z     vdW  Elec       q    Type
REMARK                         _______ _______ _______ _____ _____    ______ ____
ROOT
ATOM      1  C   UNL     1      -0.084  11.036  18.205  0.00  0.00    +0.000 C 
ENDROOT
BRANCH   1   7
ATOM      2  C   UNL     1      -2.683  11.540  18.813  0.00  0.00    +0.000 A 
ATOM      3  C   UNL     1      -4.009  11.488  18.327  0.00  0.00    +0.000 A 
ATOM      4  C   UNL     1      -4.329  10.865  17.125  0.00  0.00    +0.000 A 
ATOM      5  C   UNL     1      -3.349  10.216  16.410  0.00  0.00    +0.000 A 
ATOM      6  C   UNL     1      -2.043  10.213  16.891  0.00  0.00    +0.000 A 
ATOM      7  C   UNL     1      -1.638  10.890  18.063  0.00  0.00    +0.000 A 
BRANCH   2   8
ATOM      8  O   UNL     1      -2.417  12.179  20.007  0.00  0.00    +0.000 OA
BRANCH   8  10
ATOM      9  C   UNL     1      -4.038  12.761  21.838  0.00  0.00    +0.000 C 
ATOM     10  C   UNL     1      -3.332  13.172  20.544  0.00  0.00    +0.000 C 
ENDBRANCH   8  10
ENDBRANCH   2   8
ENDBRANCH   1   7
BRANCH   1  11
ATOM     11  C   UNL     1       0.615  12.402  18.468  0.00  0.00    +0.000 C 
ATOM     12  O   UNL     1       0.025  13.333  19.019  0.00  0.00    +0.000 OA
ATOM     13  N   UNL     1       1.945  12.494  18.171  0.00  0.00    +0.000 N 
ATOM     14  H   UNL     1       2.346  11.756  17.601  0.00  0.00    +0.000 HD
BRANCH  13  15
ATOM     15  C   UNL     1       2.753  13.691  18.305  0.00  0.00    +0.000 C 
BRANCH  15  16
ATOM     16  C   UNL     1       3.182  13.880  19.763  0.00  0.00    +0.000 C 
BRANCH  16  17
ATOM     17  O   UNL     1       2.597  15.094  20.249  0.00  0.00    +0.000 OA
ATOM     18  C   UNL     1       2.014  14.951  21.534  0.00  0.00    +0.000 C 
ENDBRANCH  16  17
ENDBRANCH  15  16
ENDBRANCH  13  15
ENDBRANCH   1  11
BRANCH   1  19
ATOM     19  N   UNL     1       0.624   9.998  19.137  0.00  0.00    +0.000 N 
ATOM     20  C   UNL     1       1.565   9.126  18.567  0.00  0.00    +0.000 C 
ATOM     21  O   UNL     1       1.895   9.286  17.380  0.00  0.00    +0.000 OA
BRANCH  19  22
ATOM     22  C   UNL     1       0.099   9.889  20.524  0.00  0.00    +0.000 C 
BRANCH  22  23
ATOM     23  C   UNL     1       0.560  10.972  21.537  0.00  0.00    +0.000 C 
BRANCH  23  24
ATOM     24  O   UNL     1      -0.067  10.798  22.801  0.00  0.00    +0.000 OA
ATOM     25  C   UNL     1      -0.140   9.474  23.287  0.00  0.00    +0.000 C 
ENDBRANCH  23  24
ENDBRANCH  22  23
ENDBRANCH  19  22
BRANCH  20  26
ATOM     26  C   UNL     1       2.117   7.877  19.278  0.00  0.00    +0.000 C 
BRANCH  26  27
ATOM     27  N   UNL     1       2.707   6.830  18.461  0.00  0.00    +0.000 N 
ATOM     28  N   UNL     1       3.910   7.118  17.917  0.00  0.00    +0.000 NA
ATOM     29  N   UNL     1       4.330   6.055  17.248  0.00  0.00    +0.000 NA
ATOM     30  C   UNL     1       3.478   5.035  17.513  0.00  0.00    +0.000 A 
ATOM     31  C   UNL     1       3.553   3.691  17.087  0.00  0.00    +0.000 A 
ATOM     32  C   UNL     1       2.603   2.780  17.556  0.00  0.00    +0.000 A 
ATOM     33  C   UNL     1       1.597   3.216  18.427  0.00  0.00    +0.000 A 
ATOM     34  C   UNL     1       1.490   4.555  18.836  0.00  0.00    +0.000 A 
ATOM     35  C   UNL     1       2.443   5.470  18.347  0.00  0.00    +0.000 A 
ENDBRANCH  26  27
ENDBRANCH  20  26
ENDBRANCH   1  19
TORSDOF 13
ENDMDL
MODEL 3
REMARK VINA RESULT:      -6.9      1.328      1.908
REMARK  Name = 
REMARK  16 active torsions:
REMARK  status: ('A' for Active; 'I' for Inactive)
REMARK    1  A    between atoms: C_1  and  C_2
REMARK    2  A    between atoms: C_2  and  O_3
REMARK    3  A    between atoms: O_3  and  C_4
REMARK    4  A    between atoms: C_9  and  C_10
REMARK    5  A    between atoms: C_10  and  C_11
REMARK    6  A    between atoms: C_10  and  N_18
REMARK    7  A    between atoms: N_13  and  C_14
REMARK    8  A    between atoms: C_14  and  C_15
REMARK    9  A    between atoms: C_15  and  O_16
REMARK   10  A    between atoms: O_16  and  C_17
REMARK   11  A    between atoms: N_18  and  C_19
REMARK   12  A    between atoms: C_19  and  C_20
REMARK   13  A    between atoms: C_20  and  O_21
REMARK   14  A    between atoms: O_21  and  C_22
REMARK   15  A    between atoms: C_23  and  C_25
REMARK   16  A    between atoms: C_25  and  N_26
REMARK                            x       y       z     vdW  Elec       q    Type
REMARK                         _______ _______ _______ _____ _____    ______ ____
ROOT
ATOM      1  C   UNL     1       0.453  10.501  18.546  0.00  0.00    +0.000 C 
ENDROOT
BRANCH   1   7
ATOM      2  C   UNL     1      -2.049  11.469  18.971  0.00  0.00    +0.000 A 
ATOM      3  C   UNL     1      -3.365  11.519  18.459  0.00  0.00    +0.000 A 
ATOM      4  C   UNL     1      -3.765  10.743  17.376  0.00  0.00    +0.000 A 
ATOM      5  C   UNL     1      -2.884   9.844  16.819  0.00  0.00    +0.000 A 
ATOM      6  C   UNL     1      -1.596   9.742  17.334  0.00  0.00    +0.000 A 
ATOM      7  C   UNL     1      -1.105  10.554  18.382  0.00  0.00    +0.000 A 
BRANCH   2   8
ATOM      8  O   UNL     1      -1.702  12.267  20.042  0.00  0.00    +0.000 OA
BRANCH   8  10
ATOM      9  C   UNL     1      -2.627  12.991  22.264  0.00  0.00    +0.000 C 
ATOM     10  C   UNL     1      -2.699  13.062  20.737  0.00  0.00    +0.000 C 
ENDBRANCH   8  10
ENDBRANCH   2   8
ENDBRANCH   1   7
BRANCH   1  11
ATOM     11  C   UNL     1       1.309  11.757  18.885  0.00  0.00    +0.000 C 
ATOM     12  O   UNL     1       1.117  12.410  19.912  0.00  0.00    +0.000 OA
ATOM     13  N   UNL     1       2.360  12.041  18.061  0.00  0.00    +0.000 N 
ATOM     14  H   UNL     1       2.392  11.561  17.166  0.00  0.00    +0.000 HD
BRANCH  13  15
ATOM     15  C   UNL     1       3.238  13.187  18.188  0.00  0.00    +0.000 C 
BRANCH  15  16
ATOM     16  C   UNL     1       2.448  14.484  17.990  0.00  0.00    +0.000 C 
BRANCH  16  17
ATOM     17  O   UNL     1       3.317  15.453  17.392  0.00  0.00    +0.000 OA
ATOM     18  C   UNL     1       4.442  15.760  18.198  0.00  0.00    +0.000 C 
ENDBRANCH  16  17
ENDBRANCH  15  16
ENDBRANCH  13  15
ENDBRANCH   1  11
BRANCH   1  19
ATOM     19  N   UNL     1       1.014   9.340  19.431  0.00  0.00    +0.000 N 
ATOM     20  C   UNL     1       1.890   8.416  18.838  0.00  0.00    +0.000 C 
ATOM     21  O   UNL     1       2.287   8.619  17.678  0.00  0.00    +0.000 OA
BRANCH  19  22
ATOM     22  C   UNL     1       0.419   9.194  20.786  0.00  0.00    +0.000 C 
BRANCH  22  23
ATOM     23  C   UNL     1       1.383   9.338  21.995  0.00  0.00    +0.000 C 
BRANCH  23  24
ATOM     24  O   UNL     1       0.679   9.688  23.179  0.00  0.00    +0.000 OA
ATOM     25  C   UNL     1      -0.682  10.032  23.020  0.00  0.00    +0.000 C 
ENDBRANCH  23  24
ENDBRANCH  22  23
ENDBRANCH  19  22
BRANCH  20  26
ATOM     26  C   UNL     1       2.286   7.075  19.483  0.00  0.00    +0.000 C 
BRANCH  26  27
ATOM     27  N   UNL     1       2.844   6.044  18.625  0.00  0.00    +0.000 N 
ATOM     28  N   UNL     1       1.993   5.061  18.257  0.00  0.00    +0.000 NA
ATOM     29  N   UNL     1       2.636   4.235  17.446  0.00  0.00    +0.000 NA
ATOM     30  C   UNL     1       3.838   4.789  17.158  0.00  0.00    +0.000 A 
ATOM     31  C   UNL     1       4.839   4.316  16.281  0.00  0.00    +0.000 A 
ATOM     32  C   UNL     1       5.975   5.100  16.067  0.00  0.00    +0.000 A 
ATOM     33  C   UNL     1       6.103   6.328  16.727  0.00  0.00    +0.000 A 
ATOM     34  C   UNL     1       5.131   6.798  17.626  0.00  0.00    +0.000 A 
ATOM     35  C   UNL     1       3.996   5.995  17.847  0.00  0.00    +0.000 A 
ENDBRANCH  26  27
ENDBRANCH  20  26
ENDBRANCH   1  19
TORSDOF 13
ENDMDL
MODEL 4
REMARK VINA RESULT:      -6.9      1.449      1.664
REMARK  Name = 
REMARK  16 active torsions:
REMARK  status: ('A' for Active; 'I' for Inactive)
REMARK    1  A    between atoms: C_1  and  C_2
REMARK    2  A    between atoms: C_2  and  O_3
REMARK    3  A    between atoms: O_3  and  C_4
REMARK    4  A    between atoms: C_9  and  C_10
REMARK    5  A    between atoms: C_10  and  C_11
REMARK    6  A    between atoms: C_10  and  N_18
REMARK    7  A    between atoms: N_13  and  C_14
REMARK    8  A    between atoms: C_14  and  C_15
REMARK    9  A    between atoms: C_15  and  O_16
REMARK   10  A    between atoms: O_16  and  C_17
REMARK   11  A    between atoms: N_18  and  C_19
REMARK   12  A    between atoms: C_19  and  C_20
REMARK   13  A    between atoms: C_20  and  O_21
REMARK   14  A    between atoms: O_21  and  C_22
REMARK   15  A    between atoms: C_23  and  C_25
REMARK   16  A    between atoms: C_25  and  N_26
REMARK                            x       y       z     vdW  Elec       q    Type
REMARK                         _______ _______ _______ _____ _____    ______ ____
ROOT
ATOM      1  C   UNL     1      -0.282  11.025  18.443  0.00  0.00    +0.000 C 
ENDROOT
BRANCH   1   7
ATOM      2  C   UNL     1      -2.973  11.384  18.537  0.00  0.00    +0.000 A 
ATOM      3  C   UNL     1      -4.179  11.241  17.815  0.00  0.00    +0.000 A 
ATOM      4  C   UNL     1      -4.232  10.573  16.595  0.00  0.00    +0.000 A 
ATOM      5  C   UNL     1      -3.100   9.970  16.098  0.00  0.00    +0.000 A 
ATOM      6  C   UNL     1      -1.911  10.056  16.813  0.00  0.00    +0.000 A 
ATOM      7  C   UNL     1      -1.772  10.782  18.018  0.00  0.00    +0.000 A 
BRANCH   2   8
ATOM      8  O   UNL     1      -2.974  12.063  19.738  0.00  0.00    +0.000 OA
BRANCH   8  10
ATOM      9  C   UNL     1      -4.464  12.801  21.624  0.00  0.00    +0.000 C 
ATOM     10  C   UNL     1      -4.108  12.878  20.138  0.00  0.00    +0.000 C 
ENDBRANCH   8  10
ENDBRANCH   2   8
ENDBRANCH   1   7
BRANCH   1  11
ATOM     11  C   UNL     1       0.273  12.434  18.803  0.00  0.00    +0.000 C 
ATOM     12  O   UNL     1      -0.424  13.446  18.707  0.00  0.00    +0.000 OA
ATOM     13  N   UNL     1       1.527  12.496  19.342  0.00  0.00    +0.000 N 
ATOM     14  H   UNL     1       2.103  11.662  19.274  0.00  0.00    +0.000 HD
BRANCH  13  15
ATOM     15  C   UNL     1       2.227  13.714  19.697  0.00  0.00    +0.000 C 
BRANCH  15  16
ATOM     16  C   UNL     1       2.960  13.533  21.030  0.00  0.00    +0.000 C 
BRANCH  16  17
ATOM     17  O   UNL     1       2.271  14.294  22.029  0.00  0.00    +0.000 OA
ATOM     18  C   UNL     1       1.950  15.607  21.601  0.00  0.00    +0.000 C 
ENDBRANCH  16  17
ENDBRANCH  15  16
ENDBRANCH  13  15
ENDBRANCH   1  11
BRANCH   1  19
ATOM     19  N   UNL     1       0.299  10.042  19.511  0.00  0.00    +0.000 N 
ATOM     20  C   UNL     1       1.424   9.275  19.166  0.00  0.00    +0.000 C 
ATOM     21  O   UNL     1       1.991   9.489  18.082  0.00  0.00    +0.000 OA
BRANCH  19  22
ATOM     22  C   UNL     1      -0.507   9.855  20.746  0.00  0.00    +0.000 C 
BRANCH  22  23
ATOM     23  C   UNL     1       0.141  10.308  22.082  0.00  0.00    +0.000 C 
BRANCH  23  24
ATOM     24  O   UNL     1       0.300  11.720  22.127  0.00  0.00    +0.000 OA
ATOM     25  C   UNL     1      -0.853  12.470  22.452  0.00  0.00    +0.000 C 
ENDBRANCH  23  24
ENDBRANCH  22  23
ENDBRANCH  19  22
BRANCH  20  26
ATOM     26  C   UNL     1       1.924   8.071  19.985  0.00  0.00    +0.000 C 
BRANCH  26  27
ATOM     27  N   UNL     1       2.216   6.837  19.275  0.00  0.00    +0.000 N 
ATOM     28  N   UNL     1       3.161   6.923  18.312  0.00  0.00    +0.000 NA
ATOM     29  N   UNL     1       3.344   5.716  17.799  0.00  0.00    +0.000 NA
ATOM     30  C   UNL     1       2.646   4.834  18.554  0.00  0.00    +0.000 A 
ATOM     31  C   UNL     1       2.591   3.427  18.441  0.00  0.00    +0.000 A 
ATOM     32  C   UNL     1       1.868   2.702  19.391  0.00  0.00    +0.000 A 
ATOM     33  C   UNL     1       1.210   3.378  20.426  0.00  0.00    +0.000 A 
ATOM     34  C   UNL     1       1.230   4.779  20.535  0.00  0.00    +0.000 A 
ATOM     35  C   UNL     1       1.948   5.503  19.564  0.00  0.00    +0.000 A 
ENDBRANCH  26  27
ENDBRANCH  20  26
ENDBRANCH   1  19
TORSDOF 13
ENDMDL
MODEL 5
REMARK VINA RESULT:      -6.9      1.679      2.234
REMARK  Name = 
REMARK  16 active torsions:
REMARK  status: ('A' for Active; 'I' for Inactive)
REMARK    1  A    between atoms: C_1  and  C_2
REMARK    2  A    between atoms: C_2  and  O_3
REMARK    3  A    between atoms: O_3  and  C_4
REMARK    4  A    between atoms: C_9  and  C_10
REMARK    5  A    between atoms: C_10  and  C_11
REMARK    6  A    between atoms: C_10  and  N_18
REMARK    7  A    between atoms: N_13  and  C_14
REMARK    8  A    between atoms: C_14  and  C_15
REMARK    9  A    between atoms: C_15  and  O_16
REMARK   10  A    between atoms: O_16  and  C_17
REMARK   11  A    between atoms: N_18  and  C_19
REMARK   12  A    between atoms: C_19  and  C_20
REMARK   13  A    between atoms: C_20  and  O_21
REMARK   14  A    between atoms: O_21  and  C_22
REMARK   15  A    between atoms: C_23  and  C_25
REMARK   16  A    between atoms: C_25  and  N_26
REMARK                            x       y       z     vdW  Elec       q    Type
REMARK                         _______ _______ _______ _____ _____    ______ ____
ROOT
ATOM      1  C   UNL     1       0.783  10.462  18.562  0.00  0.00    +0.000 C 
ENDROOT
BRANCH   1   7
ATOM      2  C   UNL     1      -1.621  11.440  19.365  0.00  0.00    +0.000 A 
ATOM      3  C   UNL     1      -2.972  11.621  18.992  0.00  0.00    +0.000 A 
ATOM      4  C   UNL     1      -3.502  11.046  17.842  0.00  0.00    +0.000 A 
ATOM      5  C   UNL     1      -2.720  10.218  17.070  0.00  0.00    +0.000 A 
ATOM      6  C   UNL     1      -1.400   9.986  17.441  0.00  0.00    +0.000 A 
ATOM      7  C   UNL     1      -0.779  10.599  18.554  0.00  0.00    +0.000 A 
BRANCH   2   8
ATOM      8  O   UNL     1      -1.143  12.041  20.512  0.00  0.00    +0.000 OA
BRANCH   8  10
ATOM      9  C   UNL     1      -2.480  12.346  22.618  0.00  0.00    +0.000 C 
ATOM     10  C   UNL     1      -1.981  12.932  21.296  0.00  0.00    +0.000 C 
ENDBRANCH   8  10
ENDBRANCH   2   8
ENDBRANCH   1   7
BRANCH   1  11
ATOM     11  C   UNL     1       1.735  11.677  18.768  0.00  0.00    +0.000 C 
ATOM     12  O   UNL     1       2.541  12.018  17.901  0.00  0.00    +0.000 OA
ATOM     13  N   UNL     1       1.563  12.425  19.897  0.00  0.00    +0.000 N 
ATOM     14  H   UNL     1       0.986  12.028  20.633  0.00  0.00    +0.000 HD
BRANCH  13  15
ATOM     15  C   UNL     1       2.377  13.560  20.283  0.00  0.00    +0.000 C 
BRANCH  15  16
ATOM     16  C   UNL     1       1.664  14.868  19.927  0.00  0.00    +0.000 C 
BRANCH  16  17
ATOM     17  O   UNL     1       0.800  15.218  21.015  0.00  0.00    +0.000 OA
ATOM     18  C   UNL     1       0.484  16.600  21.048  0.00  0.00    +0.000 C 
ENDBRANCH  16  17
ENDBRANCH  15  16
ENDBRANCH  13  15
ENDBRANCH   1  11
BRANCH   1  19
ATOM     19  N   UNL     1       1.368   9.298  19.427  0.00  0.00    +0.000 N 
ATOM     20  C   UNL     1       2.060   8.267  18.772  0.00  0.00    +0.000 C 
ATOM     21  O   UNL     1       2.292   8.372  17.556  0.00  0.00    +0.000 OA
BRANCH  19  22
ATOM     22  C   UNL     1       0.976   9.278  20.861  0.00  0.00    +0.000 C 
BRANCH  22  23
ATOM     23  C   UNL     1      -0.255   8.410  21.240  0.00  0.00    +0.000 C 
BRANCH  23  24
ATOM     24  O   UNL     1      -0.765   8.767  22.518  0.00  0.00    +0.000 OA
ATOM     25  C   UNL     1       0.042   9.625  23.298  0.00  0.00    +0.000 C 
ENDBRANCH  23  24
ENDBRANCH  22  23
ENDBRANCH  19  22
BRANCH  20  26
ATOM     26  C   UNL     1       2.431   6.928  19.436  0.00  0.00    +0.000 C 
BRANCH  26  27
ATOM     27  N   UNL     1       2.942   5.864  18.587  0.00  0.00    +0.000 N 
ATOM     28  N   UNL     1       2.048   4.917  18.229  0.00  0.00    +0.000 NA
ATOM     29  N   UNL     1       2.653   4.055  17.426  0.00  0.00    +0.000 NA
ATOM     30  C   UNL     1       3.879   4.552  17.133  0.00  0.00    +0.000 A 
ATOM     31  C   UNL     1       4.856   4.026  16.260  0.00  0.00    +0.000 A 
ATOM     32  C   UNL     1       6.027   4.757  16.039  0.00  0.00    +0.000 A 
ATOM     33  C   UNL     1       6.210   5.984  16.687  0.00  0.00    +0.000 A 
ATOM     34  C   UNL     1       5.260   6.506  17.581  0.00  0.00    +0.000 A 
ATOM     35  C   UNL     1       4.091   5.756  17.810  0.00  0.00    +0.000 A 
ENDBRANCH  26  27
ENDBRANCH  20  26
ENDBRANCH   1  19
TORSDOF 13
ENDMDL
MODEL 6
REMARK VINA RESULT:      -6.9      3.173      9.403
REMARK  Name = 
REMARK  16 active torsions:
REMARK  status: ('A' for Active; 'I' for Inactive)
REMARK    1  A    between atoms: C_1  and  C_2
REMARK    2  A    between atoms: C_2  and  O_3
REMARK    3  A    between atoms: O_3  and  C_4
REMARK    4  A    between atoms: C_9  and  C_10
REMARK    5  A    between atoms: C_10  and  C_11
REMARK    6  A    between atoms: C_10  and  N_18
REMARK    7  A    between atoms: N_13  and  C_14
REMARK    8  A    between atoms: C_14  and  C_15
REMARK    9  A    between atoms: C_15  and  O_16
REMARK   10  A    between atoms: O_16  and  C_17
REMARK   11  A    between atoms: N_18  and  C_19
REMARK   12  A    between atoms: C_19  and  C_20
REMARK   13  A    between atoms: C_20  and  O_21
REMARK   14  A    between atoms: O_21  and  C_22
REMARK   15  A    between atoms: C_23  and  C_25
REMARK   16  A    between atoms: C_25  and  N_26
REMARK                            x       y       z     vdW  Elec       q    Type
REMARK                         _______ _______ _______ _____ _____    ______ ____
ROOT
ATOM      1  C   UNL     1       3.629   5.566  17.839  0.00  0.00    +0.000 C 
ENDROOT
BRANCH   1   7
ATOM      2  C   UNL     1       6.019   6.498  16.946  0.00  0.00    +0.000 A 
ATOM      3  C   UNL     1       7.337   6.834  17.326  0.00  0.00    +0.000 A 
ATOM      4  C   UNL     1       7.835   6.545  18.593  0.00  0.00    +0.000 A 
ATOM      5  C   UNL     1       7.056   5.851  19.490  0.00  0.00    +0.000 A 
ATOM      6  C   UNL     1       5.770   5.468  19.123  0.00  0.00    +0.000 A 
ATOM      7  C   UNL     1       5.179   5.796  17.882  0.00  0.00    +0.000 A 
BRANCH   2   8
ATOM      8  O   UNL     1       5.572   6.815  15.680  0.00  0.00    +0.000 OA
BRANCH   8  10
ATOM      9  C   UNL     1       6.119   4.482  14.920  0.00  0.00    +0.000 C 
ATOM     10  C   UNL     1       5.345   5.781  14.684  0.00  0.00    +0.000 C 
ENDBRANCH   8  10
ENDBRANCH   2   8
ENDBRANCH   1   7
BRANCH   1  11
ATOM     11  C   UNL     1       2.988   4.158  17.666  0.00  0.00    +0.000 C 
ATOM     12  O   UNL     1       1.840   4.019  17.240  0.00  0.00    +0.000 OA
ATOM     13  N   UNL     1       3.787   3.073  17.893  0.00  0.00    +0.000 N 
ATOM     14  H   UNL     1       4.669   3.238  18.367  0.00  0.00    +0.000 HD
BRANCH  13  15
ATOM     15  C   UNL     1       3.360   1.690  17.827  0.00  0.00    +0.000 C 
BRANCH  15  16
ATOM     16  C   UNL     1       3.823   0.933  19.075  0.00  0.00    +0.000 C 
BRANCH  16  17
ATOM     17  O   UNL     1       4.730   1.772  19.799  0.00  0.00    +0.000 OA
ATOM     18  C   UNL     1       5.263   1.145  20.953  0.00  0.00    +0.000 C 
ENDBRANCH  16  17
ENDBRANCH  15  16
ENDBRANCH  13  15
ENDBRANCH   1  11
BRANCH   1  19
ATOM     19  N   UNL     1       2.794   6.292  18.945  0.00  0.00    +0.000 N 
ATOM     20  C   UNL     1       2.439   7.634  18.737  0.00  0.00    +0.000 C 
ATOM     21  O   UNL     1       2.687   8.161  17.640  0.00  0.00    +0.000 OA
BRANCH  19  22
ATOM     22  C   UNL     1       2.607   5.554  20.223  0.00  0.00    +0.000 C 
BRANCH  22  23
ATOM     23  C   UNL     1       1.171   5.061  20.546  0.00  0.00    +0.000 C 
BRANCH  23  24
ATOM     24  O   UNL     1       1.144   3.658  20.770  0.00  0.00    +0.000 OA
ATOM     25  C   UNL     1       2.164   3.136  21.597  0.00  0.00    +0.000 C 
ENDBRANCH  23  24
ENDBRANCH  22  23
ENDBRANCH  19  22
BRANCH  20  26
ATOM     26  C   UNL     1       1.886   8.555  19.840  0.00  0.00    +0.000 C 
BRANCH  26  27
ATOM     27  N   UNL     1       0.937   9.587  19.455  0.00  0.00    +0.000 N 
ATOM     28  N   UNL     1      -0.341   9.384  19.843  0.00  0.00    +0.000 NA
ATOM     29  N   UNL     1      -1.063  10.426  19.461  0.00  0.00    +0.000 NA
ATOM     30  C   UNL     1      -0.212  11.369  18.989  0.00  0.00    +0.000 A 
ATOM     31  C   UNL     1      -0.507  12.674  18.537  0.00  0.00    +0.000 A 
ATOM     32  C   UNL     1       0.547  13.515  18.172  0.00  0.00    +0.000 A 
ATOM     33  C   UNL     1       1.865  13.050  18.254  0.00  0.00    +0.000 A 
ATOM     34  C   UNL     1       2.172  11.745  18.672  0.00  0.00    +0.000 A 
ATOM     35  C   UNL     1       1.103  10.898  19.023  0.00  0.00    +0.000 A 
ENDBRANCH  26  27
ENDBRANCH  20  26
ENDBRANCH   1  19
TORSDOF 13
ENDMDL
MODEL 7
REMARK VINA RESULT:      -6.8      1.295      1.454
REMARK  Name = 
REMARK  16 active torsions:
REMARK  status: ('A' for Active; 'I' for Inactive)
REMARK    1  A    between atoms: C_1  and  C_2
REMARK    2  A    between atoms: C_2  and  O_3
REMARK    3  A    between atoms: O_3  and  C_4
REMARK    4  A    between atoms: C_9  and  C_10
REMARK    5  A    between atoms: C_10  and  C_11
REMARK    6  A    between atoms: C_10  and  N_18
REMARK    7  A    between atoms: N_13  and  C_14
REMARK    8  A    between atoms: C_14  and  C_15
REMARK    9  A    between atoms: C_15  and  O_16
REMARK   10  A    between atoms: O_16  and  C_17
REMARK   11  A    between atoms: N_18  and  C_19
REMARK   12  A    between atoms: C_19  and  C_20
REMARK   13  A    between atoms: C_20  and  O_21
REMARK   14  A    between atoms: O_21  and  C_22
REMARK   15  A    between atoms: C_23  and  C_25
REMARK   16  A    between atoms: C_25  and  N_26
REMARK                            x       y       z     vdW  Elec       q    Type
REMARK                         _______ _______ _______ _____ _____    ______ ____
ROOT
ATOM      1  C   UNL     1       0.714  10.634  18.589  0.00  0.00    +0.000 C 
ENDROOT
BRANCH   1   7
ATOM      2  C   UNL     1      -1.777  11.646  18.969  0.00  0.00    +0.000 A 
ATOM      3  C   UNL     1      -3.100  11.664  18.473  0.00  0.00    +0.000 A 
ATOM      4  C   UNL     1      -3.518  10.808  17.459  0.00  0.00    +0.000 A 
ATOM      5  C   UNL     1      -2.649   9.864  16.962  0.00  0.00    +0.000 A 
ATOM      6  C   UNL     1      -1.355   9.795  17.466  0.00  0.00    +0.000 A 
ATOM      7  C   UNL     1      -0.846  10.683  18.441  0.00  0.00    +0.000 A 
BRANCH   2   8
ATOM      8  O   UNL     1      -1.412  12.523  19.970  0.00  0.00    +0.000 OA
BRANCH   8  10
ATOM      9  C   UNL     1      -2.699  14.368  21.093  0.00  0.00    +0.000 C 
ATOM     10  C   UNL     1      -2.341  12.882  21.028  0.00  0.00    +0.000 C 
ENDBRANCH   8  10
ENDBRANCH   2   8
ENDBRANCH   1   7
BRANCH   1  11
ATOM     11  C   UNL     1       1.576  11.901  18.863  0.00  0.00    +0.000 C 
ATOM     12  O   UNL     1       2.305  12.386  17.996  0.00  0.00    +0.000 OA
ATOM     13  N   UNL     1       1.406  12.527  20.065  0.00  0.00    +0.000 N 
ATOM     14  H   UNL     1       0.904  12.019  20.786  0.00  0.00    +0.000 HD
BRANCH  13  15
ATOM     15  C   UNL     1       2.147  13.688  20.517  0.00  0.00    +0.000 C 
BRANCH  15  16
ATOM     16  C   UNL     1       1.332  14.466  21.554  0.00  0.00    +0.000 C 
BRANCH  16  17
ATOM     17  O   UNL     1       1.831  15.808  21.604  0.00  0.00    +0.000 OA
ATOM     18  C   UNL     1       0.886  16.731  22.119  0.00  0.00    +0.000 C 
ENDBRANCH  16  17
ENDBRANCH  15  16
ENDBRANCH  13  15
ENDBRANCH   1  11
BRANCH   1  19
ATOM     19  N   UNL     1       1.284   9.511  19.515  0.00  0.00    +0.000 N 
ATOM     20  C   UNL     1       1.930   8.418  18.915  0.00  0.00    +0.000 C 
ATOM     21  O   UNL     1       2.137   8.437  17.690  0.00  0.00    +0.000 OA
BRANCH  19  22
ATOM     22  C   UNL     1       0.924   9.595  20.956  0.00  0.00    +0.000 C 
BRANCH  22  23
ATOM     23  C   UNL     1      -0.358   8.844  21.404  0.00  0.00    +0.000 C 
BRANCH  23  24
ATOM     24  O   UNL     1      -0.614   9.039  22.789  0.00  0.00    +0.000 OA
ATOM     25  C   UNL     1      -0.898  10.363  23.193  0.00  0.00    +0.000 C 
ENDBRANCH  23  24
ENDBRANCH  22  23
ENDBRANCH  19  22
BRANCH  20  26
ATOM     26  C   UNL     1       2.275   7.113  19.656  0.00  0.00    +0.000 C 
BRANCH  26  27
ATOM     27  N   UNL     1       2.853   6.023  18.888  0.00  0.00    +0.000 N 
ATOM     28  N   UNL     1       4.147   6.178  18.530  0.00  0.00    +0.000 NA
ATOM     29  N   UNL     1       4.533   5.089  17.884  0.00  0.00    +0.000 NA
ATOM     30  C   UNL     1       3.540   4.172  17.986  0.00  0.00    +0.000 A 
ATOM     31  C   UNL     1       3.522   2.839  17.521  0.00  0.00    +0.000 A 
ATOM     32  C   UNL     1       2.416   2.037  17.815  0.00  0.00    +0.000 A 
ATOM     33  C   UNL     1       1.352   2.569  18.553  0.00  0.00    +0.000 A 
ATOM     34  C   UNL     1       1.342   3.902  18.997  0.00  0.00    +0.000 A 
ATOM     35  C   UNL     1       2.454   4.707  18.683  0.00  0.00    +0.000 A 
ENDBRANCH  26  27
ENDBRANCH  20  26
ENDBRANCH   1  19
TORSDOF 13
ENDMDL
MODEL 8
REMARK VINA RESULT:      -6.6      3.230      9.361
REMARK  Name = 
REMARK  16 active torsions:
REMARK  status: ('A' for Active; 'I' for Inactive)
REMARK    1  A    between atoms: C_1  and  C_2
REMARK    2  A    between atoms: C_2  and  O_3
REMARK    3  A    between atoms: O_3  and  C_4
REMARK    4  A    between atoms: C_9  and  C_10
REMARK    5  A    between atoms: C_10  and  C_11
REMARK    6  A    between atoms: C_10  and  N_18
REMARK    7  A    between atoms: N_13  and  C_14
REMARK    8  A    between atoms: C_14  and  C_15
REMARK    9  A    between atoms: C_15  and  O_16
REMARK   10  A    between atoms: O_16  and  C_17
REMARK   11  A    between atoms: N_18  and  C_19
REMARK   12  A    between atoms: C_19  and  C_20
REMARK   13  A    between atoms: C_20  and  O_21
REMARK   14  A    between atoms: O_21  and  C_22
REMARK   15  A    between atoms: C_23  and  C_25
REMARK   16  A    between atoms: C_25  and  N_26
REMARK                            x       y       z     vdW  Elec       q    Type
REMARK                         _______ _______ _______ _____ _____    ______ ____
ROOT
ATOM      1  C   UNL     1       3.497   5.485  17.929  0.00  0.00    +0.000 C 
ENDROOT
BRANCH   1   7
ATOM      2  C   UNL     1       5.873   6.338  16.926  0.00  0.00    +0.000 A 
ATOM      3  C   UNL     1       7.209   6.664  17.252  0.00  0.00    +0.000 A 
ATOM      4  C   UNL     1       7.742   6.413  18.513  0.00  0.00    +0.000 A 
ATOM      5  C   UNL     1       6.980   5.767  19.459  0.00  0.00    +0.000 A 
ATOM      6  C   UNL     1       5.677   5.394  19.148  0.00  0.00    +0.000 A 
ATOM      7  C   UNL     1       5.052   5.687  17.914  0.00  0.00    +0.000 A 
BRANCH   2   8
ATOM      8  O   UNL     1       5.391   6.617  15.664  0.00  0.00    +0.000 OA
BRANCH   8  10
ATOM      9  C   UNL     1       5.486   4.243  14.839  0.00  0.00    +0.000 C 
ATOM     10  C   UNL     1       5.670   5.734  14.544  0.00  0.00    +0.000 C 
ENDBRANCH   8  10
ENDBRANCH   2   8
ENDBRANCH   1   7
BRANCH   1  11
ATOM     11  C   UNL     1       2.826   4.091  17.752  0.00  0.00    +0.000 C 
ATOM     12  O   UNL     1       1.755   3.962  17.156  0.00  0.00    +0.000 OA
ATOM     13  N   UNL     1       3.525   2.999  18.180  0.00  0.00    +0.000 N 
ATOM     14  H   UNL     1       4.327   3.167  18.779  0.00  0.00    +0.000 HD
BRANCH  13  15
ATOM     15  C   UNL     1       3.047   1.631  18.142  0.00  0.00    +0.000 C 
BRANCH  15  16
ATOM     16  C   UNL     1       3.962   0.727  18.974  0.00  0.00    +0.000 C 
BRANCH  16  17
ATOM     17  O   UNL     1       4.922   1.554  19.643  0.00  0.00    +0.000 OA
ATOM     18  C   UNL     1       4.950   1.346  21.045  0.00  0.00    +0.000 C 
ENDBRANCH  16  17
ENDBRANCH  15  16
ENDBRANCH  13  15
ENDBRANCH   1  11
BRANCH   1  19
ATOM     19  N   UNL     1       2.720   6.200  19.083  0.00  0.00    +0.000 N 
ATOM     20  C   UNL     1       2.386   7.554  18.919  0.00  0.00    +0.000 C 
ATOM     21  O   UNL     1       2.604   8.102  17.825  0.00  0.00    +0.000 OA
BRANCH  19  22
ATOM     22  C   UNL     1       2.567   5.436  20.349  0.00  0.00    +0.000 C 
BRANCH  22  23
ATOM     23  C   UNL     1       1.162   4.844  20.646  0.00  0.00    +0.000 C 
BRANCH  23  24
ATOM     24  O   UNL     1       1.151   3.432  20.482  0.00  0.00    +0.000 OA
ATOM     25  C   UNL     1       1.583   2.670  21.590  0.00  0.00    +0.000 C 
ENDBRANCH  23  24
ENDBRANCH  22  23
ENDBRANCH  19  22
BRANCH  20  26
ATOM     26  C   UNL     1       1.894   8.459  20.063  0.00  0.00    +0.000 C 
BRANCH  26  27
ATOM     27  N   UNL     1       0.930   9.499  19.744  0.00  0.00    +0.000 N 
ATOM     28  N   UNL     1       0.510   9.537  18.460  0.00  0.00    +0.000 NA
ATOM     29  N   UNL     1      -0.392  10.499  18.346  0.00  0.00    +0.000 NA
ATOM     30  C   UNL     1      -0.676  10.952  19.591  0.00  0.00    +0.000 A 
ATOM     31  C   UNL     1      -1.627  11.921  19.981  0.00  0.00    +0.000 A 
ATOM     32  C   UNL     1      -1.814  12.173  21.342  0.00  0.00    +0.000 A 
ATOM     33  C   UNL     1      -1.055  11.472  22.287  0.00  0.00    +0.000 A 
ATOM     34  C   UNL     1      -0.084  10.528  21.914  0.00  0.00    +0.000 A 
ATOM     35  C   UNL     1       0.109  10.290  20.540  0.00  0.00    +0.000 A 
ENDBRANCH  26  27
ENDBRANCH  20  26
ENDBRANCH   1  19
TORSDOF 13
ENDMDL
MODEL 9
REMARK VINA RESULT:      -6.6      1.232      1.548
REMARK  Name = 
REMARK  16 active torsions:
REMARK  status: ('A' for Active; 'I' for Inactive)
REMARK    1  A    between atoms: C_1  and  C_2
REMARK    2  A    between atoms: C_2  and  O_3
REMARK    3  A    between atoms: O_3  and  C_4
REMARK    4  A    between atoms: C_9  and  C_10
REMARK    5  A    between atoms: C_10  and  C_11
REMARK    6  A    between atoms: C_10  and  N_18
REMARK    7  A    between atoms: N_13  and  C_14
REMARK    8  A    between atoms: C_14  and  C_15
REMARK    9  A    between atoms: C_15  and  O_16
REMARK   10  A    between atoms: O_16  and  C_17
REMARK   11  A    between atoms: N_18  and  C_19
REMARK   12  A    between atoms: C_19  and  C_20
REMARK   13  A    between atoms: C_20  and  O_21
REMARK   14  A    between atoms: O_21  and  C_22
REMARK   15  A    between atoms: C_23  and  C_25
REMARK   16  A    between atoms: C_25  and  N_26
REMARK                            x       y       z     vdW  Elec       q    Type
REMARK                         _______ _______ _______ _____ _____    ______ ____
ROOT
ATOM      1  C   UNL     1       0.127  10.727  18.411  0.00  0.00    +0.000 C 
ENDROOT
BRANCH   1   7
ATOM      2  C   UNL     1      -2.485  11.400  18.737  0.00  0.00    +0.000 A 
ATOM      3  C   UNL     1      -3.757  11.405  18.121  0.00  0.00    +0.000 A 
ATOM      4  C   UNL     1      -3.993  10.758  16.913  0.00  0.00    +0.000 A 
ATOM      5  C   UNL     1      -2.988  10.029  16.321  0.00  0.00    +0.000 A 
ATOM      6  C   UNL     1      -1.739   9.969  16.931  0.00  0.00    +0.000 A 
ATOM      7  C   UNL     1      -1.412  10.665  18.117  0.00  0.00    +0.000 A 
BRANCH   2   8
ATOM      8  O   UNL     1      -2.301  12.065  19.932  0.00  0.00    +0.000 OA
BRANCH   8  10
ATOM      9  C   UNL     1      -3.886  12.787  21.745  0.00  0.00    +0.000 C 
ATOM     10  C   UNL     1      -3.249  13.070  20.382  0.00  0.00    +0.000 C 
ENDBRANCH   8  10
ENDBRANCH   2   8
ENDBRANCH   1   7
BRANCH   1  11
ATOM     11  C   UNL     1       0.874  12.058  18.717  0.00  0.00    +0.000 C 
ATOM     12  O   UNL     1       2.104  12.125  18.700  0.00  0.00    +0.000 OA
ATOM     13  N   UNL     1       0.114  13.179  18.891  0.00  0.00    +0.000 N 
ATOM     14  H   UNL     1      -0.883  13.047  19.029  0.00  0.00    +0.000 HD
BRANCH  13  15
ATOM     15  C   UNL     1       0.624  14.494  19.226  0.00  0.00    +0.000 C 
BRANCH  15  16
ATOM     16  C   UNL     1       0.399  14.785  20.712  0.00  0.00    +0.000 C 
BRANCH  16  17
ATOM     17  O   UNL     1      -0.062  16.135  20.841  0.00  0.00    +0.000 OA
ATOM     18  C   UNL     1      -1.393  16.311  20.383  0.00  0.00    +0.000 C 
ENDBRANCH  16  17
ENDBRANCH  15  16
ENDBRANCH  13  15
ENDBRANCH   1  11
BRANCH   1  19
ATOM     19  N   UNL     1       0.677   9.674  19.428  0.00  0.00    +0.000 N 
ATOM     20  C   UNL     1       1.720   8.831  19.013  0.00  0.00    +0.000 C 
ATOM     21  O   UNL     1       2.252   9.028  17.907  0.00  0.00    +0.000 OA
BRANCH  19  22
ATOM     22  C   UNL     1      -0.083   9.520  20.697  0.00  0.00    +0.000 C 
BRANCH  22  23
ATOM     23  C   UNL     1       0.154  10.594  21.793  0.00  0.00    +0.000 C 
BRANCH  23  24
ATOM     24  O   UNL     1       0.540   9.999  23.025  0.00  0.00    +0.000 OA
ATOM     25  C   UNL     1       1.719   9.220  23.002  0.00  0.00    +0.000 C 
ENDBRANCH  23  24
ENDBRANCH  22  23
ENDBRANCH  19  22
BRANCH  20  26
ATOM     26  C   UNL     1       2.161   7.571  19.780  0.00  0.00    +0.000 C 
BRANCH  26  27
ATOM     27  N   UNL     1       2.292   6.330  19.036  0.00  0.00    +0.000 N 
ATOM     28  N   UNL     1       3.213   6.332  18.047  0.00  0.00    +0.000 NA
ATOM     29  N   UNL     1       3.244   5.125  17.503  0.00  0.00    +0.000 NA
ATOM     30  C   UNL     1       2.472   4.309  18.262  0.00  0.00    +0.000 A 
ATOM     31  C   UNL     1       2.256   2.921  18.121  0.00  0.00    +0.000 A 
ATOM     32  C   UNL     1       1.482   2.258  19.078  0.00  0.00    +0.000 A 
ATOM     33  C   UNL     1       0.935   2.979  20.146  0.00  0.00    +0.000 A 
ATOM     34  C   UNL     1       1.116   4.365  20.283  0.00  0.00    +0.000 A 
ATOM     35  C   UNL     1       1.884   5.028  19.306  0.00  0.00    +0.000 A 
ENDBRANCH  26  27
ENDBRANCH  20  26
ENDBRANCH   1  19
TORSDOF 13
ENDMDL
