MODEL 1
REMARK VINA RESULT:      -6.6      0.000      0.000
REMARK  Name = 
REMARK  10 active torsions:
REMARK  status: ('A' for Active; 'I' for Inactive)
REMARK    1  A    between atoms: C_1  and  O_2
REMARK    2  A    between atoms: O_2  and  C_3
REMARK    3  A    between atoms: C_3  and  C_4
REMARK    4  A    between atoms: C_4  and  C_5
REMARK    5  A    between atoms: C_5  and  O_6
REMARK    6  A    between atoms: O_6  and  C_7
REMARK    7  A    between atoms: C_10  and  C_11
REMARK    8  A    between atoms: N_13  and  C_14
REMARK    9  A    between atoms: C_17  and  O_18
REMARK   10  A    between atoms: O_18  and  C_19
REMARK                            x       y       z     vdW  Elec       q    Type
REMARK                         _______ _______ _______ _____ _____    ______ ____
ROOT
ATOM      1  C   UNL     1       1.816   8.142  19.518  0.00  0.00    +0.000 C 
ATOM      2  O   UNL     1       1.759   8.648  18.395  0.00  0.00    +0.000 OA
ATOM      3  N   UNL     1       2.398   6.922  19.802  0.00  0.00    +0.000 N 
ATOM      4  H   UNL     1       2.238   6.481  20.698  0.00  0.00    +0.000 HD
ENDROOT
BRANCH   3   5
ATOM      5  C   UNL     1       3.072   6.123  18.840  0.00  0.00    +0.000 A 
ATOM      6  C   UNL     1       4.272   6.511  18.242  0.00  0.00    +0.000 A 
ATOM      7  C   UNL     1       4.882   5.713  17.276  0.00  0.00    +0.000 A 
ATOM      8  C   UNL     1       4.328   4.491  16.909  0.00  0.00    +0.000 A 
ATOM      9  C   UNL     1       3.130   4.081  17.493  0.00  0.00    +0.000 A 
ATOM     10  C   UNL     1       2.519   4.892  18.458  0.00  0.00    +0.000 A 
ATOM     11  F   UNL     1       1.360   4.490  19.005  0.00  0.00    +0.000 F 
BRANCH   8  12
ATOM     12  O   UNL     1       5.028   3.821  15.952  0.00  0.00    +0.000 OA
BRANCH  12  13
ATOM     13  C   UNL     1       5.665   4.625  14.979  0.00  0.00    +0.000 C 
ATOM     14  F   UNL     1       6.989   4.338  14.983  0.00  0.00    +0.000 F 
ATOM     15  F   UNL     1       5.184   4.248  13.768  0.00  0.00    +0.000 F 
ENDBRANCH  12  13
ENDBRANCH   8  12
ENDBRANCH   3   5
BRANCH   1  19
ATOM     16  C   UNL     1      -0.265  10.472  22.362  0.00  0.00    +0.000 A 
ATOM     17  C   UNL     1       0.512   9.437  22.865  0.00  0.00    +0.000 A 
ATOM     18  C   UNL     1       1.230   8.632  21.971  0.00  0.00    +0.000 A 
ATOM     19  C   UNL     1       1.153   8.904  20.604  0.00  0.00    +0.000 A 
ATOM     20  C   UNL     1       0.381   9.997  20.211  0.00  0.00    +0.000 A 
ATOM     21  N   UNL     1      -0.326  10.778  21.053  0.00  0.00    +0.000 NA
BRANCH  16  22
ATOM     22  O   UNL     1      -1.009  11.221  23.250  0.00  0.00    +0.000 OA
BRANCH  22  23
ATOM     23  C   UNL     1      -1.900  12.105  22.553  0.00  0.00    +0.000 C 
BRANCH  23  24
ATOM     24  C   UNL     1      -3.155  12.336  23.381  0.00  0.00    +0.000 C 
BRANCH  24  25
ATOM     25  C   UNL     1      -3.755  13.702  23.073  0.00  0.00    +0.000 C 
BRANCH  25  27
ATOM     26  C   UNL     1      -5.743  12.873  24.023  0.00  0.00    +0.000 C 
ATOM     27  O   UNL     1      -4.822  13.956  23.985  0.00  0.00    +0.000 OA
ENDBRANCH  25  27
ENDBRANCH  24  25
ENDBRANCH  23  24
ENDBRANCH  22  23
ENDBRANCH  16  22
ENDBRANCH   1  19
TORSDOF 9
ENDMDL
MODEL 2
REMARK VINA RESULT:      -6.6      1.697      2.078
REMARK  Name = 
REMARK  10 active torsions:
REMARK  status: ('A' for Active; 'I' for Inactive)
REMARK    1  A    between atoms: C_1  and  O_2
REMARK    2  A    between atoms: O_2  and  C_3
REMARK    3  A    between atoms: C_3  and  C_4
REMARK    4  A    between atoms: C_4  and  C_5
REMARK    5  A    between atoms: C_5  and  O_6
REMARK    6  A    between atoms: O_6  and  C_7
REMARK    7  A    between atoms: C_10  and  C_11
REMARK    8  A    between atoms: N_13  and  C_14
REMARK    9  A    between atoms: C_17  and  O_18
REMARK   10  A    between atoms: O_18  and  C_19
REMARK                            x       y       z     vdW  Elec       q    Type
REMARK                         _______ _______ _______ _____ _____    ______ ____
ROOT
ATOM      1  C   UNL     1       2.286   7.838  18.765  0.00  0.00    +0.000 C 
ATOM      2  O   UNL     1       2.217   8.197  17.587  0.00  0.00    +0.000 OA
ATOM      3  N   UNL     1       2.929   6.695  19.202  0.00  0.00    +0.000 N 
ATOM      4  H   UNL     1       2.780   6.361  20.145  0.00  0.00    +0.000 HD
ENDROOT
BRANCH   3   5
ATOM      5  C   UNL     1       3.657   5.822  18.351  0.00  0.00    +0.000 A 
ATOM      6  C   UNL     1       5.020   5.978  18.094  0.00  0.00    +0.000 A 
ATOM      7  C   UNL     1       5.689   5.119  17.225  0.00  0.00    +0.000 A 
ATOM      8  C   UNL     1       5.021   4.060  16.618  0.00  0.00    +0.000 A 
ATOM      9  C   UNL     1       3.660   3.882  16.859  0.00  0.00    +0.000 A 
ATOM     10  C   UNL     1       2.993   4.755  17.728  0.00  0.00    +0.000 A 
ATOM     11  F   UNL     1       1.679   4.579  17.944  0.00  0.00    +0.000 F 
BRANCH   8  12
ATOM     12  O   UNL     1       5.798   3.306  15.791  0.00  0.00    +0.000 OA
BRANCH  12  13
ATOM     13  C   UNL     1       6.112   3.888  14.541  0.00  0.00    +0.000 C 
ATOM     14  F   UNL     1       5.098   4.711  14.183  0.00  0.00    +0.000 F 
ATOM     15  F   UNL     1       7.207   4.666  14.723  0.00  0.00    +0.000 F 
ENDBRANCH  12  13
ENDBRANCH   8  12
ENDBRANCH   3   5
BRANCH   1  19
ATOM     16  C   UNL     1       0.375  10.058  21.809  0.00  0.00    +0.000 A 
ATOM     17  C   UNL     1       0.369  10.623  20.540  0.00  0.00    +0.000 A 
ATOM     18  C   UNL     1       0.983   9.930  19.487  0.00  0.00    +0.000 A 
ATOM     19  C   UNL     1       1.569   8.690  19.744  0.00  0.00    +0.000 A 
ATOM     20  C   UNL     1       1.476   8.194  21.044  0.00  0.00    +0.000 A 
ATOM     21  N   UNL     1       0.899   8.848  22.074  0.00  0.00    +0.000 NA
BRANCH  16  22
ATOM     22  O   UNL     1      -0.185  10.776  22.845  0.00  0.00    +0.000 OA
BRANCH  22  23
ATOM     23  C   UNL     1      -1.338  11.506  22.399  0.00  0.00    +0.000 C 
BRANCH  23  24
ATOM     24  C   UNL     1      -1.395  12.859  23.091  0.00  0.00    +0.000 C 
BRANCH  24  25
ATOM     25  C   UNL     1      -0.387  13.818  22.471  0.00  0.00    +0.000 C 
BRANCH  25  27
ATOM     26  C   UNL     1      -1.195  14.931  24.383  0.00  0.00    +0.000 C 
ATOM     27  O   UNL     1      -0.257  14.963  23.313  0.00  0.00    +0.000 OA
ENDBRANCH  25  27
ENDBRANCH  24  25
ENDBRANCH  23  24
ENDBRANCH  22  23
ENDBRANCH  16  22
ENDBRANCH   1  19
TORSDOF 9
ENDMDL
MODEL 3
REMARK VINA RESULT:      -6.6      1.609      1.884
REMARK  Name = 
REMARK  10 active torsions:
REMARK  status: ('A' for Active; 'I' for Inactive)
REMARK    1  A    between atoms: C_1  and  O_2
REMARK    2  A    between atoms: O_2  and  C_3
REMARK    3  A    between atoms: C_3  and  C_4
REMARK    4  A    between atoms: C_4  and  C_5
REMARK    5  A    between atoms: C_5  and  O_6
REMARK    6  A    between atoms: O_6  and  C_7
REMARK    7  A    between atoms: C_10  and  C_11
REMARK    8  A    between atoms: N_13  and  C_14
REMARK    9  A    between atoms: C_17  and  O_18
REMARK   10  A    between atoms: O_18  and  C_19
REMARK                            x       y       z     vdW  Elec       q    Type
REMARK                         _______ _______ _______ _____ _____    ______ ____
ROOT
ATOM      1  C   UNL     1       2.138   8.057  18.751  0.00  0.00    +0.000 C 
ATOM      2  O   UNL     1       2.010   8.448  17.589  0.00  0.00    +0.000 OA
ATOM      3  N   UNL     1       2.822   6.917  19.127  0.00  0.00    +0.000 N 
ATOM      4  H   UNL     1       2.722   6.553  20.064  0.00  0.00    +0.000 HD
ENDROOT
BRANCH   3   5
ATOM      5  C   UNL     1       3.530   6.084  18.219  0.00  0.00    +0.000 A 
ATOM      6  C   UNL     1       4.733   6.466  17.622  0.00  0.00    +0.000 A 
ATOM      7  C   UNL     1       5.378   5.633  16.711  0.00  0.00    +0.000 A 
ATOM      8  C   UNL     1       4.856   4.381  16.399  0.00  0.00    +0.000 A 
ATOM      9  C   UNL     1       3.657   3.976  16.983  0.00  0.00    +0.000 A 
ATOM     10  C   UNL     1       3.011   4.823  17.893  0.00  0.00    +0.000 A 
ATOM     11  F   UNL     1       1.851   4.425  18.440  0.00  0.00    +0.000 F 
BRANCH   8  12
ATOM     12  O   UNL     1       5.588   3.677  15.491  0.00  0.00    +0.000 OA
BRANCH  12  13
ATOM     13  C   UNL     1       5.923   4.367  14.303  0.00  0.00    +0.000 C 
ATOM     14  F   UNL     1       7.259   4.590  14.297  0.00  0.00    +0.000 F 
ATOM     15  F   UNL     1       5.657   3.534  13.266  0.00  0.00    +0.000 F 
ENDBRANCH  12  13
ENDBRANCH   8  12
ENDBRANCH   3   5
BRANCH   1  19
ATOM     16  C   UNL     1       0.304  10.138  21.937  0.00  0.00    +0.000 A 
ATOM     17  C   UNL     1       0.283  10.767  20.699  0.00  0.00    +0.000 A 
ATOM     18  C   UNL     1       0.871  10.123  19.602  0.00  0.00    +0.000 A 
ATOM     19  C   UNL     1       1.447   8.866  19.784  0.00  0.00    +0.000 A 
ATOM     20  C   UNL     1       1.370   8.304  21.059  0.00  0.00    +0.000 A 
ATOM     21  N   UNL     1       0.818   8.910  22.131  0.00  0.00    +0.000 NA
BRANCH  16  22
ATOM     22  O   UNL     1      -0.231  10.807  23.019  0.00  0.00    +0.000 OA
BRANCH  22  23
ATOM     23  C   UNL     1      -1.478  11.426  22.673  0.00  0.00    +0.000 C 
BRANCH  23  24
ATOM     24  C   UNL     1      -1.571  12.802  23.315  0.00  0.00    +0.000 C 
BRANCH  24  25
ATOM     25  C   UNL     1      -0.703  13.802  22.562  0.00  0.00    +0.000 C 
BRANCH  25  27
ATOM     26  C   UNL     1      -2.378  14.780  21.227  0.00  0.00    +0.000 C 
ATOM     27  O   UNL     1      -1.216  13.959  21.240  0.00  0.00    +0.000 OA
ENDBRANCH  25  27
ENDBRANCH  24  25
ENDBRANCH  23  24
ENDBRANCH  22  23
ENDBRANCH  16  22
ENDBRANCH   1  19
TORSDOF 9
ENDMDL
MODEL 4
REMARK VINA RESULT:      -6.6      1.161      1.493
REMARK  Name = 
REMARK  10 active torsions:
REMARK  status: ('A' for Active; 'I' for Inactive)
REMARK    1  A    between atoms: C_1  and  O_2
REMARK    2  A    between atoms: O_2  and  C_3
REMARK    3  A    between atoms: C_3  and  C_4
REMARK    4  A    between atoms: C_4  and  C_5
REMARK    5  A    between atoms: C_5  and  O_6
REMARK    6  A    between atoms: O_6  and  C_7
REMARK    7  A    between atoms: C_10  and  C_11
REMARK    8  A    between atoms: N_13  and  C_14
REMARK    9  A    between atoms: C_17  and  O_18
REMARK   10  A    between atoms: O_18  and  C_19
REMARK                            x       y       z     vdW  Elec       q    Type
REMARK                         _______ _______ _______ _____ _____    ______ ____
ROOT
ATOM      1  C   UNL     1       2.053   8.028  19.391  0.00  0.00    +0.000 C 
ATOM      2  O   UNL     1       2.242   8.570  18.301  0.00  0.00    +0.000 OA
ATOM      3  N   UNL     1       2.497   6.763  19.728  0.00  0.00    +0.000 N 
ATOM      4  H   UNL     1       2.142   6.307  20.558  0.00  0.00    +0.000 HD
ENDROOT
BRANCH   3   5
ATOM      5  C   UNL     1       3.293   5.952  18.876  0.00  0.00    +0.000 A 
ATOM      6  C   UNL     1       4.687   6.006  18.866  0.00  0.00    +0.000 A 
ATOM      7  C   UNL     1       5.430   5.217  17.990  0.00  0.00    +0.000 A 
ATOM      8  C   UNL     1       4.799   4.327  17.127  0.00  0.00    +0.000 A 
ATOM      9  C   UNL     1       3.407   4.252  17.119  0.00  0.00    +0.000 A 
ATOM     10  C   UNL     1       2.668   5.054  17.998  0.00  0.00    +0.000 A 
ATOM     11  F   UNL     1       1.327   4.981  17.973  0.00  0.00    +0.000 F 
BRANCH   8  12
ATOM     12  O   UNL     1       5.648   3.624  16.326  0.00  0.00    +0.000 OA
BRANCH  12  13
ATOM     13  C   UNL     1       6.217   4.344  15.250  0.00  0.00    +0.000 C 
ATOM     14  F   UNL     1       6.457   3.481  14.234  0.00  0.00    +0.000 F 
ATOM     15  F   UNL     1       5.279   5.220  14.811  0.00  0.00    +0.000 F 
ENDBRANCH  12  13
ENDBRANCH   8  12
ENDBRANCH   3   5
BRANCH   1  19
ATOM     16  C   UNL     1      -0.021  10.130  22.412  0.00  0.00    +0.000 A 
ATOM     17  C   UNL     1      -0.434  10.363  21.107  0.00  0.00    +0.000 A 
ATOM     18  C   UNL     1       0.213   9.690  20.061  0.00  0.00    +0.000 A 
ATOM     19  C   UNL     1       1.242   8.798  20.365  0.00  0.00    +0.000 A 
ATOM     20  C   UNL     1       1.544   8.603  21.713  0.00  0.00    +0.000 A 
ATOM     21  N   UNL     1       0.942   9.247  22.733  0.00  0.00    +0.000 NA
BRANCH  16  22
ATOM     22  O   UNL     1      -0.630  10.841  23.426  0.00  0.00    +0.000 OA
BRANCH  22  23
ATOM     23  C   UNL     1      -1.257  12.027  22.916  0.00  0.00    +0.000 C 
BRANCH  23  24
ATOM     24  C   UNL     1      -2.716  12.068  23.342  0.00  0.00    +0.000 C 
BRANCH  24  25
ATOM     25  C   UNL     1      -3.181  13.508  23.515  0.00  0.00    +0.000 C 
BRANCH  25  27
ATOM     26  C   UNL     1      -2.495  14.991  25.210  0.00  0.00    +0.000 C 
ATOM     27  O   UNL     1      -2.105  14.284  24.039  0.00  0.00    +0.000 OA
ENDBRANCH  25  27
ENDBRANCH  24  25
ENDBRANCH  23  24
ENDBRANCH  22  23
ENDBRANCH  16  22
ENDBRANCH   1  19
TORSDOF 9
ENDMDL
MODEL 5
REMARK VINA RESULT:      -6.6      1.433      1.870
REMARK  Name = 
REMARK  10 active torsions:
REMARK  status: ('A' for Active; 'I' for Inactive)
REMARK    1  A    between atoms: C_1  and  O_2
REMARK    2  A    between atoms: O_2  and  C_3
REMARK    3  A    between atoms: C_3  and  C_4
REMARK    4  A    between atoms: C_4  and  C_5
REMARK    5  A    between atoms: C_5  and  O_6
REMARK    6  A    between atoms: O_6  and  C_7
REMARK    7  A    between atoms: C_10  and  C_11
REMARK    8  A    between atoms: N_13  and  C_14
REMARK    9  A    between atoms: C_17  and  O_18
REMARK   10  A    between atoms: O_18  and  C_19
REMARK                            x       y       z     vdW  Elec       q    Type
REMARK                         _______ _______ _______ _____ _____    ______ ____
ROOT
ATOM      1  C   UNL     1       1.833   7.856  19.697  0.00  0.00    +0.000 C 
ATOM      2  O   UNL     1       1.872   8.404  18.594  0.00  0.00    +0.000 OA
ATOM      3  N   UNL     1       2.366   6.612  19.977  0.00  0.00    +0.000 N 
ATOM      4  H   UNL     1       2.128   6.142  20.840  0.00  0.00    +0.000 HD
ENDROOT
BRANCH   3   5
ATOM      5  C   UNL     1       3.093   5.833  19.037  0.00  0.00    +0.000 A 
ATOM      6  C   UNL     1       4.423   6.096  18.705  0.00  0.00    +0.000 A 
ATOM      7  C   UNL     1       5.089   5.328  17.752  0.00  0.00    +0.000 A 
ATOM      8  C   UNL     1       4.455   4.256  17.132  0.00  0.00    +0.000 A 
ATOM      9  C   UNL     1       3.127   3.973  17.448  0.00  0.00    +0.000 A 
ATOM     10  C   UNL     1       2.462   4.754  18.402  0.00  0.00    +0.000 A 
ATOM     11  F   UNL     1       1.179   4.477  18.688  0.00  0.00    +0.000 F 
BRANCH   8  12
ATOM     12  O   UNL     1       5.224   3.599  16.221  0.00  0.00    +0.000 OA
BRANCH  12  13
ATOM     13  C   UNL     1       5.943   4.416  15.318  0.00  0.00    +0.000 C 
ATOM     14  F   UNL     1       6.705   3.620  14.531  0.00  0.00    +0.000 F 
ATOM     15  F   UNL     1       5.035   5.017  14.509  0.00  0.00    +0.000 F 
ENDBRANCH  12  13
ENDBRANCH   8  12
ENDBRANCH   3   5
BRANCH   1  19
ATOM     16  C   UNL     1      -0.130  10.255  22.567  0.00  0.00    +0.000 A 
ATOM     17  C   UNL     1      -0.433   8.899  22.588  0.00  0.00    +0.000 A 
ATOM     18  C   UNL     1       0.192   8.052  21.664  0.00  0.00    +0.000 A 
ATOM     19  C   UNL     1       1.106   8.592  20.760  0.00  0.00    +0.000 A 
ATOM     20  C   UNL     1       1.372   9.958  20.857  0.00  0.00    +0.000 A 
ATOM     21  N   UNL     1       0.776  10.794  21.732  0.00  0.00    +0.000 NA
BRANCH  16  22
ATOM     22  O   UNL     1      -0.793  11.085  23.448  0.00  0.00    +0.000 OA
BRANCH  22  23
ATOM     23  C   UNL     1      -1.159  12.318  22.811  0.00  0.00    +0.000 C 
BRANCH  23  24
ATOM     24  C   UNL     1      -2.614  12.263  22.372  0.00  0.00    +0.000 C 
BRANCH  24  25
ATOM     25  C   UNL     1      -2.751  12.709  20.921  0.00  0.00    +0.000 C 
BRANCH  25  27
ATOM     26  C   UNL     1      -1.214  12.644  19.138  0.00  0.00    +0.000 C 
ATOM     27  O   UNL     1      -1.929  11.879  20.102  0.00  0.00    +0.000 OA
ENDBRANCH  25  27
ENDBRANCH  24  25
ENDBRANCH  23  24
ENDBRANCH  22  23
ENDBRANCH  16  22
ENDBRANCH   1  19
TORSDOF 9
ENDMDL
MODEL 6
REMARK VINA RESULT:      -6.5      1.543      2.115
REMARK  Name = 
REMARK  10 active torsions:
REMARK  status: ('A' for Active; 'I' for Inactive)
REMARK    1  A    between atoms: C_1  and  O_2
REMARK    2  A    between atoms: O_2  and  C_3
REMARK    3  A    between atoms: C_3  and  C_4
REMARK    4  A    between atoms: C_4  and  C_5
REMARK    5  A    between atoms: C_5  and  O_6
REMARK    6  A    between atoms: O_6  and  C_7
REMARK    7  A    between atoms: C_10  and  C_11
REMARK    8  A    between atoms: N_13  and  C_14
REMARK    9  A    between atoms: C_17  and  O_18
REMARK   10  A    between atoms: O_18  and  C_19
REMARK                            x       y       z     vdW  Elec       q    Type
REMARK                         _______ _______ _______ _____ _____    ______ ____
ROOT
ATOM      1  C   UNL     1       2.321   7.840  18.607  0.00  0.00    +0.000 C 
ATOM      2  O   UNL     1       2.128   8.189  17.440  0.00  0.00    +0.000 OA
ATOM      3  N   UNL     1       3.087   6.754  18.986  0.00  0.00    +0.000 N 
ATOM      4  H   UNL     1       3.043   6.412  19.936  0.00  0.00    +0.000 HD
ENDROOT
BRANCH   3   5
ATOM      5  C   UNL     1       3.810   5.939  18.075  0.00  0.00    +0.000 A 
ATOM      6  C   UNL     1       3.427   4.635  17.758  0.00  0.00    +0.000 A 
ATOM      7  C   UNL     1       4.184   3.857  16.884  0.00  0.00    +0.000 A 
ATOM      8  C   UNL     1       5.324   4.375  16.277  0.00  0.00    +0.000 A 
ATOM      9  C   UNL     1       5.726   5.676  16.576  0.00  0.00    +0.000 A 
ATOM     10  C   UNL     1       4.964   6.449  17.461  0.00  0.00    +0.000 A 
ATOM     11  F   UNL     1       5.368   7.697  17.749  0.00  0.00    +0.000 F 
BRANCH   8  12
ATOM     12  O   UNL     1       5.967   3.503  15.451  0.00  0.00    +0.000 OA
BRANCH  12  13
ATOM     13  C   UNL     1       6.073   3.902  14.099  0.00  0.00    +0.000 C 
ATOM     14  F   UNL     1       4.907   4.484  13.729  0.00  0.00    +0.000 F 
ATOM     15  F   UNL     1       7.030   4.860  14.036  0.00  0.00    +0.000 F 
ENDBRANCH  12  13
ENDBRANCH   8  12
ENDBRANCH   3   5
BRANCH   1  19
ATOM     16  C   UNL     1       0.480   9.898  21.804  0.00  0.00    +0.000 A 
ATOM     17  C   UNL     1       0.382  10.493  20.552  0.00  0.00    +0.000 A 
ATOM     18  C   UNL     1       0.968   9.854  19.451  0.00  0.00    +0.000 A 
ATOM     19  C   UNL     1       1.621   8.636  19.644  0.00  0.00    +0.000 A 
ATOM     20  C   UNL     1       1.619   8.105  20.934  0.00  0.00    +0.000 A 
ATOM     21  N   UNL     1       1.070   8.706  22.009  0.00  0.00    +0.000 NA
BRANCH  16  22
ATOM     22  O   UNL     1      -0.054  10.565  22.887  0.00  0.00    +0.000 OA
BRANCH  22  23
ATOM     23  C   UNL     1      -0.775  11.732  22.465  0.00  0.00    +0.000 C 
BRANCH  23  24
ATOM     24  C   UNL     1      -2.134  11.776  23.146  0.00  0.00    +0.000 C 
BRANCH  24  25
ATOM     25  C   UNL     1      -3.143  12.516  22.276  0.00  0.00    +0.000 C 
BRANCH  25  27
ATOM     26  C   UNL     1      -4.792  13.420  23.694  0.00  0.00    +0.000 C 
ATOM     27  O   UNL     1      -4.447  12.344  22.830  0.00  0.00    +0.000 OA
ENDBRANCH  25  27
ENDBRANCH  24  25
ENDBRANCH  23  24
ENDBRANCH  22  23
ENDBRANCH  16  22
ENDBRANCH   1  19
TORSDOF 9
ENDMDL
MODEL 7
REMARK VINA RESULT:      -6.5      1.295      1.598
REMARK  Name = 
REMARK  10 active torsions:
REMARK  status: ('A' for Active; 'I' for Inactive)
REMARK    1  A    between atoms: C_1  and  O_2
REMARK    2  A    between atoms: O_2  and  C_3
REMARK    3  A    between atoms: C_3  and  C_4
REMARK    4  A    between atoms: C_4  and  C_5
REMARK    5  A    between atoms: C_5  and  O_6
REMARK    6  A    between atoms: O_6  and  C_7
REMARK    7  A    between atoms: C_10  and  C_11
REMARK    8  A    between atoms: N_13  and  C_14
REMARK    9  A    between atoms: C_17  and  O_18
REMARK   10  A    between atoms: O_18  and  C_19
REMARK                            x       y       z     vdW  Elec       q    Type
REMARK                         _______ _______ _______ _____ _____    ______ ____
ROOT
ATOM      1  C   UNL     1       2.346   8.121  18.324  0.00  0.00    +0.000 C 
ATOM      2  O   UNL     1       2.524   8.590  17.198  0.00  0.00    +0.000 OA
ATOM      3  N   UNL     1       2.867   6.919  18.767  0.00  0.00    +0.000 N 
ATOM      4  H   UNL     1       2.524   6.505  19.623  0.00  0.00    +0.000 HD
ENDROOT
BRANCH   3   5
ATOM      5  C   UNL     1       3.737   6.103  17.996  0.00  0.00    +0.000 A 
ATOM      6  C   UNL     1       5.019   6.506  17.622  0.00  0.00    +0.000 A 
ATOM      7  C   UNL     1       5.828   5.687  16.837  0.00  0.00    +0.000 A 
ATOM      8  C   UNL     1       5.389   4.430  16.434  0.00  0.00    +0.000 A 
ATOM      9  C   UNL     1       4.112   4.003  16.797  0.00  0.00    +0.000 A 
ATOM     10  C   UNL     1       3.303   4.835  17.580  0.00  0.00    +0.000 A 
ATOM     11  F   UNL     1       2.071   4.417  17.913  0.00  0.00    +0.000 F 
BRANCH   8  12
ATOM     12  O   UNL     1       6.281   3.742  15.668  0.00  0.00    +0.000 OA
BRANCH  12  13
ATOM     13  C   UNL     1       6.203   3.973  14.275  0.00  0.00    +0.000 C 
ATOM     14  F   UNL     1       4.953   4.406  13.981  0.00  0.00    +0.000 F 
ATOM     15  F   UNL     1       7.051   4.992  13.988  0.00  0.00    +0.000 F 
ENDBRANCH  12  13
ENDBRANCH   8  12
ENDBRANCH   3   5
BRANCH   1  19
ATOM     16  C   UNL     1      -0.317  10.499  20.582  0.00  0.00    +0.000 A 
ATOM     17  C   UNL     1       0.364   9.508  21.278  0.00  0.00    +0.000 A 
ATOM     18  C   UNL     1       1.266   8.691  20.584  0.00  0.00    +0.000 A 
ATOM     19  C   UNL     1       1.461   8.905  19.219  0.00  0.00    +0.000 A 
ATOM     20  C   UNL     1       0.761   9.958  18.629  0.00  0.00    +0.000 A 
ATOM     21  N   UNL     1      -0.118  10.750  19.275  0.00  0.00    +0.000 NA
BRANCH  16  22
ATOM     22  O   UNL     1      -1.242  11.260  21.267  0.00  0.00    +0.000 OA
BRANCH  22  23
ATOM     23  C   UNL     1      -0.671  11.799  22.469  0.00  0.00    +0.000 C 
BRANCH  23  24
ATOM     24  C   UNL     1      -1.629  12.802  23.093  0.00  0.00    +0.000 C 
BRANCH  24  25
ATOM     25  C   UNL     1      -2.996  12.166  23.318  0.00  0.00    +0.000 C 
BRANCH  25  27
ATOM     26  C   UNL     1      -3.527  14.227  22.310  0.00  0.00    +0.000 C 
ATOM     27  O   UNL     1      -3.977  12.907  22.595  0.00  0.00    +0.000 OA
ENDBRANCH  25  27
ENDBRANCH  24  25
ENDBRANCH  23  24
ENDBRANCH  22  23
ENDBRANCH  16  22
ENDBRANCH   1  19
TORSDOF 9
ENDMDL
MODEL 8
REMARK VINA RESULT:      -6.4      1.492      1.711
REMARK  Name = 
REMARK  10 active torsions:
REMARK  status: ('A' for Active; 'I' for Inactive)
REMARK    1  A    between atoms: C_1  and  O_2
REMARK    2  A    between atoms: O_2  and  C_3
REMARK    3  A    between atoms: C_3  and  C_4
REMARK    4  A    between atoms: C_4  and  C_5
REMARK    5  A    between atoms: C_5  and  O_6
REMARK    6  A    between atoms: O_6  and  C_7
REMARK    7  A    between atoms: C_10  and  C_11
REMARK    8  A    between atoms: N_13  and  C_14
REMARK    9  A    between atoms: C_17  and  O_18
REMARK   10  A    between atoms: O_18  and  C_19
REMARK                            x       y       z     vdW  Elec       q    Type
REMARK                         _______ _______ _______ _____ _____    ______ ____
ROOT
ATOM      1  C   UNL     1       1.555   8.400  19.613  0.00  0.00    +0.000 C 
ATOM      2  O   UNL     1       1.466   8.884  18.483  0.00  0.00    +0.000 OA
ATOM      3  N   UNL     1       2.200   7.216  19.913  0.00  0.00    +0.000 N 
ATOM      4  H   UNL     1       2.067   6.782  20.817  0.00  0.00    +0.000 HD
ENDROOT
BRANCH   3   5
ATOM      5  C   UNL     1       2.907   6.437  18.959  0.00  0.00    +0.000 A 
ATOM      6  C   UNL     1       3.926   6.959  18.161  0.00  0.00    +0.000 A 
ATOM      7  C   UNL     1       4.572   6.169  17.213  0.00  0.00    +0.000 A 
ATOM      8  C   UNL     1       4.240   4.826  17.062  0.00  0.00    +0.000 A 
ATOM      9  C   UNL     1       3.226   4.280  17.848  0.00  0.00    +0.000 A 
ATOM     10  C   UNL     1       2.577   5.083  18.793  0.00  0.00    +0.000 A 
ATOM     11  F   UNL     1       1.595   4.548  19.537  0.00  0.00    +0.000 F 
BRANCH   8  12
ATOM     12  O   UNL     1       4.948   4.178  16.096  0.00  0.00    +0.000 OA
BRANCH  12  13
ATOM     13  C   UNL     1       6.252   4.668  15.855  0.00  0.00    +0.000 C 
ATOM     14  F   UNL     1       7.085   4.150  16.790  0.00  0.00    +0.000 F 
ATOM     15  F   UNL     1       6.652   4.177  14.656  0.00  0.00    +0.000 F 
ENDBRANCH  12  13
ENDBRANCH   8  12
ENDBRANCH   3   5
BRANCH   1  19
ATOM     16  C   UNL     1      -0.362  10.818  22.499  0.00  0.00    +0.000 A 
ATOM     17  C   UNL     1      -0.520   9.446  22.644  0.00  0.00    +0.000 A 
ATOM     18  C   UNL     1       0.098   8.592  21.720  0.00  0.00    +0.000 A 
ATOM     19  C   UNL     1       0.861   9.145  20.692  0.00  0.00    +0.000 A 
ATOM     20  C   UNL     1       0.992  10.534  20.667  0.00  0.00    +0.000 A 
ATOM     21  N   UNL     1       0.399  11.375  21.539  0.00  0.00    +0.000 NA
BRANCH  16  22
ATOM     22  O   UNL     1      -1.020  11.648  23.383  0.00  0.00    +0.000 OA
BRANCH  22  23
ATOM     23  C   UNL     1      -1.150  12.972  22.843  0.00  0.00    +0.000 C 
BRANCH  23  24
ATOM     24  C   UNL     1      -2.353  13.667  23.460  0.00  0.00    +0.000 C 
BRANCH  24  25
ATOM     25  C   UNL     1      -1.965  15.046  23.980  0.00  0.00    +0.000 C 
BRANCH  25  27
ATOM     26  C   UNL     1      -1.029  15.807  26.002  0.00  0.00    +0.000 C 
ATOM     27  O   UNL     1      -0.892  14.906  24.909  0.00  0.00    +0.000 OA
ENDBRANCH  25  27
ENDBRANCH  24  25
ENDBRANCH  23  24
ENDBRANCH  22  23
ENDBRANCH  16  22
ENDBRANCH   1  19
TORSDOF 9
ENDMDL
MODEL 9
REMARK VINA RESULT:      -6.4      2.277      2.999
REMARK  Name = 
REMARK  10 active torsions:
REMARK  status: ('A' for Active; 'I' for Inactive)
REMARK    1  A    between atoms: C_1  and  O_2
REMARK    2  A    between atoms: O_2  and  C_3
REMARK    3  A    between atoms: C_3  and  C_4
REMARK    4  A    between atoms: C_4  and  C_5
REMARK    5  A    between atoms: C_5  and  O_6
REMARK    6  A    between atoms: O_6  and  C_7
REMARK    7  A    between atoms: C_10  and  C_11
REMARK    8  A    between atoms: N_13  and  C_14
REMARK    9  A    between atoms: C_17  and  O_18
REMARK   10  A    between atoms: O_18  and  C_19
REMARK                            x       y       z     vdW  Elec       q    Type
REMARK                         _______ _______ _______ _____ _____    ______ ____
ROOT
ATOM      1  C   UNL     1       2.420   7.268  19.506  0.00  0.00    +0.000 C 
ATOM      2  O   UNL     1       2.824   6.432  20.317  0.00  0.00    +0.000 OA
ATOM      3  N   UNL     1       2.824   7.345  18.187  0.00  0.00    +0.000 N 
ATOM      4  H   UNL     1       2.605   8.165  17.638  0.00  0.00    +0.000 HD
ENDROOT
BRANCH   3   5
ATOM      5  C   UNL     1       3.711   6.418  17.577  0.00  0.00    +0.000 A 
ATOM      6  C   UNL     1       4.981   6.773  17.122  0.00  0.00    +0.000 A 
ATOM      7  C   UNL     1       5.807   5.840  16.498  0.00  0.00    +0.000 A 
ATOM      8  C   UNL     1       5.397   4.519  16.344  0.00  0.00    +0.000 A 
ATOM      9  C   UNL     1       4.133   4.139  16.792  0.00  0.00    +0.000 A 
ATOM     10  C   UNL     1       3.307   5.085  17.411  0.00  0.00    +0.000 A 
ATOM     11  F   UNL     1       2.087   4.708  17.827  0.00  0.00    +0.000 F 
BRANCH   8  12
ATOM     12  O   UNL     1       6.303   3.720  15.714  0.00  0.00    +0.000 OA
BRANCH  12  13
ATOM     13  C   UNL     1       6.350   3.836  14.305  0.00  0.00    +0.000 C 
ATOM     14  F   UNL     1       5.137   4.249  13.867  0.00  0.00    +0.000 F 
ATOM     15  F   UNL     1       7.233   4.823  14.012  0.00  0.00    +0.000 F 
ENDBRANCH  12  13
ENDBRANCH   8  12
ENDBRANCH   3   5
BRANCH   1  19
ATOM     16  C   UNL     1      -0.286  10.288  20.694  0.00  0.00    +0.000 A 
ATOM     17  C   UNL     1      -0.068   9.264  21.607  0.00  0.00    +0.000 A 
ATOM     18  C   UNL     1       0.824   8.236  21.272  0.00  0.00    +0.000 A 
ATOM     19  C   UNL     1       1.474   8.280  20.038  0.00  0.00    +0.000 A 
ATOM     20  C   UNL     1       1.218   9.379  19.218  0.00  0.00    +0.000 A 
ATOM     21  N   UNL     1       0.357  10.373  19.515  0.00  0.00    +0.000 NA
BRANCH  16  22
ATOM     22  O   UNL     1      -1.207  11.264  21.016  0.00  0.00    +0.000 OA
BRANCH  22  23
ATOM     23  C   UNL     1      -1.365  12.194  19.934  0.00  0.00    +0.000 C 
BRANCH  23  24
ATOM     24  C   UNL     1      -2.839  12.346  19.593  0.00  0.00    +0.000 C 
BRANCH  24  25
ATOM     25  C   UNL     1      -3.211  11.446  18.421  0.00  0.00    +0.000 C 
BRANCH  25  27
ATOM     26  C   UNL     1      -2.669  10.994  16.174  0.00  0.00    +0.000 C 
ATOM     27  O   UNL     1      -2.245  11.611  17.384  0.00  0.00    +0.000 OA
ENDBRANCH  25  27
ENDBRANCH  24  25
ENDBRANCH  23  24
ENDBRANCH  22  23
ENDBRANCH  16  22
ENDBRANCH   1  19
TORSDOF 9
ENDMDL
