MODEL 1
REMARK VINA RESULT:      -7.2      0.000      0.000
REMARK  Name = 
REMARK  6 active torsions:
REMARK  status: ('A' for Active; 'I' for Inactive)
REMARK    1  A    between atoms: C_2  and  C_3
REMARK    2  A    between atoms: C_6  and  C_7
REMARK    3  A    between atoms: C_16  and  O_17
REMARK    4  A    between atoms: C_18  and  O_19
REMARK    5  A    between atoms: C_26  and  O_27
REMARK    6  A    between atoms: C_28  and  O_29
REMARK                            x       y       z     vdW  Elec       q    Type
REMARK                         _______ _______ _______ _____ _____    ______ ____
ROOT
ATOM      1  O   UNL     1      -1.069  13.819  19.808  0.00  0.00    +0.000 OA
ATOM      2  C   UNL     1      -1.256  12.970  20.683  0.00  0.00    +0.000 C 
ATOM      3  N   UNL     1      -1.348  11.638  20.233  0.00  0.00    +0.000 N 
ATOM      4  C   UNL     1      -1.918  11.276  19.013  0.00  0.00    +0.000 A 
ATOM      5  C   UNL     1      -2.963  11.878  18.279  0.00  0.00    +0.000 A 
ATOM      6  C   UNL     1      -3.260  11.332  17.029  0.00  0.00    +0.000 A 
ATOM      7  C   UNL     1      -2.549  10.239  16.542  0.00  0.00    +0.000 A 
ATOM      8  C   UNL     1      -1.512   9.668  17.258  0.00  0.00    +0.000 A 
ATOM      9  C   UNL     1      -1.172  10.206  18.523  0.00  0.00    +0.000 A 
ATOM     10  C   UNL     1      -0.141   9.944  19.478  0.00  0.00    +0.000 A 
ATOM     11  C   UNL     1       1.071   9.216  19.489  0.00  0.00    +0.000 A 
ATOM     12 BR   UNL     1       1.852   8.582  17.883  0.00  0.00    +0.000 Br
ATOM     13  C   UNL     1       1.798   9.075  20.679  0.00  0.00    +0.000 A 
ATOM     14  C   UNL     1       1.271   9.565  21.859  0.00  0.00    +0.000 A 
ATOM     15  C   UNL     1       0.091  10.310  21.876  0.00  0.00    +0.000 A 
ATOM     16  C   UNL     1      -0.530  10.597  20.658  0.00  0.00    +0.000 A 
ENDROOT
BRANCH   2  17
ATOM     17  C   UNL     1      -1.407  13.461  22.060  0.00  0.00    +0.000 A 
ATOM     18  C   UNL     1      -2.628  13.319  22.717  0.00  0.00    +0.000 A 
ATOM     19  C   UNL     1      -2.890  14.083  23.854  0.00  0.00    +0.000 A 
ATOM     20  C   UNL     1      -1.941  15.001  24.334  0.00  0.00    +0.000 A 
ATOM     21  C   UNL     1      -0.681  15.065  23.724  0.00  0.00    +0.000 A 
ATOM     22  C   UNL     1      -0.415  14.302  22.588  0.00  0.00    +0.000 A 
BRANCH  20  23
ATOM     23  C   UNL     1      -2.298  15.978  25.430  0.00  0.00    +0.000 C 
ATOM     24  F   UNL     1      -1.953  17.263  25.145  0.00  0.00    +0.000 F 
ATOM     25  F   UNL     1      -3.628  15.995  25.711  0.00  0.00    +0.000 F 
ATOM     26  F   UNL     1      -1.669  15.679  26.603  0.00  0.00    +0.000 F 
ENDBRANCH  20  23
ENDBRANCH   2  17
BRANCH   6  27
ATOM     27  O   UNL     1      -4.248  11.846  16.237  0.00  0.00    +0.000 OA
ATOM     28  H   UNL     1      -4.866  12.336  16.805  0.00  0.00    +0.000 HD
ENDBRANCH   6  27
BRANCH   7  29
ATOM     29  O   UNL     1      -2.862   9.721  15.313  0.00  0.00    +0.000 OA
ATOM     30  H   UNL     1      -2.232   8.989  15.187  0.00  0.00    +0.000 HD
ENDBRANCH   7  29
BRANCH  14  31
ATOM     31  O   UNL     1       1.916   9.398  23.057  0.00  0.00    +0.000 OA
ATOM     32  H   UNL     1       1.968  10.264  23.495  0.00  0.00    +0.000 HD
ENDBRANCH  14  31
BRANCH  15  33
ATOM     33  O   UNL     1      -0.409  10.739  23.075  0.00  0.00    +0.000 OA
ATOM     34  H   UNL     1      -0.868  11.579  22.866  0.00  0.00    +0.000 HD
ENDBRANCH  15  33
TORSDOF 6
ENDMDL
MODEL 2
REMARK VINA RESULT:      -6.9      4.969      7.436
REMARK  Name = 
REMARK  6 active torsions:
REMARK  status: ('A' for Active; 'I' for Inactive)
REMARK    1  A    between atoms: C_2  and  C_3
REMARK    2  A    between atoms: C_6  and  C_7
REMARK    3  A    between atoms: C_16  and  O_17
REMARK    4  A    between atoms: C_18  and  O_19
REMARK    5  A    between atoms: C_26  and  O_27
REMARK    6  A    between atoms: C_28  and  O_29
REMARK                            x       y       z     vdW  Elec       q    Type
REMARK                         _______ _______ _______ _____ _____    ______ ____
ROOT
ATOM      1  O   UNL     1      -1.988  13.835  20.849  0.00  0.00    +0.000 OA
ATOM      2  C   UNL     1      -2.150  12.692  20.416  0.00  0.00    +0.000 C 
ATOM      3  N   UNL     1      -3.487  12.259  20.318  0.00  0.00    +0.000 N 
ATOM      4  C   UNL     1      -4.485  12.631  21.219  0.00  0.00    +0.000 A 
ATOM      5  C   UNL     1      -4.403  12.937  22.595  0.00  0.00    +0.000 A 
ATOM      6  C   UNL     1      -5.574  13.368  23.221  0.00  0.00    +0.000 A 
ATOM      7  C   UNL     1      -6.763  13.486  22.506  0.00  0.00    +0.000 A 
ATOM      8  C   UNL     1      -6.829  13.205  21.154  0.00  0.00    +0.000 A 
ATOM      9  C   UNL     1      -5.657  12.780  20.482  0.00  0.00    +0.000 A 
ATOM     10  C   UNL     1      -5.332  12.493  19.119  0.00  0.00    +0.000 A 
ATOM     11  C   UNL     1      -5.946  12.705  17.863  0.00  0.00    +0.000 A 
ATOM     12 BR   UNL     1      -7.428  13.872  17.678  0.00  0.00    +0.000 Br
ATOM     13  C   UNL     1      -5.378  12.168  16.700  0.00  0.00    +0.000 A 
ATOM     14  C   UNL     1      -4.270  11.346  16.804  0.00  0.00    +0.000 A 
ATOM     15  C   UNL     1      -3.627  11.139  18.024  0.00  0.00    +0.000 A 
ATOM     16  C   UNL     1      -4.098  11.826  19.146  0.00  0.00    +0.000 A 
ENDROOT
BRANCH   2  17
ATOM     17  C   UNL     1      -0.936  11.921  20.111  0.00  0.00    +0.000 A 
ATOM     18  C   UNL     1      -0.150  12.272  19.015  0.00  0.00    +0.000 A 
ATOM     19  C   UNL     1       0.775  11.358  18.511  0.00  0.00    +0.000 A 
ATOM     20  C   UNL     1       0.910  10.085  19.089  0.00  0.00    +0.000 A 
ATOM     21  C   UNL     1       0.186   9.779  20.249  0.00  0.00    +0.000 A 
ATOM     22  C   UNL     1      -0.738  10.692  20.757  0.00  0.00    +0.000 A 
BRANCH  20  23
ATOM     23  C   UNL     1       1.751   9.020  18.423  0.00  0.00    +0.000 C 
ATOM     24  F   UNL     1       2.213   8.076  19.287  0.00  0.00    +0.000 F 
ATOM     25  F   UNL     1       1.080   8.349  17.450  0.00  0.00    +0.000 F 
ATOM     26  F   UNL     1       2.858   9.546  17.825  0.00  0.00    +0.000 F 
ENDBRANCH  20  23
ENDBRANCH   2  17
BRANCH   6  27
ATOM     27  O   UNL     1      -5.601  13.696  24.548  0.00  0.00    +0.000 OA
ATOM     28  H   UNL     1      -4.900  14.350  24.711  0.00  0.00    +0.000 HD
ENDBRANCH   6  27
BRANCH   7  29
ATOM     29  O   UNL     1      -7.898  13.909  23.146  0.00  0.00    +0.000 OA
ATOM     30  H   UNL     1      -7.574  14.452  23.887  0.00  0.00    +0.000 HD
ENDBRANCH   7  29
BRANCH  14  31
ATOM     31  O   UNL     1      -3.715  10.750  15.701  0.00  0.00    +0.000 OA
ATOM     32  H   UNL     1      -3.071  10.089  16.007  0.00  0.00    +0.000 HD
ENDBRANCH  14  31
BRANCH  15  33
ATOM     33  O   UNL     1      -2.559  10.286  18.079  0.00  0.00    +0.000 OA
ATOM     34  H   UNL     1      -2.436   9.982  17.155  0.00  0.00    +0.000 HD
ENDBRANCH  15  33
TORSDOF 6
ENDMDL
MODEL 3
REMARK VINA RESULT:      -6.7      4.843      7.353
REMARK  Name = 
REMARK  6 active torsions:
REMARK  status: ('A' for Active; 'I' for Inactive)
REMARK    1  A    between atoms: C_2  and  C_3
REMARK    2  A    between atoms: C_6  and  C_7
REMARK    3  A    between atoms: C_16  and  O_17
REMARK    4  A    between atoms: C_18  and  O_19
REMARK    5  A    between atoms: C_26  and  O_27
REMARK    6  A    between atoms: C_28  and  O_29
REMARK                            x       y       z     vdW  Elec       q    Type
REMARK                         _______ _______ _______ _____ _____    ______ ____
ROOT
ATOM      1  O   UNL     1      -1.208  13.587  20.234  0.00  0.00    +0.000 OA
ATOM      2  C   UNL     1      -1.450  12.403  19.985  0.00  0.00    +0.000 C 
ATOM      3  N   UNL     1      -2.814  12.049  19.962  0.00  0.00    +0.000 N 
ATOM      4  C   UNL     1      -3.771  12.621  20.801  0.00  0.00    +0.000 A 
ATOM      5  C   UNL     1      -3.649  13.129  22.112  0.00  0.00    +0.000 A 
ATOM      6  C   UNL     1      -4.779  13.728  22.670  0.00  0.00    +0.000 A 
ATOM      7  C   UNL     1      -5.969  13.812  21.952  0.00  0.00    +0.000 A 
ATOM      8  C   UNL     1      -6.074  13.330  20.660  0.00  0.00    +0.000 A 
ATOM      9  C   UNL     1      -4.943  12.731  20.055  0.00  0.00    +0.000 A 
ATOM     10  C   UNL     1      -4.659  12.216  18.752  0.00  0.00    +0.000 A 
ATOM     11  C   UNL     1      -5.277  12.272  17.481  0.00  0.00    +0.000 A 
ATOM     12 BR   UNL     1      -6.684  13.491  17.126  0.00  0.00    +0.000 Br
ATOM     13  C   UNL     1      -4.762  11.526  16.413  0.00  0.00    +0.000 A 
ATOM     14  C   UNL     1      -3.708  10.659  16.636  0.00  0.00    +0.000 A 
ATOM     15  C   UNL     1      -3.061  10.601  17.870  0.00  0.00    +0.000 A 
ATOM     16  C   UNL     1      -3.469  11.482  18.875  0.00  0.00    +0.000 A 
ENDROOT
BRANCH   2  17
ATOM     17  C   UNL     1      -0.293  11.517  19.796  0.00  0.00    +0.000 A 
ATOM     18  C   UNL     1       0.505  11.651  18.660  0.00  0.00    +0.000 A 
ATOM     19  C   UNL     1       1.362  10.613  18.296  0.00  0.00    +0.000 A 
ATOM     20  C   UNL     1       1.418   9.432  19.054  0.00  0.00    +0.000 A 
ATOM     21  C   UNL     1       0.686   9.347  20.246  0.00  0.00    +0.000 A 
ATOM     22  C   UNL     1      -0.171  10.384  20.615  0.00  0.00    +0.000 A 
BRANCH  20  23
ATOM     23  C   UNL     1       2.179   8.227  18.551  0.00  0.00    +0.000 C 
ATOM     24  F   UNL     1       3.350   8.546  17.935  0.00  0.00    +0.000 F 
ATOM     25  F   UNL     1       2.497   7.350  19.540  0.00  0.00    +0.000 F 
ATOM     26  F   UNL     1       1.462   7.518  17.634  0.00  0.00    +0.000 F 
ENDBRANCH  20  23
ENDBRANCH   2  17
BRANCH   6  27
ATOM     27  O   UNL     1      -4.764  14.258  23.930  0.00  0.00    +0.000 OA
ATOM     28  H   UNL     1      -4.760  15.227  23.849  0.00  0.00    +0.000 HD
ENDBRANCH   6  27
BRANCH   7  29
ATOM     29  O   UNL     1      -7.065  14.403  22.525  0.00  0.00    +0.000 OA
ATOM     30  H   UNL     1      -6.695  15.027  23.174  0.00  0.00    +0.000 HD
ENDBRANCH   7  29
BRANCH  14  31
ATOM     31  O   UNL     1      -3.210   9.865  15.636  0.00  0.00    +0.000 OA
ATOM     32  H   UNL     1      -2.946  10.439  14.898  0.00  0.00    +0.000 HD
ENDBRANCH  14  31
BRANCH  15  33
ATOM     33  O   UNL     1      -2.049   9.698  18.051  0.00  0.00    +0.000 OA
ATOM     34  H   UNL     1      -2.493   8.824  18.052  0.00  0.00    +0.000 HD
ENDBRANCH  15  33
TORSDOF 6
ENDMDL
MODEL 4
REMARK VINA RESULT:      -6.5      4.363      6.466
REMARK  Name = 
REMARK  6 active torsions:
REMARK  status: ('A' for Active; 'I' for Inactive)
REMARK    1  A    between atoms: C_2  and  C_3
REMARK    2  A    between atoms: C_6  and  C_7
REMARK    3  A    between atoms: C_16  and  O_17
REMARK    4  A    between atoms: C_18  and  O_19
REMARK    5  A    between atoms: C_26  and  O_27
REMARK    6  A    between atoms: C_28  and  O_29
REMARK                            x       y       z     vdW  Elec       q    Type
REMARK                         _______ _______ _______ _____ _____    ______ ____
ROOT
ATOM      1  O   UNL     1      -2.042  15.246  20.507  0.00  0.00    +0.000 OA
ATOM      2  C   UNL     1      -1.626  14.118  20.230  0.00  0.00    +0.000 C 
ATOM      3  N   UNL     1      -2.571  13.076  20.327  0.00  0.00    +0.000 N 
ATOM      4  C   UNL     1      -3.587  13.047  21.282  0.00  0.00    +0.000 A 
ATOM      5  C   UNL     1      -3.619  13.561  22.597  0.00  0.00    +0.000 A 
ATOM      6  C   UNL     1      -4.825  13.455  23.291  0.00  0.00    +0.000 A 
ATOM      7  C   UNL     1      -5.939  12.864  22.701  0.00  0.00    +0.000 A 
ATOM      8  C   UNL     1      -5.904  12.382  21.405  0.00  0.00    +0.000 A 
ATOM      9  C   UNL     1      -4.702  12.487  20.664  0.00  0.00    +0.000 A 
ATOM     10  C   UNL     1      -4.327  12.189  19.317  0.00  0.00    +0.000 A 
ATOM     11  C   UNL     1      -5.010  11.877  18.118  0.00  0.00    +0.000 A 
ATOM     12 BR   UNL     1      -6.883  12.124  17.961  0.00  0.00    +0.000 Br
ATOM     13  C   UNL     1      -4.292  11.515  16.971  0.00  0.00    +0.000 A 
ATOM     14  C   UNL     1      -2.919  11.368  17.048  0.00  0.00    +0.000 A 
ATOM     15  C   UNL     1      -2.215  11.693  18.207  0.00  0.00    +0.000 A 
ATOM     16  C   UNL     1      -2.925  12.225  19.287  0.00  0.00    +0.000 A 
ENDROOT
BRANCH   2  17
ATOM     17  C   UNL     1      -0.202  14.004  19.886  0.00  0.00    +0.000 A 
ATOM     18  C   UNL     1       0.673  13.360  20.760  0.00  0.00    +0.000 A 
ATOM     19  C   UNL     1       2.047  13.557  20.627  0.00  0.00    +0.000 A 
ATOM     20  C   UNL     1       2.555  14.408  19.631  0.00  0.00    +0.000 A 
ATOM     21  C   UNL     1       1.674  14.972  18.698  0.00  0.00    +0.000 A 
ATOM     22  C   UNL     1       0.299  14.776  18.827  0.00  0.00    +0.000 A 
BRANCH  20  23
ATOM     23  C   UNL     1       4.016  14.792  19.615  0.00  0.00    +0.000 C 
ATOM     24  F   UNL     1       4.223  16.135  19.542  0.00  0.00    +0.000 F 
ATOM     25  F   UNL     1       4.688  14.364  20.717  0.00  0.00    +0.000 F 
ATOM     26  F   UNL     1       4.671  14.259  18.544  0.00  0.00    +0.000 F 
ENDBRANCH  20  23
ENDBRANCH   2  17
BRANCH   6  27
ATOM     27  O   UNL     1      -4.965  13.928  24.566  0.00  0.00    +0.000 OA
ATOM     28  H   UNL     1      -5.029  13.165  25.166  0.00  0.00    +0.000 HD
ENDBRANCH   6  27
BRANCH   7  29
ATOM     29  O   UNL     1      -7.109  12.770  23.406  0.00  0.00    +0.000 OA
ATOM     30  H   UNL     1      -7.698  13.426  22.992  0.00  0.00    +0.000 HD
ENDBRANCH   7  29
BRANCH  14  31
ATOM     31  O   UNL     1      -2.181  10.958  15.968  0.00  0.00    +0.000 OA
ATOM     32  H   UNL     1      -2.156  11.686  15.325  0.00  0.00    +0.000 HD
ENDBRANCH  14  31
BRANCH  15  33
ATOM     33  O   UNL     1      -0.862  11.493  18.245  0.00  0.00    +0.000 OA
ATOM     34  H   UNL     1      -0.674  11.238  19.172  0.00  0.00    +0.000 HD
ENDBRANCH  15  33
TORSDOF 6
ENDMDL
MODEL 5
REMARK VINA RESULT:      -6.5      4.497      6.748
REMARK  Name = 
REMARK  6 active torsions:
REMARK  status: ('A' for Active; 'I' for Inactive)
REMARK    1  A    between atoms: C_2  and  C_3
REMARK    2  A    between atoms: C_6  and  C_7
REMARK    3  A    between atoms: C_16  and  O_17
REMARK    4  A    between atoms: C_18  and  O_19
REMARK    5  A    between atoms: C_26  and  O_27
REMARK    6  A    between atoms: C_28  and  O_29
REMARK                            x       y       z     vdW  Elec       q    Type
REMARK                         _______ _______ _______ _____ _____    ______ ____
ROOT
ATOM      1  O   UNL     1      -1.313  15.555  20.630  0.00  0.00    +0.000 OA
ATOM      2  C   UNL     1      -0.929  14.417  20.349  0.00  0.00    +0.000 C 
ATOM      3  N   UNL     1      -1.831  13.376  20.645  0.00  0.00    +0.000 N 
ATOM      4  C   UNL     1      -2.686  13.390  21.747  0.00  0.00    +0.000 A 
ATOM      5  C   UNL     1      -2.522  13.972  23.023  0.00  0.00    +0.000 A 
ATOM      6  C   UNL     1      -3.604  13.895  23.901  0.00  0.00    +0.000 A 
ATOM      7  C   UNL     1      -4.787  13.266  23.522  0.00  0.00    +0.000 A 
ATOM      8  C   UNL     1      -4.946  12.717  22.263  0.00  0.00    +0.000 A 
ATOM      9  C   UNL     1      -3.875  12.791  21.339  0.00  0.00    +0.000 A 
ATOM     10  C   UNL     1      -3.710  12.425  19.967  0.00  0.00    +0.000 A 
ATOM     11  C   UNL     1      -4.566  12.046  18.907  0.00  0.00    +0.000 A 
ATOM     12 BR   UNL     1      -6.443  12.272  19.031  0.00  0.00    +0.000 Br
ATOM     13  C   UNL     1      -4.029  11.629  17.682  0.00  0.00    +0.000 A 
ATOM     14  C   UNL     1      -2.658  11.495  17.552  0.00  0.00    +0.000 A 
ATOM     15  C   UNL     1      -1.788  11.886  18.569  0.00  0.00    +0.000 A 
ATOM     16  C   UNL     1      -2.329  12.469  19.717  0.00  0.00    +0.000 A 
ENDROOT
BRANCH   2  17
ATOM     17  C   UNL     1       0.427  14.295  19.794  0.00  0.00    +0.000 A 
ATOM     18  C   UNL     1       1.388  13.544  20.470  0.00  0.00    +0.000 A 
ATOM     19  C   UNL     1       2.737  13.713  20.159  0.00  0.00    +0.000 A 
ATOM     20  C   UNL     1       3.134  14.640  19.181  0.00  0.00    +0.000 A 
ATOM     21  C   UNL     1       2.156  15.317  18.440  0.00  0.00    +0.000 A 
ATOM     22  C   UNL     1       0.806  15.149  18.748  0.00  0.00    +0.000 A 
BRANCH  20  23
ATOM     23  C   UNL     1       4.594  14.980  18.989  0.00  0.00    +0.000 C 
ATOM     24  F   UNL     1       5.357  14.736  20.089  0.00  0.00    +0.000 F 
ATOM     25  F   UNL     1       5.169  14.290  17.968  0.00  0.00    +0.000 F 
ATOM     26  F   UNL     1       4.776  16.301  18.700  0.00  0.00    +0.000 F 
ENDBRANCH  20  23
ENDBRANCH   2  17
BRANCH   6  27
ATOM     27  O   UNL     1      -3.550  14.433  25.156  0.00  0.00    +0.000 OA
ATOM     28  H   UNL     1      -3.099  13.798  25.738  0.00  0.00    +0.000 HD
ENDBRANCH   6  27
BRANCH   7  29
ATOM     29  O   UNL     1      -5.832  13.202  24.405  0.00  0.00    +0.000 OA
ATOM     30  H   UNL     1      -5.560  13.768  25.149  0.00  0.00    +0.000 HD
ENDBRANCH   7  29
BRANCH  14  31
ATOM     31  O   UNL     1      -2.091  11.034  16.392  0.00  0.00    +0.000 OA
ATOM     32  H   UNL     1      -1.166  10.799  16.582  0.00  0.00    +0.000 HD
ENDBRANCH  14  31
BRANCH  15  33
ATOM     33  O   UNL     1      -0.443  11.696  18.405  0.00  0.00    +0.000 OA
ATOM     34  H   UNL     1      -0.112  12.550  18.056  0.00  0.00    +0.000 HD
ENDBRANCH  15  33
TORSDOF 6
ENDMDL
MODEL 6
REMARK VINA RESULT:      -6.4      4.863      7.503
REMARK  Name = 
REMARK  6 active torsions:
REMARK  status: ('A' for Active; 'I' for Inactive)
REMARK    1  A    between atoms: C_2  and  C_3
REMARK    2  A    between atoms: C_6  and  C_7
REMARK    3  A    between atoms: C_16  and  O_17
REMARK    4  A    between atoms: C_18  and  O_19
REMARK    5  A    between atoms: C_26  and  O_27
REMARK    6  A    between atoms: C_28  and  O_29
REMARK                            x       y       z     vdW  Elec       q    Type
REMARK                         _______ _______ _______ _____ _____    ______ ____
ROOT
ATOM      1  O   UNL     1      -1.190  13.975  20.864  0.00  0.00    +0.000 OA
ATOM      2  C   UNL     1      -1.475  12.817  20.546  0.00  0.00    +0.000 C 
ATOM      3  N   UNL     1      -2.830  12.458  20.694  0.00  0.00    +0.000 N 
ATOM      4  C   UNL     1      -3.647  12.943  21.714  0.00  0.00    +0.000 A 
ATOM      5  C   UNL     1      -3.327  13.329  23.034  0.00  0.00    +0.000 A 
ATOM      6  C   UNL     1      -4.358  13.866  23.807  0.00  0.00    +0.000 A 
ATOM      7  C   UNL     1      -5.641  14.007  23.286  0.00  0.00    +0.000 A 
ATOM      8  C   UNL     1      -5.940  13.647  21.984  0.00  0.00    +0.000 A 
ATOM      9  C   UNL     1      -4.916  13.113  21.165  0.00  0.00    +0.000 A 
ATOM     10  C   UNL     1      -4.833  12.723  19.792  0.00  0.00    +0.000 A 
ATOM     11  C   UNL     1      -5.633  12.892  18.639  0.00  0.00    +0.000 A 
ATOM     12 BR   UNL     1      -7.069  14.129  18.611  0.00  0.00    +0.000 Br
ATOM     13  C   UNL     1      -5.289  12.251  17.441  0.00  0.00    +0.000 A 
ATOM     14  C   UNL     1      -4.219  11.374  17.424  0.00  0.00    +0.000 A 
ATOM     15  C   UNL     1      -3.396  11.207  18.537  0.00  0.00    +0.000 A 
ATOM     16  C   UNL     1      -3.643  11.989  19.669  0.00  0.00    +0.000 A 
ENDROOT
BRANCH   2  17
ATOM     17  C   UNL     1      -0.365  11.960  20.105  0.00  0.00    +0.000 A 
ATOM     18  C   UNL     1       0.236  12.185  18.868  0.00  0.00    +0.000 A 
ATOM     19  C   UNL     1       1.021  11.187  18.293  0.00  0.00    +0.000 A 
ATOM     20  C   UNL     1       1.199   9.953  18.942  0.00  0.00    +0.000 A 
ATOM     21  C   UNL     1       0.672   9.775  20.228  0.00  0.00    +0.000 A 
ATOM     22  C   UNL     1      -0.112  10.772  20.807  0.00  0.00    +0.000 A 
BRANCH  20  23
ATOM     23  C   UNL     1       1.867   8.798  18.234  0.00  0.00    +0.000 C 
ATOM     24  F   UNL     1       2.936   9.170  17.479  0.00  0.00    +0.000 F 
ATOM     25  F   UNL     1       2.320   7.843  19.089  0.00  0.00    +0.000 F 
ATOM     26  F   UNL     1       1.015   8.164  17.379  0.00  0.00    +0.000 F 
ENDBRANCH  20  23
ENDBRANCH   2  17
BRANCH   6  27
ATOM     27  O   UNL     1      -4.152  14.277  25.094  0.00  0.00    +0.000 OA
ATOM     28  H   UNL     1      -3.205  14.177  25.295  0.00  0.00    +0.000 HD
ENDBRANCH   6  27
BRANCH   7  29
ATOM     29  O   UNL     1      -6.635  14.535  24.067  0.00  0.00    +0.000 OA
ATOM     30  H   UNL     1      -6.783  13.867  24.760  0.00  0.00    +0.000 HD
ENDBRANCH   7  29
BRANCH  14  31
ATOM     31  O   UNL     1      -3.881  10.679  16.292  0.00  0.00    +0.000 OA
ATOM     32  H   UNL     1      -2.970  10.918  16.052  0.00  0.00    +0.000 HD
ENDBRANCH  14  31
BRANCH  15  33
ATOM     33  O   UNL     1      -2.375  10.298  18.481  0.00  0.00    +0.000 OA
ATOM     34  H   UNL     1      -1.571  10.813  18.705  0.00  0.00    +0.000 HD
ENDBRANCH  15  33
TORSDOF 6
ENDMDL
MODEL 7
REMARK VINA RESULT:      -6.3      4.962      7.914
REMARK  Name = 
REMARK  6 active torsions:
REMARK  status: ('A' for Active; 'I' for Inactive)
REMARK    1  A    between atoms: C_2  and  C_3
REMARK    2  A    between atoms: C_6  and  C_7
REMARK    3  A    between atoms: C_16  and  O_17
REMARK    4  A    between atoms: C_18  and  O_19
REMARK    5  A    between atoms: C_26  and  O_27
REMARK    6  A    between atoms: C_28  and  O_29
REMARK                            x       y       z     vdW  Elec       q    Type
REMARK                         _______ _______ _______ _____ _____    ______ ____
ROOT
ATOM      1  O   UNL     1      -1.528  13.726  20.631  0.00  0.00    +0.000 OA
ATOM      2  C   UNL     1      -2.190  12.715  20.387  0.00  0.00    +0.000 C 
ATOM      3  N   UNL     1      -3.557  12.782  20.726  0.00  0.00    +0.000 N 
ATOM      4  C   UNL     1      -4.042  13.479  21.832  0.00  0.00    +0.000 A 
ATOM      5  C   UNL     1      -3.443  13.732  23.086  0.00  0.00    +0.000 A 
ATOM      6  C   UNL     1      -4.148  14.546  23.974  0.00  0.00    +0.000 A 
ATOM      7  C   UNL     1      -5.386  15.078  23.625  0.00  0.00    +0.000 A 
ATOM      8  C   UNL     1      -5.955  14.842  22.386  0.00  0.00    +0.000 A 
ATOM      9  C   UNL     1      -5.262  14.034  21.453  0.00  0.00    +0.000 A 
ATOM     10  C   UNL     1      -5.488  13.655  20.093  0.00  0.00    +0.000 A 
ATOM     11  C   UNL     1      -6.350  14.074  19.053  0.00  0.00    +0.000 A 
ATOM     12 BR   UNL     1      -7.333  15.689  19.182  0.00  0.00    +0.000 Br
ATOM     13  C   UNL     1      -6.382  13.374  17.839  0.00  0.00    +0.000 A 
ATOM     14  C   UNL     1      -5.641  12.215  17.704  0.00  0.00    +0.000 A 
ATOM     15  C   UNL     1      -4.763  11.791  18.702  0.00  0.00    +0.000 A 
ATOM     16  C   UNL     1      -4.606  12.595  19.833  0.00  0.00    +0.000 A 
ENDROOT
BRANCH   2  17
ATOM     17  C   UNL     1      -1.463  11.567  19.828  0.00  0.00    +0.000 A 
ATOM     18  C   UNL     1      -0.925  10.604  20.681  0.00  0.00    +0.000 A 
ATOM     19  C   UNL     1       0.052   9.730  20.203  0.00  0.00    +0.000 A 
ATOM     20  C   UNL     1       0.506   9.821  18.877  0.00  0.00    +0.000 A 
ATOM     21  C   UNL     1      -0.110  10.726  18.002  0.00  0.00    +0.000 A 
ATOM     22  C   UNL     1      -1.088  11.601  18.476  0.00  0.00    +0.000 A 
BRANCH  20  23
ATOM     23  C   UNL     1       1.705   9.026  18.416  0.00  0.00    +0.000 C 
ATOM     24  F   UNL     1       1.417   8.136  17.428  0.00  0.00    +0.000 F 
ATOM     25  F   UNL     1       2.709   9.809  17.940  0.00  0.00    +0.000 F 
ATOM     26  F   UNL     1       2.248   8.290  19.428  0.00  0.00    +0.000 F 
ENDBRANCH  20  23
ENDBRANCH   2  17
BRANCH   6  27
ATOM     27  O   UNL     1      -3.653  14.859  25.209  0.00  0.00    +0.000 OA
ATOM     28  H   UNL     1      -2.888  14.284  25.382  0.00  0.00    +0.000 HD
ENDBRANCH   6  27
BRANCH   7  29
ATOM     29  O   UNL     1      -6.057  15.872  24.516  0.00  0.00    +0.000 OA
ATOM     30  H   UNL     1      -5.387  16.117  25.179  0.00  0.00    +0.000 HD
ENDBRANCH   7  29
BRANCH  14  31
ATOM     31  O   UNL     1      -5.687  11.465  16.558  0.00  0.00    +0.000 OA
ATOM     32  H   UNL     1      -6.180  11.968  15.887  0.00  0.00    +0.000 HD
ENDBRANCH  14  31
BRANCH  15  33
ATOM     33  O   UNL     1      -4.082  10.616  18.535  0.00  0.00    +0.000 OA
ATOM     34  H   UNL     1      -3.812  10.355  19.441  0.00  0.00    +0.000 HD
ENDBRANCH  15  33
TORSDOF 6
ENDMDL
MODEL 8
REMARK VINA RESULT:      -6.3      4.749      7.505
REMARK  Name = 
REMARK  6 active torsions:
REMARK  status: ('A' for Active; 'I' for Inactive)
REMARK    1  A    between atoms: C_2  and  C_3
REMARK    2  A    between atoms: C_6  and  C_7
REMARK    3  A    between atoms: C_16  and  O_17
REMARK    4  A    between atoms: C_18  and  O_19
REMARK    5  A    between atoms: C_26  and  O_27
REMARK    6  A    between atoms: C_28  and  O_29
REMARK                            x       y       z     vdW  Elec       q    Type
REMARK                         _______ _______ _______ _____ _____    ______ ____
ROOT
ATOM      1  O   UNL     1      -1.296  11.533  21.957  0.00  0.00    +0.000 OA
ATOM      2  C   UNL     1      -1.299  12.120  20.872  0.00  0.00    +0.000 C 
ATOM      3  N   UNL     1      -0.720  13.405  20.871  0.00  0.00    +0.000 N 
ATOM      4  C   UNL     1      -0.799  14.285  21.950  0.00  0.00    +0.000 A 
ATOM      5  C   UNL     1      -1.808  14.448  22.923  0.00  0.00    +0.000 A 
ATOM      6  C   UNL     1      -1.563  15.364  23.947  0.00  0.00    +0.000 A 
ATOM      7  C   UNL     1      -0.369  16.079  23.993  0.00  0.00    +0.000 A 
ATOM      8  C   UNL     1       0.624  15.898  23.048  0.00  0.00    +0.000 A 
ATOM      9  C   UNL     1       0.416  14.965  22.002  0.00  0.00    +0.000 A 
ATOM     10  C   UNL     1       1.221  14.464  20.933  0.00  0.00    +0.000 A 
ATOM     11  C   UNL     1       2.592  14.510  20.586  0.00  0.00    +0.000 A 
ATOM     12 BR   UNL     1       3.901  15.086  21.829  0.00  0.00    +0.000 Br
ATOM     13  C   UNL     1       3.027  13.991  19.359  0.00  0.00    +0.000 A 
ATOM     14  C   UNL     1       2.094  13.526  18.450  0.00  0.00    +0.000 A 
ATOM     15  C   UNL     1       0.740  13.443  18.773  0.00  0.00    +0.000 A 
ATOM     16  C   UNL     1       0.343  13.796  20.065  0.00  0.00    +0.000 A 
ENDROOT
BRANCH   2  17
ATOM     17  C   UNL     1      -1.943  11.428  19.747  0.00  0.00    +0.000 A 
ATOM     18  C   UNL     1      -1.272  10.398  19.090  0.00  0.00    +0.000 A 
ATOM     19  C   UNL     1      -1.704   9.990  17.829  0.00  0.00    +0.000 A 
ATOM     20  C   UNL     1      -2.800  10.616  17.211  0.00  0.00    +0.000 A 
ATOM     21  C   UNL     1      -3.527  11.581  17.921  0.00  0.00    +0.000 A 
ATOM     22  C   UNL     1      -3.098  11.991  19.183  0.00  0.00    +0.000 A 
BRANCH  20  23
ATOM     23  C   UNL     1      -3.141  10.327  15.767  0.00  0.00    +0.000 C 
ATOM     24  F   UNL     1      -2.750   9.090  15.356  0.00  0.00    +0.000 F 
ATOM     25  F   UNL     1      -4.473  10.409  15.511  0.00  0.00    +0.000 F 
ATOM     26  F   UNL     1      -2.538  11.206  14.917  0.00  0.00    +0.000 F 
ENDBRANCH  20  23
ENDBRANCH   2  17
BRANCH   6  27
ATOM     27  O   UNL     1      -2.472  15.590  24.943  0.00  0.00    +0.000 OA
ATOM     28  H   UNL     1      -3.358  15.604  24.544  0.00  0.00    +0.000 HD
ENDBRANCH   6  27
BRANCH   7  29
ATOM     29  O   UNL     1      -0.155  16.973  25.009  0.00  0.00    +0.000 OA
ATOM     30  H   UNL     1      -0.927  17.566  24.980  0.00  0.00    +0.000 HD
ENDBRANCH   7  29
BRANCH  14  31
ATOM     31  O   UNL     1       2.467  13.064  17.215  0.00  0.00    +0.000 OA
ATOM     32  H   UNL     1       2.684  13.832  16.658  0.00  0.00    +0.000 HD
ENDBRANCH  14  31
BRANCH  15  33
ATOM     33  O   UNL     1      -0.146  13.013  17.824  0.00  0.00    +0.000 OA
ATOM     34  H   UNL     1       0.144  13.450  16.996  0.00  0.00    +0.000 HD
ENDBRANCH  15  33
TORSDOF 6
ENDMDL
MODEL 9
REMARK VINA RESULT:      -6.3      4.171      6.226
REMARK  Name = 
REMARK  6 active torsions:
REMARK  status: ('A' for Active; 'I' for Inactive)
REMARK    1  A    between atoms: C_2  and  C_3
REMARK    2  A    between atoms: C_6  and  C_7
REMARK    3  A    between atoms: C_16  and  O_17
REMARK    4  A    between atoms: C_18  and  O_19
REMARK    5  A    between atoms: C_26  and  O_27
REMARK    6  A    between atoms: C_28  and  O_29
REMARK                            x       y       z     vdW  Elec       q    Type
REMARK                         _______ _______ _______ _____ _____    ______ ____
ROOT
ATOM      1  O   UNL     1      -1.428  12.665  18.618  0.00  0.00    +0.000 OA
ATOM      2  C   UNL     1      -1.490  13.340  19.648  0.00  0.00    +0.000 C 
ATOM      3  N   UNL     1      -0.625  14.452  19.705  0.00  0.00    +0.000 N 
ATOM      4  C   UNL     1       0.650  14.463  19.140  0.00  0.00    +0.000 A 
ATOM      5  C   UNL     1       1.576  13.413  18.953  0.00  0.00    +0.000 A 
ATOM      6  C   UNL     1       2.753  13.717  18.267  0.00  0.00    +0.000 A 
ATOM      7  C   UNL     1       2.990  15.005  17.795  0.00  0.00    +0.000 A 
ATOM      8  C   UNL     1       2.069  16.023  17.963  0.00  0.00    +0.000 A 
ATOM      9  C   UNL     1       0.856  15.747  18.640  0.00  0.00    +0.000 A 
ATOM     10  C   UNL     1      -0.329  16.497  18.917  0.00  0.00    +0.000 A 
ATOM     11  C   UNL     1      -0.884  17.720  18.472  0.00  0.00    +0.000 A 
ATOM     12 BR   UNL     1      -0.200  18.611  16.945  0.00  0.00    +0.000 Br
ATOM     13  C   UNL     1      -2.048  18.224  19.066  0.00  0.00    +0.000 A 
ATOM     14  C   UNL     1      -2.592  17.569  20.156  0.00  0.00    +0.000 A 
ATOM     15  C   UNL     1      -2.083  16.349  20.602  0.00  0.00    +0.000 A 
ATOM     16  C   UNL     1      -1.033  15.768  19.887  0.00  0.00    +0.000 A 
ENDROOT
BRANCH   2  17
ATOM     17  C   UNL     1      -2.413  12.872  20.692  0.00  0.00    +0.000 A 
ATOM     18  C   UNL     1      -3.790  12.961  20.491  0.00  0.00    +0.000 A 
ATOM     19  C   UNL     1      -4.652  12.864  21.582  0.00  0.00    +0.000 A 
ATOM     20  C   UNL     1      -4.145  12.691  22.881  0.00  0.00    +0.000 A 
ATOM     21  C   UNL     1      -2.768  12.504  23.059  0.00  0.00    +0.000 A 
ATOM     22  C   UNL     1      -1.902  12.599  21.970  0.00  0.00    +0.000 A 
BRANCH  20  23
ATOM     23  C   UNL     1      -5.053  12.797  24.084  0.00  0.00    +0.000 C 
ATOM     24  F   UNL     1      -6.297  12.289  23.870  0.00  0.00    +0.000 F 
ATOM     25  F   UNL     1      -4.563  12.153  25.176  0.00  0.00    +0.000 F 
ATOM     26  F   UNL     1      -5.244  14.092  24.465  0.00  0.00    +0.000 F 
ENDBRANCH  20  23
ENDBRANCH   2  17
BRANCH   6  27
ATOM     27  O   UNL     1       3.710  12.771  18.027  0.00  0.00    +0.000 OA
ATOM     28  H   UNL     1       3.388  11.922  18.375  0.00  0.00    +0.000 HD
ENDBRANCH   6  27
BRANCH   7  29
ATOM     29  O   UNL     1       4.155  15.277  17.127  0.00  0.00    +0.000 OA
ATOM     30  H   UNL     1       4.060  16.201  16.834  0.00  0.00    +0.000 HD
ENDBRANCH   7  29
BRANCH  14  31
ATOM     31  O   UNL     1      -3.695  18.057  20.808  0.00  0.00    +0.000 OA
ATOM     32  H   UNL     1      -4.414  18.144  20.159  0.00  0.00    +0.000 HD
ENDBRANCH  14  31
BRANCH  15  33
ATOM     33  O   UNL     1      -2.633  15.762  21.709  0.00  0.00    +0.000 OA
ATOM     34  H   UNL     1      -2.406  16.365  22.448  0.00  0.00    +0.000 HD
ENDBRANCH  15  33
TORSDOF 6
ENDMDL
