MODEL 1
REMARK VINA RESULT:      -7.9      0.000      0.000
REMARK  Name = 
REMARK  7 active torsions:
REMARK  status: ('A' for Active; 'I' for Inactive)
REMARK    1  A    between atoms: N_1  and  C_2
REMARK    2  A    between atoms: C_4  and  C_5
REMARK    3  A    between atoms: C_5  and  O_6
REMARK    4  A    between atoms: N_7  and  C_8
REMARK    5  A    between atoms: C_17  and  C_18
REMARK    6  A    between atoms: C_18  and  O_20
REMARK    7  A    between atoms: N_22  and  C_23
REMARK                            x       y       z     vdW  Elec       q    Type
REMARK                         _______ _______ _______ _____ _____    ______ ____
ROOT
ATOM      1  C   UNL     1       1.765   8.683  18.914  0.00  0.00    +0.000 A 
ATOM      2  C   UNL     1       2.163   7.377  19.261  0.00  0.00    +0.000 A 
ATOM      3  C   UNL     1       3.063   6.604  18.505  0.00  0.00    +0.000 A 
ATOM      4  C   UNL     1       3.710   7.258  17.447  0.00  0.00    +0.000 A 
ATOM      5  C   UNL     1       3.371   8.566  17.081  0.00  0.00    +0.000 A 
ATOM      6  C   UNL     1       2.385   9.248  17.792  0.00  0.00    +0.000 A 
ATOM      7  F   UNL     1       2.092  10.499  17.405  0.00  0.00    +0.000 F 
ATOM      8  C   UNL     1       4.803   6.569  16.723  0.00  0.00    +0.000 A 
ATOM      9  O   UNL     1       5.411   7.118  15.806  0.00  0.00    +0.000 OA
ATOM     10  C   UNL     1       5.165   5.212  17.156  0.00  0.00    +0.000 A 
ATOM     11  C   UNL     1       4.415   4.647  18.114  0.00  0.00    +0.000 A 
ATOM     12  N   UNL     1       3.346   5.223  18.812  0.00  0.00    +0.000 N 
ENDROOT
BRANCH  12  13
ATOM     13  C   UNL     1       2.593   4.419  19.752  0.00  0.00    +0.000 A 
ATOM     14  C   UNL     1       2.986   4.316  21.105  0.00  0.00    +0.000 A 
ATOM     15  C   UNL     1       2.328   3.462  21.997  0.00  0.00    +0.000 A 
ATOM     16  C   UNL     1       1.209   2.760  21.575  0.00  0.00    +0.000 A 
ATOM     17  F   UNL     1       0.575   1.951  22.432  0.00  0.00    +0.000 F 
ATOM     18  C   UNL     1       0.740   2.890  20.278  0.00  0.00    +0.000 A 
ATOM     19  C   UNL     1       1.438   3.696  19.379  0.00  0.00    +0.000 A 
ATOM     20  F   UNL     1       0.988   3.725  18.115  0.00  0.00    +0.000 F 
ENDBRANCH  12  13
BRANCH   1  24
ATOM     21  C   UNL     1       0.361  10.748  21.524  0.00  0.00    +0.000 C 
ATOM     22  C   UNL     1      -0.773  10.860  20.509  0.00  0.00    +0.000 C 
ATOM     23  C   UNL     1      -0.170  10.309  19.202  0.00  0.00    +0.000 C 
ATOM     24  N   UNL     1       0.783   9.285  19.679  0.00  0.00    +0.000 N 
ATOM     25  C   UNL     1       1.004   9.403  21.132  0.00  0.00    +0.000 C 
BRANCH  21  26
ATOM     26  N   UNL     1       1.308  11.865  21.420  0.00  0.00    +0.000 NA
ATOM     27  H   UNL     1       0.932  12.684  21.896  0.00  0.00    +0.000 HD
ATOM     28  H   UNL     1       1.429  12.125  20.439  0.00  0.00    +0.000 HD
ENDBRANCH  21  26
BRANCH  23  29
ATOM     29  C   UNL     1      -1.247   9.664  18.313  0.00  0.00    +0.000 C 
BRANCH  29  30
ATOM     30  O   UNL     1      -1.243  10.254  17.007  0.00  0.00    +0.000 OA
ATOM     31  H   UNL     1      -0.594  10.982  17.075  0.00  0.00    +0.000 HD
ENDBRANCH  29  30
ENDBRANCH  23  29
ENDBRANCH   1  24
BRANCH  10  32
ATOM     32  C   UNL     1       6.294   4.447  16.581  0.00  0.00    +0.000 C 
ATOM     33  O   UNL     1       7.462   4.799  16.673  0.00  0.00    +0.000 OA
BRANCH  32  34
ATOM     34  O   UNL     1       5.936   3.326  15.919  0.00  0.00    +0.000 OA
ATOM     35  H   UNL     1       6.379   2.504  16.241  0.00  0.00    +0.000 HD
ENDBRANCH  32  34
ENDBRANCH  10  32
TORSDOF 7
ENDMDL
MODEL 2
REMARK VINA RESULT:      -7.6      1.234      1.462
REMARK  Name = 
REMARK  7 active torsions:
REMARK  status: ('A' for Active; 'I' for Inactive)
REMARK    1  A    between atoms: N_1  and  C_2
REMARK    2  A    between atoms: C_4  and  C_5
REMARK    3  A    between atoms: C_5  and  O_6
REMARK    4  A    between atoms: N_7  and  C_8
REMARK    5  A    between atoms: C_17  and  C_18
REMARK    6  A    between atoms: C_18  and  O_20
REMARK    7  A    between atoms: N_22  and  C_23
REMARK                            x       y       z     vdW  Elec       q    Type
REMARK                         _______ _______ _______ _____ _____    ______ ____
ROOT
ATOM      1  C   UNL     1       1.988   8.305  19.031  0.00  0.00    +0.000 A 
ATOM      2  C   UNL     1       2.428   6.994  19.301  0.00  0.00    +0.000 A 
ATOM      3  C   UNL     1       3.280   6.263  18.455  0.00  0.00    +0.000 A 
ATOM      4  C   UNL     1       3.837   6.963  17.375  0.00  0.00    +0.000 A 
ATOM      5  C   UNL     1       3.454   8.277  17.082  0.00  0.00    +0.000 A 
ATOM      6  C   UNL     1       2.514   8.917  17.887  0.00  0.00    +0.000 A 
ATOM      7  F   UNL     1       2.176  10.176  17.567  0.00  0.00    +0.000 F 
ATOM      8  C   UNL     1       4.882   6.317  16.548  0.00  0.00    +0.000 A 
ATOM      9  O   UNL     1       5.413   6.907  15.608  0.00  0.00    +0.000 OA
ATOM     10  C   UNL     1       5.295   4.953  16.905  0.00  0.00    +0.000 A 
ATOM     11  C   UNL     1       4.626   4.343  17.896  0.00  0.00    +0.000 A 
ATOM     12  N   UNL     1       3.604   4.877  18.690  0.00  0.00    +0.000 N 
ENDROOT
BRANCH  12  13
ATOM     13  C   UNL     1       2.935   4.029  19.655  0.00  0.00    +0.000 A 
ATOM     14  C   UNL     1       1.541   4.122  19.867  0.00  0.00    +0.000 A 
ATOM     15  C   UNL     1       0.901   3.383  20.868  0.00  0.00    +0.000 A 
ATOM     16  C   UNL     1       1.628   2.471  21.618  0.00  0.00    +0.000 A 
ATOM     17  F   UNL     1       1.011   1.758  22.568  0.00  0.00    +0.000 F 
ATOM     18  C   UNL     1       2.982   2.290  21.392  0.00  0.00    +0.000 A 
ATOM     19  C   UNL     1       3.624   3.074  20.435  0.00  0.00    +0.000 A 
ATOM     20  F   UNL     1       4.951   2.915  20.311  0.00  0.00    +0.000 F 
ENDBRANCH  12  13
BRANCH   1  24
ATOM     21  C   UNL     1       0.452   9.188  22.179  0.00  0.00    +0.000 C 
ATOM     22  C   UNL     1      -0.043  10.367  21.345  0.00  0.00    +0.000 C 
ATOM     23  C   UNL     1       0.812  10.311  20.063  0.00  0.00    +0.000 C 
ATOM     24  N   UNL     1       1.057   8.864  19.887  0.00  0.00    +0.000 N 
ATOM     25  C   UNL     1       0.683   8.112  21.100  0.00  0.00    +0.000 C 
BRANCH  21  26
ATOM     26  N   UNL     1       1.682   9.508  22.913  0.00  0.00    +0.000 NA
ATOM     27  H   UNL     1       1.500   9.499  23.916  0.00  0.00    +0.000 HD
ATOM     28  H   UNL     1       1.987  10.455  22.679  0.00  0.00    +0.000 HD
ENDBRANCH  21  26
BRANCH  23  29
ATOM     29  C   UNL     1       0.048  10.875  18.853  0.00  0.00    +0.000 C 
BRANCH  29  30
ATOM     30  O   UNL     1      -1.138  10.110  18.604  0.00  0.00    +0.000 OA
ATOM     31  H   UNL     1      -1.833  10.784  18.464  0.00  0.00    +0.000 HD
ENDBRANCH  29  30
ENDBRANCH  23  29
ENDBRANCH   1  24
BRANCH  10  32
ATOM     32  C   UNL     1       6.388   4.226  16.221  0.00  0.00    +0.000 C 
ATOM     33  O   UNL     1       7.563   4.558  16.292  0.00  0.00    +0.000 OA
BRANCH  32  34
ATOM     34  O   UNL     1       5.987   3.167  15.486  0.00  0.00    +0.000 OA
ATOM     35  H   UNL     1       5.978   3.329  14.511  0.00  0.00    +0.000 HD
ENDBRANCH  32  34
ENDBRANCH  10  32
TORSDOF 7
ENDMDL
MODEL 3
REMARK VINA RESULT:      -7.3      3.104      5.135
REMARK  Name = 
REMARK  7 active torsions:
REMARK  status: ('A' for Active; 'I' for Inactive)
REMARK    1  A    between atoms: N_1  and  C_2
REMARK    2  A    between atoms: C_4  and  C_5
REMARK    3  A    between atoms: C_5  and  O_6
REMARK    4  A    between atoms: N_7  and  C_8
REMARK    5  A    between atoms: C_17  and  C_18
REMARK    6  A    between atoms: C_18  and  O_20
REMARK    7  A    between atoms: N_22  and  C_23
REMARK                            x       y       z     vdW  Elec       q    Type
REMARK                         _______ _______ _______ _____ _____    ______ ____
ROOT
ATOM      1  C   UNL     1       1.893   7.367  19.968  0.00  0.00    +0.000 A 
ATOM      2  C   UNL     1       3.050   6.833  19.367  0.00  0.00    +0.000 A 
ATOM      3  C   UNL     1       3.485   5.507  19.545  0.00  0.00    +0.000 A 
ATOM      4  C   UNL     1       2.611   4.650  20.228  0.00  0.00    +0.000 A 
ATOM      5  C   UNL     1       1.434   5.127  20.819  0.00  0.00    +0.000 A 
ATOM      6  C   UNL     1       1.108   6.477  20.712  0.00  0.00    +0.000 A 
ATOM      7  F   UNL     1      -0.028   6.889  21.296  0.00  0.00    +0.000 F 
ATOM      8  C   UNL     1       2.913   3.202  20.295  0.00  0.00    +0.000 A 
ATOM      9  O   UNL     1       2.159   2.413  20.863  0.00  0.00    +0.000 OA
ATOM     10  C   UNL     1       4.134   2.723  19.630  0.00  0.00    +0.000 A 
ATOM     11  C   UNL     1       4.946   3.645  19.091  0.00  0.00    +0.000 A 
ATOM     12  N   UNL     1       4.744   5.028  19.027  0.00  0.00    +0.000 N 
ENDROOT
BRANCH  12  13
ATOM     13  C   UNL     1       5.785   5.877  18.484  0.00  0.00    +0.000 A 
ATOM     14  C   UNL     1       7.043   5.986  19.117  0.00  0.00    +0.000 A 
ATOM     15  C   UNL     1       8.018   6.880  18.661  0.00  0.00    +0.000 A 
ATOM     16  C   UNL     1       7.786   7.620  17.512  0.00  0.00    +0.000 A 
ATOM     17  F   UNL     1       8.725   8.468  17.072  0.00  0.00    +0.000 F 
ATOM     18  C   UNL     1       6.598   7.488  16.814  0.00  0.00    +0.000 A 
ATOM     19  C   UNL     1       5.607   6.641  17.309  0.00  0.00    +0.000 A 
ATOM     20  F   UNL     1       4.445   6.610  16.639  0.00  0.00    +0.000 F 
ENDBRANCH  12  13
BRANCH   1  24
ATOM     21  C   UNL     1       0.712  10.375  18.357  0.00  0.00    +0.000 C 
ATOM     22  C   UNL     1       0.570  10.824  19.808  0.00  0.00    +0.000 C 
ATOM     23  C   UNL     1       0.714   9.523  20.624  0.00  0.00    +0.000 C 
ATOM     24  N   UNL     1       1.645   8.717  19.807  0.00  0.00    +0.000 N 
ATOM     25  C   UNL     1       1.812   9.302  18.463  0.00  0.00    +0.000 C 
BRANCH  21  26
ATOM     26  N   UNL     1      -0.543   9.831  17.822  0.00  0.00    +0.000 NA
ATOM     27  H   UNL     1      -0.350   9.009  17.252  0.00  0.00    +0.000 HD
ATOM     28  H   UNL     1      -0.983  10.519  17.208  0.00  0.00    +0.000 HD
ENDBRANCH  21  26
BRANCH  23  29
ATOM     29  C   UNL     1       1.319   9.794  22.013  0.00  0.00    +0.000 C 
BRANCH  29  30
ATOM     30  O   UNL     1       0.284  10.021  22.977  0.00  0.00    +0.000 OA
ATOM     31  H   UNL     1      -0.406   9.368  22.747  0.00  0.00    +0.000 HD
ENDBRANCH  29  30
ENDBRANCH  23  29
ENDBRANCH   1  24
BRANCH  10  32
ATOM     32  C   UNL     1       4.508   1.294  19.543  0.00  0.00    +0.000 C 
ATOM     33  O   UNL     1       5.261   0.746  20.335  0.00  0.00    +0.000 OA
BRANCH  32  34
ATOM     34  O   UNL     1       3.966   0.632  18.498  0.00  0.00    +0.000 OA
ATOM     35  H   UNL     1       3.234   1.118  18.044  0.00  0.00    +0.000 HD
ENDBRANCH  32  34
ENDBRANCH  10  32
TORSDOF 7
ENDMDL
MODEL 4
REMARK VINA RESULT:      -7.1      7.614      9.993
REMARK  Name = 
REMARK  7 active torsions:
REMARK  status: ('A' for Active; 'I' for Inactive)
REMARK    1  A    between atoms: N_1  and  C_2
REMARK    2  A    between atoms: C_4  and  C_5
REMARK    3  A    between atoms: C_5  and  O_6
REMARK    4  A    between atoms: N_7  and  C_8
REMARK    5  A    between atoms: C_17  and  C_18
REMARK    6  A    between atoms: C_18  and  O_20
REMARK    7  A    between atoms: N_22  and  C_23
REMARK                            x       y       z     vdW  Elec       q    Type
REMARK                         _______ _______ _______ _____ _____    ______ ____
ROOT
ATOM      1  C   UNL     1      -0.721  13.673  20.393  0.00  0.00    +0.000 A 
ATOM      2  C   UNL     1      -1.706  13.059  19.594  0.00  0.00    +0.000 A 
ATOM      3  C   UNL     1      -2.979  12.691  20.064  0.00  0.00    +0.000 A 
ATOM      4  C   UNL     1      -3.316  13.122  21.354  0.00  0.00    +0.000 A 
ATOM      5  C   UNL     1      -2.382  13.762  22.177  0.00  0.00    +0.000 A 
ATOM      6  C   UNL     1      -1.093  13.999  21.703  0.00  0.00    +0.000 A 
ATOM      7  F   UNL     1      -0.231  14.614  22.528  0.00  0.00    +0.000 F 
ATOM      8  C   UNL     1      -4.700  12.934  21.848  0.00  0.00    +0.000 A 
ATOM      9  O   UNL     1      -5.042  13.321  22.965  0.00  0.00    +0.000 OA
ATOM     10  C   UNL     1      -5.670  12.297  20.947  0.00  0.00    +0.000 A 
ATOM     11  C   UNL     1      -5.214  11.836  19.772  0.00  0.00    +0.000 A 
ATOM     12  N   UNL     1      -3.916  11.943  19.260  0.00  0.00    +0.000 N 
ENDROOT
BRANCH  12  13
ATOM     13  C   UNL     1      -3.588  11.297  18.006  0.00  0.00    +0.000 A 
ATOM     14  C   UNL     1      -2.553  10.339  17.924  0.00  0.00    +0.000 A 
ATOM     15  C   UNL     1      -2.160   9.786  16.700  0.00  0.00    +0.000 A 
ATOM     16  C   UNL     1      -2.853  10.115  15.545  0.00  0.00    +0.000 A 
ATOM     17  F   UNL     1      -2.481   9.577  14.377  0.00  0.00    +0.000 F 
ATOM     18  C   UNL     1      -3.925  10.990  15.589  0.00  0.00    +0.000 A 
ATOM     19  C   UNL     1      -4.272  11.584  16.803  0.00  0.00    +0.000 A 
ATOM     20  F   UNL     1      -5.267  12.483  16.776  0.00  0.00    +0.000 F 
ENDBRANCH  12  13
BRANCH   1  24
ATOM     21  C   UNL     1       2.416  12.804  18.828  0.00  0.00    +0.000 C 
ATOM     22  C   UNL     1       2.268  14.219  18.274  0.00  0.00    +0.000 C 
ATOM     23  C   UNL     1       0.805  14.596  18.580  0.00  0.00    +0.000 C 
ATOM     24  N   UNL     1       0.530  13.873  19.839  0.00  0.00    +0.000 N 
ATOM     25  C   UNL     1       1.587  12.885  20.124  0.00  0.00    +0.000 C 
BRANCH  21  26
ATOM     26  N   UNL     1       1.898  11.791  17.901  0.00  0.00    +0.000 NA
ATOM     27  H   UNL     1       2.552  11.658  17.132  0.00  0.00    +0.000 HD
ATOM     28  H   UNL     1       1.021  12.116  17.489  0.00  0.00    +0.000 HD
ENDBRANCH  21  26
BRANCH  23  29
ATOM     29  C   UNL     1       0.648  16.113  18.788  0.00  0.00    +0.000 C 
BRANCH  29  30
ATOM     30  O   UNL     1      -0.613  16.563  18.277  0.00  0.00    +0.000 OA
ATOM     31  H   UNL     1      -0.410  16.869  17.371  0.00  0.00    +0.000 HD
ENDBRANCH  29  30
ENDBRANCH  23  29
ENDBRANCH   1  24
BRANCH  10  32
ATOM     32  C   UNL     1      -7.103  12.129  21.278  0.00  0.00    +0.000 C 
ATOM     33  O   UNL     1      -7.916  13.042  21.228  0.00  0.00    +0.000 OA
BRANCH  32  34
ATOM     34  O   UNL     1      -7.450  10.884  21.665  0.00  0.00    +0.000 OA
ATOM     35  H   UNL     1      -6.724  10.377  22.105  0.00  0.00    +0.000 HD
ENDBRANCH  32  34
ENDBRANCH  10  32
TORSDOF 7
ENDMDL
MODEL 5
REMARK VINA RESULT:      -7.1      6.542      9.685
REMARK  Name = 
REMARK  7 active torsions:
REMARK  status: ('A' for Active; 'I' for Inactive)
REMARK    1  A    between atoms: N_1  and  C_2
REMARK    2  A    between atoms: C_4  and  C_5
REMARK    3  A    between atoms: C_5  and  O_6
REMARK    4  A    between atoms: N_7  and  C_8
REMARK    5  A    between atoms: C_17  and  C_18
REMARK    6  A    between atoms: C_18  and  O_20
REMARK    7  A    between atoms: N_22  and  C_23
REMARK                            x       y       z     vdW  Elec       q    Type
REMARK                         _______ _______ _______ _____ _____    ______ ____
ROOT
ATOM      1  C   UNL     1       1.021  14.849  20.168  0.00  0.00    +0.000 A 
ATOM      2  C   UNL     1      -0.118  14.036  20.005  0.00  0.00    +0.000 A 
ATOM      3  C   UNL     1      -0.963  13.650  21.060  0.00  0.00    +0.000 A 
ATOM      4  C   UNL     1      -0.729  14.257  22.301  0.00  0.00    +0.000 A 
ATOM      5  C   UNL     1       0.373  15.096  22.507  0.00  0.00    +0.000 A 
ATOM      6  C   UNL     1       1.250  15.354  21.454  0.00  0.00    +0.000 A 
ATOM      7  F   UNL     1       2.293  16.162  21.699  0.00  0.00    +0.000 F 
ATOM      8  C   UNL     1      -1.686  14.043  23.411  0.00  0.00    +0.000 A 
ATOM      9  O   UNL     1      -1.529  14.579  24.507  0.00  0.00    +0.000 OA
ATOM     10  C   UNL     1      -2.857  13.192  23.154  0.00  0.00    +0.000 A 
ATOM     11  C   UNL     1      -2.928  12.583  21.960  0.00  0.00    +0.000 A 
ATOM     12  N   UNL     1      -2.042  12.708  20.884  0.00  0.00    +0.000 N 
ENDROOT
BRANCH  12  13
ATOM     13  C   UNL     1      -2.237  11.894  19.702  0.00  0.00    +0.000 A 
ATOM     14  C   UNL     1      -3.382  12.046  18.889  0.00  0.00    +0.000 A 
ATOM     15  C   UNL     1      -3.631  11.196  17.806  0.00  0.00    +0.000 A 
ATOM     16  C   UNL     1      -2.695  10.233  17.461  0.00  0.00    +0.000 A 
ATOM     17  F   UNL     1      -2.931   9.427  16.419  0.00  0.00    +0.000 F 
ATOM     18  C   UNL     1      -1.521  10.098  18.182  0.00  0.00    +0.000 A 
ATOM     19  C   UNL     1      -1.309  10.908  19.297  0.00  0.00    +0.000 A 
ATOM     20  F   UNL     1      -0.193  10.684  20.007  0.00  0.00    +0.000 F 
ENDBRANCH  12  13
BRANCH   1  24
ATOM     21  C   UNL     1       3.214  16.638  17.924  0.00  0.00    +0.000 C 
ATOM     22  C   UNL     1       3.737  15.226  17.677  0.00  0.00    +0.000 C 
ATOM     23  C   UNL     1       3.128  14.389  18.820  0.00  0.00    +0.000 C 
ATOM     24  N   UNL     1       1.833  15.055  19.068  0.00  0.00    +0.000 N 
ATOM     25  C   UNL     1       1.771  16.363  18.389  0.00  0.00    +0.000 C 
BRANCH  21  26
ATOM     26  N   UNL     1       3.999  17.347  18.941  0.00  0.00    +0.000 NA
ATOM     27  H   UNL     1       3.494  18.175  19.255  0.00  0.00    +0.000 HD
ATOM     28  H   UNL     1       4.876  17.676  18.533  0.00  0.00    +0.000 HD
ENDBRANCH  21  26
BRANCH  23  29
ATOM     29  C   UNL     1       2.906  12.928  18.390  0.00  0.00    +0.000 C 
BRANCH  29  30
ATOM     30  O   UNL     1       2.314  12.870  17.087  0.00  0.00    +0.000 OA
ATOM     31  H   UNL     1       1.654  12.152  17.155  0.00  0.00    +0.000 HD
ENDBRANCH  29  30
ENDBRANCH  23  29
ENDBRANCH   1  24
BRANCH  10  32
ATOM     32  C   UNL     1      -3.935  12.968  24.143  0.00  0.00    +0.000 C 
ATOM     33  O   UNL     1      -4.331  11.857  24.465  0.00  0.00    +0.000 OA
BRANCH  32  34
ATOM     34  O   UNL     1      -4.470  14.095  24.657  0.00  0.00    +0.000 OA
ATOM     35  H   UNL     1      -4.020  14.927  24.371  0.00  0.00    +0.000 HD
ENDBRANCH  32  34
ENDBRANCH  10  32
TORSDOF 7
ENDMDL
MODEL 6
REMARK VINA RESULT:      -6.9      7.337     10.525
REMARK  Name = 
REMARK  7 active torsions:
REMARK  status: ('A' for Active; 'I' for Inactive)
REMARK    1  A    between atoms: N_1  and  C_2
REMARK    2  A    between atoms: C_4  and  C_5
REMARK    3  A    between atoms: C_5  and  O_6
REMARK    4  A    between atoms: N_7  and  C_8
REMARK    5  A    between atoms: C_17  and  C_18
REMARK    6  A    between atoms: C_18  and  O_20
REMARK    7  A    between atoms: N_22  and  C_23
REMARK                            x       y       z     vdW  Elec       q    Type
REMARK                         _______ _______ _______ _____ _____    ______ ____
ROOT
ATOM      1  C   UNL     1      -5.387  13.198  20.886  0.00  0.00    +0.000 A 
ATOM      2  C   UNL     1      -4.101  12.802  21.303  0.00  0.00    +0.000 A 
ATOM      3  C   UNL     1      -3.294  13.553  22.176  0.00  0.00    +0.000 A 
ATOM      4  C   UNL     1      -3.895  14.667  22.778  0.00  0.00    +0.000 A 
ATOM      5  C   UNL     1      -5.183  15.084  22.420  0.00  0.00    +0.000 A 
ATOM      6  C   UNL     1      -5.896  14.370  21.459  0.00  0.00    +0.000 A 
ATOM      7  F   UNL     1      -7.126  14.808  21.145  0.00  0.00    +0.000 F 
ATOM      8  C   UNL     1      -3.174  15.398  23.846  0.00  0.00    +0.000 A 
ATOM      9  O   UNL     1      -3.678  16.364  24.416  0.00  0.00    +0.000 OA
ATOM     10  C   UNL     1      -1.842  14.912  24.231  0.00  0.00    +0.000 A 
ATOM     11  C   UNL     1      -1.324  13.898  23.521  0.00  0.00    +0.000 A 
ATOM     12  N   UNL     1      -1.930  13.189  22.478  0.00  0.00    +0.000 N 
ENDROOT
BRANCH  12  13
ATOM     13  C   UNL     1      -1.173  12.181  21.766  0.00  0.00    +0.000 A 
ATOM     14  C   UNL     1      -0.642  12.436  20.482  0.00  0.00    +0.000 A 
ATOM     15  C   UNL     1       0.001  11.437  19.742  0.00  0.00    +0.000 A 
ATOM     16  C   UNL     1       0.203  10.187  20.309  0.00  0.00    +0.000 A 
ATOM     17  F   UNL     1       0.827   9.236  19.603  0.00  0.00    +0.000 F 
ATOM     18  C   UNL     1      -0.231   9.916  21.595  0.00  0.00    +0.000 A 
ATOM     19  C   UNL     1      -0.925  10.897  22.302  0.00  0.00    +0.000 A 
ATOM     20  F   UNL     1      -1.393  10.556  23.512  0.00  0.00    +0.000 F 
ENDBRANCH  12  13
BRANCH   1  24
ATOM     21  C   UNL     1      -5.754  11.256  17.863  0.00  0.00    +0.000 C 
ATOM     22  C   UNL     1      -6.823  10.568  18.707  0.00  0.00    +0.000 C 
ATOM     23  C   UNL     1      -6.551  11.062  20.142  0.00  0.00    +0.000 C 
ATOM     24  N   UNL     1      -6.024  12.426  19.932  0.00  0.00    +0.000 N 
ATOM     25  C   UNL     1      -5.686  12.651  18.513  0.00  0.00    +0.000 C 
BRANCH  21  26
ATOM     26  N   UNL     1      -4.466  10.553  17.925  0.00  0.00    +0.000 NA
ATOM     27  H   UNL     1      -4.402  10.019  18.790  0.00  0.00    +0.000 HD
ATOM     28  H   UNL     1      -3.703  11.232  17.941  0.00  0.00    +0.000 HD
ENDBRANCH  21  26
BRANCH  23  29
ATOM     29  C   UNL     1      -7.844  11.111  20.975  0.00  0.00    +0.000 C 
BRANCH  29  30
ATOM     30  O   UNL     1      -7.751  10.231  22.102  0.00  0.00    +0.000 OA
ATOM     31  H   UNL     1      -8.141  10.743  22.838  0.00  0.00    +0.000 HD
ENDBRANCH  29  30
ENDBRANCH  23  29
ENDBRANCH   1  24
BRANCH  10  32
ATOM     32  C   UNL     1      -1.052  15.492  25.341  0.00  0.00    +0.000 C 
ATOM     33  O   UNL     1       0.054  15.992  25.189  0.00  0.00    +0.000 OA
BRANCH  32  34
ATOM     34  O   UNL     1      -1.639  15.410  26.553  0.00  0.00    +0.000 OA
ATOM     35  H   UNL     1      -2.240  14.633  26.663  0.00  0.00    +0.000 HD
ENDBRANCH  32  34
ENDBRANCH  10  32
TORSDOF 7
ENDMDL
MODEL 7
REMARK VINA RESULT:      -6.9      7.500      9.970
REMARK  Name = 
REMARK  7 active torsions:
REMARK  status: ('A' for Active; 'I' for Inactive)
REMARK    1  A    between atoms: N_1  and  C_2
REMARK    2  A    between atoms: C_4  and  C_5
REMARK    3  A    between atoms: C_5  and  O_6
REMARK    4  A    between atoms: N_7  and  C_8
REMARK    5  A    between atoms: C_17  and  C_18
REMARK    6  A    between atoms: C_18  and  O_20
REMARK    7  A    between atoms: N_22  and  C_23
REMARK                            x       y       z     vdW  Elec       q    Type
REMARK                         _______ _______ _______ _____ _____    ______ ____
ROOT
ATOM      1  C   UNL     1      -0.748  13.723  20.592  0.00  0.00    +0.000 A 
ATOM      2  C   UNL     1      -1.697  13.114  19.748  0.00  0.00    +0.000 A 
ATOM      3  C   UNL     1      -2.972  12.701  20.172  0.00  0.00    +0.000 A 
ATOM      4  C   UNL     1      -3.352  13.079  21.467  0.00  0.00    +0.000 A 
ATOM      5  C   UNL     1      -2.454  13.712  22.335  0.00  0.00    +0.000 A 
ATOM      6  C   UNL     1      -1.160  13.994  21.903  0.00  0.00    +0.000 A 
ATOM      7  F   UNL     1      -0.334  14.600  22.770  0.00  0.00    +0.000 F 
ATOM      8  C   UNL     1      -4.743  12.842  21.918  0.00  0.00    +0.000 A 
ATOM      9  O   UNL     1      -5.121  13.183  23.038  0.00  0.00    +0.000 OA
ATOM     10  C   UNL     1      -5.675  12.215  20.971  0.00  0.00    +0.000 A 
ATOM     11  C   UNL     1      -5.178  11.805  19.794  0.00  0.00    +0.000 A 
ATOM     12  N   UNL     1      -3.870  11.960  19.319  0.00  0.00    +0.000 N 
ENDROOT
BRANCH  12  13
ATOM     13  C   UNL     1      -3.497  11.365  18.053  0.00  0.00    +0.000 A 
ATOM     14  C   UNL     1      -4.185  11.686  16.862  0.00  0.00    +0.000 A 
ATOM     15  C   UNL     1      -3.901  11.041  15.653  0.00  0.00    +0.000 A 
ATOM     16  C   UNL     1      -2.863  10.124  15.593  0.00  0.00    +0.000 A 
ATOM     17  F   UNL     1      -2.586   9.515  14.433  0.00  0.00    +0.000 F 
ATOM     18  C   UNL     1      -2.109   9.835  16.718  0.00  0.00    +0.000 A 
ATOM     19  C   UNL     1      -2.438  10.437  17.932  0.00  0.00    +0.000 A 
ATOM     20  F   UNL     1      -1.727  10.063  19.007  0.00  0.00    +0.000 F 
ENDBRANCH  12  13
BRANCH   1  24
ATOM     21  C   UNL     1       2.385  13.011  18.942  0.00  0.00    +0.000 C 
ATOM     22  C   UNL     1       2.270  14.490  18.584  0.00  0.00    +0.000 C 
ATOM     23  C   UNL     1       0.812  14.852  18.930  0.00  0.00    +0.000 C 
ATOM     24  N   UNL     1       0.512  13.971  20.078  0.00  0.00    +0.000 N 
ATOM     25  C   UNL     1       1.546  12.931  20.232  0.00  0.00    +0.000 C 
BRANCH  21  26
ATOM     26  N   UNL     1       1.856  12.144  17.882  0.00  0.00    +0.000 NA
ATOM     27  H   UNL     1       2.350  11.253  17.882  0.00  0.00    +0.000 HD
ATOM     28  H   UNL     1       2.022  12.573  16.970  0.00  0.00    +0.000 HD
ENDBRANCH  21  26
BRANCH  23  29
ATOM     29  C   UNL     1       0.682  16.329  19.342  0.00  0.00    +0.000 C 
BRANCH  29  30
ATOM     30  O   UNL     1       1.395  16.578  20.560  0.00  0.00    +0.000 OA
ATOM     31  H   UNL     1       1.064  15.894  21.175  0.00  0.00    +0.000 HD
ENDBRANCH  29  30
ENDBRANCH  23  29
ENDBRANCH   1  24
BRANCH  10  32
ATOM     32  C   UNL     1      -7.111  12.003  21.260  0.00  0.00    +0.000 C 
ATOM     33  O   UNL     1      -7.646  10.904  21.241  0.00  0.00    +0.000 OA
BRANCH  32  34
ATOM     34  O   UNL     1      -7.803  13.130  21.530  0.00  0.00    +0.000 OA
ATOM     35  H   UNL     1      -8.349  13.085  22.353  0.00  0.00    +0.000 HD
ENDBRANCH  32  34
ENDBRANCH  10  32
TORSDOF 7
ENDMDL
MODEL 8
REMARK VINA RESULT:      -6.8      7.385     10.424
REMARK  Name = 
REMARK  7 active torsions:
REMARK  status: ('A' for Active; 'I' for Inactive)
REMARK    1  A    between atoms: N_1  and  C_2
REMARK    2  A    between atoms: C_4  and  C_5
REMARK    3  A    between atoms: C_5  and  O_6
REMARK    4  A    between atoms: N_7  and  C_8
REMARK    5  A    between atoms: C_17  and  C_18
REMARK    6  A    between atoms: C_18  and  O_20
REMARK    7  A    between atoms: N_22  and  C_23
REMARK                            x       y       z     vdW  Elec       q    Type
REMARK                         _______ _______ _______ _____ _____    ______ ____
ROOT
ATOM      1  C   UNL     1      -5.318  13.328  20.810  0.00  0.00    +0.000 A 
ATOM      2  C   UNL     1      -4.156  12.811  21.414  0.00  0.00    +0.000 A 
ATOM      3  C   UNL     1      -3.301  13.561  22.240  0.00  0.00    +0.000 A 
ATOM      4  C   UNL     1      -3.744  14.842  22.596  0.00  0.00    +0.000 A 
ATOM      5  C   UNL     1      -4.909  15.391  22.045  0.00  0.00    +0.000 A 
ATOM      6  C   UNL     1      -5.659  14.646  21.138  0.00  0.00    +0.000 A 
ATOM      7  F   UNL     1      -6.766  15.214  20.634  0.00  0.00    +0.000 F 
ATOM      8  C   UNL     1      -2.991  15.621  23.607  0.00  0.00    +0.000 A 
ATOM      9  O   UNL     1      -3.362  16.738  23.965  0.00  0.00    +0.000 OA
ATOM     10  C   UNL     1      -1.797  15.002  24.199  0.00  0.00    +0.000 A 
ATOM     11  C   UNL     1      -1.409  13.813  23.713  0.00  0.00    +0.000 A 
ATOM     12  N   UNL     1      -2.048  13.043  22.734  0.00  0.00    +0.000 N 
ENDROOT
BRANCH  12  13
ATOM     13  C   UNL     1      -1.424  11.821  22.270  0.00  0.00    +0.000 A 
ATOM     14  C   UNL     1      -1.246  10.717  23.132  0.00  0.00    +0.000 A 
ATOM     15  C   UNL     1      -0.553   9.571  22.724  0.00  0.00    +0.000 A 
ATOM     16  C   UNL     1      -0.101   9.473  21.417  0.00  0.00    +0.000 A 
ATOM     17  F   UNL     1       0.554   8.373  21.026  0.00  0.00    +0.000 F 
ATOM     18  C   UNL     1      -0.322  10.499  20.514  0.00  0.00    +0.000 A 
ATOM     19  C   UNL     1      -0.959  11.662  20.945  0.00  0.00    +0.000 A 
ATOM     20  F   UNL     1      -1.077  12.656  20.052  0.00  0.00    +0.000 F 
ENDBRANCH  12  13
BRANCH   1  24
ATOM     21  C   UNL     1      -5.836  11.234  17.912  0.00  0.00    +0.000 C 
ATOM     22  C   UNL     1      -6.877  10.608  18.836  0.00  0.00    +0.000 C 
ATOM     23  C   UNL     1      -6.539  11.173  20.229  0.00  0.00    +0.000 C 
ATOM     24  N   UNL     1      -6.004  12.517  19.925  0.00  0.00    +0.000 N 
ATOM     25  C   UNL     1      -5.724  12.661  18.484  0.00  0.00    +0.000 C 
BRANCH  21  26
ATOM     26  N   UNL     1      -4.556  10.518  17.958  0.00  0.00    +0.000 NA
ATOM     27  H   UNL     1      -4.270  10.256  17.015  0.00  0.00    +0.000 HD
ATOM     28  H   UNL     1      -4.665   9.649  18.484  0.00  0.00    +0.000 HD
ENDBRANCH  21  26
BRANCH  23  29
ATOM     29  C   UNL     1      -7.795  11.284  21.111  0.00  0.00    +0.000 C 
BRANCH  29  30
ATOM     30  O   UNL     1      -7.460  11.091  22.491  0.00  0.00    +0.000 OA
ATOM     31  H   UNL     1      -7.796  11.895  22.934  0.00  0.00    +0.000 HD
ENDBRANCH  29  30
ENDBRANCH  23  29
ENDBRANCH   1  24
BRANCH  10  32
ATOM     32  C   UNL     1      -1.005  15.630  25.282  0.00  0.00    +0.000 C 
ATOM     33  O   UNL     1       0.027  16.255  25.084  0.00  0.00    +0.000 OA
BRANCH  32  34
ATOM     34  O   UNL     1      -1.501  15.443  26.523  0.00  0.00    +0.000 OA
ATOM     35  H   UNL     1      -0.816  15.271  27.214  0.00  0.00    +0.000 HD
ENDBRANCH  32  34
ENDBRANCH  10  32
TORSDOF 7
ENDMDL
MODEL 9
REMARK VINA RESULT:      -6.8      7.123      9.801
REMARK  Name = 
REMARK  7 active torsions:
REMARK  status: ('A' for Active; 'I' for Inactive)
REMARK    1  A    between atoms: N_1  and  C_2
REMARK    2  A    between atoms: C_4  and  C_5
REMARK    3  A    between atoms: C_5  and  O_6
REMARK    4  A    between atoms: N_7  and  C_8
REMARK    5  A    between atoms: C_17  and  C_18
REMARK    6  A    between atoms: C_18  and  O_20
REMARK    7  A    between atoms: N_22  and  C_23
REMARK                            x       y       z     vdW  Elec       q    Type
REMARK                         _______ _______ _______ _____ _____    ______ ____
ROOT
ATOM      1  C   UNL     1       1.315  15.257  20.792  0.00  0.00    +0.000 A 
ATOM      2  C   UNL     1       0.289  14.332  20.519  0.00  0.00    +0.000 A 
ATOM      3  C   UNL     1      -0.644  13.891  21.474  0.00  0.00    +0.000 A 
ATOM      4  C   UNL     1      -0.629  14.551  22.711  0.00  0.00    +0.000 A 
ATOM      5  C   UNL     1       0.353  15.500  23.020  0.00  0.00    +0.000 A 
ATOM      6  C   UNL     1       1.328  15.815  22.076  0.00  0.00    +0.000 A 
ATOM      7  F   UNL     1       2.250  16.729  22.417  0.00  0.00    +0.000 F 
ATOM      8  C   UNL     1      -1.696  14.273  23.699  0.00  0.00    +0.000 A 
ATOM      9  O   UNL     1      -1.733  14.850  24.785  0.00  0.00    +0.000 OA
ATOM     10  C   UNL     1      -2.738  13.303  23.331  0.00  0.00    +0.000 A 
ATOM     11  C   UNL     1      -2.598  12.659  22.162  0.00  0.00    +0.000 A 
ATOM     12  N   UNL     1      -1.598  12.843  21.201  0.00  0.00    +0.000 N 
ENDROOT
BRANCH  12  13
ATOM     13  C   UNL     1      -1.561  11.983  20.036  0.00  0.00    +0.000 A 
ATOM     14  C   UNL     1      -2.482  12.146  18.978  0.00  0.00    +0.000 A 
ATOM     15  C   UNL     1      -2.523  11.257  17.897  0.00  0.00    +0.000 A 
ATOM     16  C   UNL     1      -1.585  10.239  17.812  0.00  0.00    +0.000 A 
ATOM     17  F   UNL     1      -1.620   9.395  16.773  0.00  0.00    +0.000 F 
ATOM     18  C   UNL     1      -0.614  10.088  18.787  0.00  0.00    +0.000 A 
ATOM     19  C   UNL     1      -0.618  10.940  19.891  0.00  0.00    +0.000 A 
ATOM     20  F   UNL     1       0.294  10.702  20.845  0.00  0.00    +0.000 F 
ENDBRANCH  12  13
BRANCH   1  24
ATOM     21  C   UNL     1       3.832  14.533  18.304  0.00  0.00    +0.000 C 
ATOM     22  C   UNL     1       3.235  15.785  17.667  0.00  0.00    +0.000 C 
ATOM     23  C   UNL     1       1.922  16.017  18.441  0.00  0.00    +0.000 C 
ATOM     24  N   UNL     1       2.238  15.513  19.794  0.00  0.00    +0.000 N 
ATOM     25  C   UNL     1       3.497  14.745  19.793  0.00  0.00    +0.000 C 
BRANCH  21  26
ATOM     26  N   UNL     1       3.231  13.304  17.770  0.00  0.00    +0.000 NA
ATOM     27  H   UNL     1       2.634  12.875  18.476  0.00  0.00    +0.000 HD
ATOM     28  H   UNL     1       3.966  12.627  17.555  0.00  0.00    +0.000 HD
ENDBRANCH  21  26
BRANCH  23  29
ATOM     29  C   UNL     1       1.558  17.511  18.497  0.00  0.00    +0.000 C 
BRANCH  29  30
ATOM     30  O   UNL     1       1.903  18.160  17.268  0.00  0.00    +0.000 OA
ATOM     31  H   UNL     1       2.710  17.697  16.969  0.00  0.00    +0.000 HD
ENDBRANCH  29  30
ENDBRANCH  23  29
ENDBRANCH   1  24
BRANCH  10  32
ATOM     32  C   UNL     1      -3.908  12.999  24.186  0.00  0.00    +0.000 C 
ATOM     33  O   UNL     1      -4.296  11.863  24.415  0.00  0.00    +0.000 OA
BRANCH  32  34
ATOM     34  O   UNL     1      -4.537  14.084  24.685  0.00  0.00    +0.000 OA
ATOM     35  H   UNL     1      -5.507  13.960  24.833  0.00  0.00    +0.000 HD
ENDBRANCH  32  34
ENDBRANCH  10  32
TORSDOF 7
ENDMDL
