MODEL 1
REMARK VINA RESULT:      -7.0      0.000      0.000
REMARK  Name = 
REMARK  9 active torsions:
REMARK  status: ('A' for Active; 'I' for Inactive)
REMARK    1  A    between atoms: C_1  and  O_2
REMARK    2  A    between atoms: O_2  and  C_3
REMARK    3  A    between atoms: C_6  and  C_7
REMARK    4  A    between atoms: C_8  and  C_9
REMARK    5  A    between atoms: C_11  and  N_12
REMARK    6  A    between atoms: N_13  and  C_14
REMARK    7  A    between atoms: C_28  and  C_29
REMARK    8  A    between atoms: C_29  and  N_30
REMARK    9  A    between atoms: C_32  and  N_33
REMARK                            x       y       z     vdW  Elec       q    Type
REMARK                         _______ _______ _______ _____ _____    ______ ____
ROOT
ATOM      1  C   UNL     1       0.188  11.489  18.594  0.00  0.00    +0.000 C 
ATOM      2  C   UNL     1      -1.295  11.559  18.855  0.00  0.00    +0.000 C 
ATOM      3  C   UNL     1      -1.880  12.548  19.588  0.00  0.00    +0.000 C 
ATOM      4  N   UNL     1      -1.068  13.591  20.185  0.00  0.00    +0.000 N 
ATOM      5  C   UNL     1       0.353  13.602  19.947  0.00  0.00    +0.000 C 
ATOM      6  C   UNL     1       0.939  12.664  19.162  0.00  0.00    +0.000 C 
ATOM      7  C   UNL     1       2.379  12.758  18.754  0.00  0.00    +0.000 C 
ATOM      8  O   UNL     1       2.840  11.987  17.914  0.00  0.00    +0.000 OA
ATOM      9  C   UNL     1       3.214  13.886  19.293  0.00  0.00    +0.000 C 
ATOM     10  C   UNL     1       2.737  14.257  20.679  0.00  0.00    +0.000 C 
ATOM     11  C   UNL     1       1.256  14.628  20.632  0.00  0.00    +0.000 C 
ENDROOT
BRANCH   1  15
ATOM     12  C   UNL     1       1.779   7.726  20.063  0.00  0.00    +0.000 A 
ATOM     13  C   UNL     1       1.333   8.720  20.938  0.00  0.00    +0.000 A 
ATOM     14  C   UNL     1       0.795   9.904  20.449  0.00  0.00    +0.000 A 
ATOM     15  C   UNL     1       0.729  10.142  19.072  0.00  0.00    +0.000 A 
ATOM     16  C   UNL     1       1.243   9.173  18.195  0.00  0.00    +0.000 A 
ATOM     17  C   UNL     1       1.778   7.963  18.679  0.00  0.00    +0.000 A 
BRANCH  12  19
ATOM     18  C   UNL     1       1.251   5.507  20.643  0.00  0.00    +0.000 C 
ATOM     19  O   UNL     1       2.253   6.515  20.499  0.00  0.00    +0.000 OA
ENDBRANCH  12  19
BRANCH  17  20
ATOM     20  C   UNL     1       2.379   6.992  17.699  0.00  0.00    +0.000 C 
BRANCH  20  21
ATOM     21  N   UNL     1       3.802   6.747  17.894  0.00  0.00    +0.000 N 
ATOM     22  C   UNL     1       4.824   7.393  17.245  0.00  0.00    +0.000 A 
ATOM     23  C   UNL     1       5.937   6.589  17.386  0.00  0.00    +0.000 A 
ATOM     24  C   UNL     1       5.517   5.526  18.198  0.00  0.00    +0.000 A 
ATOM     25  N   UNL     1       4.219   5.611  18.520  0.00  0.00    +0.000 NA
BRANCH  23  26
ATOM     26  N   UNL     1       7.218   6.780  16.780  0.00  0.00    +0.000 N 
ATOM     27  O   UNL     1       7.863   7.783  17.113  0.00  0.00    +0.000 OA
ATOM     28  O   UNL     1       7.571   5.935  15.945  0.00  0.00    +0.000 OA
ENDBRANCH  23  26
ENDBRANCH  20  21
ENDBRANCH  17  20
ENDBRANCH   1  15
BRANCH   4  29
ATOM     29  C   UNL     1      -1.719  14.625  20.970  0.00  0.00    +0.000 A 
ATOM     30  C   UNL     1      -1.994  14.491  22.340  0.00  0.00    +0.000 A 
ATOM     31  C   UNL     1      -2.624  15.507  23.066  0.00  0.00    +0.000 A 
ATOM     32  C   UNL     1      -2.897  16.698  22.427  0.00  0.00    +0.000 A 
ATOM     33  N   UNL     1      -2.633  16.907  21.125  0.00  0.00    +0.000 NA
ATOM     34  C   UNL     1      -2.087  15.868  20.432  0.00  0.00    +0.000 A 
ENDBRANCH   4  29
BRANCH   3  35
ATOM     35  N   UNL     1      -3.268  12.546  19.722  0.00  0.00    +0.000 N 
ATOM     36  H   UNL     1      -3.732  13.449  19.788  0.00  0.00    +0.000 HD
ATOM     37  H   UNL     1      -3.594  11.920  20.456  0.00  0.00    +0.000 HD
ENDBRANCH   3  35
BRANCH   2  38
ATOM     38  C   UNL     1      -2.138  10.461  18.228  0.00  0.00    +0.000 C 
ATOM     39  N   UNL     1      -2.838   9.549  17.708  0.00  0.00    +0.000 NA
ENDBRANCH   2  38
TORSDOF 8
ENDMDL
MODEL 2
REMARK VINA RESULT:      -6.8      0.946      1.065
REMARK  Name = 
REMARK  9 active torsions:
REMARK  status: ('A' for Active; 'I' for Inactive)
REMARK    1  A    between atoms: C_1  and  O_2
REMARK    2  A    between atoms: O_2  and  C_3
REMARK    3  A    between atoms: C_6  and  C_7
REMARK    4  A    between atoms: C_8  and  C_9
REMARK    5  A    between atoms: C_11  and  N_12
REMARK    6  A    between atoms: N_13  and  C_14
REMARK    7  A    between atoms: C_28  and  C_29
REMARK    8  A    between atoms: C_29  and  N_30
REMARK    9  A    between atoms: C_32  and  N_33
REMARK                            x       y       z     vdW  Elec       q    Type
REMARK                         _______ _______ _______ _____ _____    ______ ____
ROOT
ATOM      1  C   UNL     1       0.304  11.597  18.488  0.00  0.00    +0.000 C 
ATOM      2  C   UNL     1      -1.195  11.544  18.638  0.00  0.00    +0.000 C 
ATOM      3  C   UNL     1      -1.894  12.374  19.461  0.00  0.00    +0.000 C 
ATOM      4  N   UNL     1      -1.199  13.357  20.268  0.00  0.00    +0.000 N 
ATOM      5  C   UNL     1       0.232  13.484  20.148  0.00  0.00    +0.000 C 
ATOM      6  C   UNL     1       0.932  12.712  19.281  0.00  0.00    +0.000 C 
ATOM      7  C   UNL     1       2.388  12.948  19.007  0.00  0.00    +0.000 C 
ATOM      8  O   UNL     1       2.958  12.342  18.101  0.00  0.00    +0.000 OA
ATOM      9  C   UNL     1       3.105  14.026  19.772  0.00  0.00    +0.000 C 
ATOM     10  C   UNL     1       2.509  14.153  21.155  0.00  0.00    +0.000 C 
ATOM     11  C   UNL     1       1.013  14.443  21.047  0.00  0.00    +0.000 C 
ENDROOT
BRANCH   1  15
ATOM     12  C   UNL     1       2.033   7.747  19.507  0.00  0.00    +0.000 A 
ATOM     13  C   UNL     1       1.411   8.546  20.471  0.00  0.00    +0.000 A 
ATOM     14  C   UNL     1       0.833   9.758  20.119  0.00  0.00    +0.000 A 
ATOM     15  C   UNL     1       0.901  10.226  18.802  0.00  0.00    +0.000 A 
ATOM     16  C   UNL     1       1.588   9.458  17.849  0.00  0.00    +0.000 A 
ATOM     17  C   UNL     1       2.166   8.219  18.191  0.00  0.00    +0.000 A 
BRANCH  12  19
ATOM     18  C   UNL     1       1.745   5.716  20.659  0.00  0.00    +0.000 C 
ATOM     19  O   UNL     1       2.556   6.513  19.794  0.00  0.00    +0.000 OA
ENDBRANCH  12  19
BRANCH  17  20
ATOM     20  C   UNL     1       2.952   7.472  17.147  0.00  0.00    +0.000 C 
BRANCH  20  21
ATOM     21  N   UNL     1       3.859   6.468  17.685  0.00  0.00    +0.000 N 
ATOM     22  C   UNL     1       5.188   6.658  17.972  0.00  0.00    +0.000 A 
ATOM     23  C   UNL     1       5.751   5.400  18.032  0.00  0.00    +0.000 A 
ATOM     24  C   UNL     1       4.681   4.513  17.851  0.00  0.00    +0.000 A 
ATOM     25  N   UNL     1       3.520   5.149  17.643  0.00  0.00    +0.000 NA
BRANCH  23  26
ATOM     26  N   UNL     1       7.138   5.084  18.186  0.00  0.00    +0.000 N 
ATOM     27  O   UNL     1       7.751   4.700  17.180  0.00  0.00    +0.000 OA
ATOM     28  O   UNL     1       7.611   5.196  19.325  0.00  0.00    +0.000 OA
ENDBRANCH  23  26
ENDBRANCH  20  21
ENDBRANCH  17  20
ENDBRANCH   1  15
BRANCH   4  29
ATOM     29  C   UNL     1      -1.971  14.222  21.143  0.00  0.00    +0.000 A 
ATOM     30  C   UNL     1      -2.296  13.882  22.466  0.00  0.00    +0.000 A 
ATOM     31  C   UNL     1      -3.044  14.738  23.282  0.00  0.00    +0.000 A 
ATOM     32  C   UNL     1      -3.388  15.979  22.790  0.00  0.00    +0.000 A 
ATOM     33  N   UNL     1      -3.083  16.383  21.544  0.00  0.00    +0.000 NA
ATOM     34  C   UNL     1      -2.420  15.493  20.753  0.00  0.00    +0.000 A 
ENDBRANCH   4  29
BRANCH   3  35
ATOM     35  N   UNL     1      -3.286  12.273  19.482  0.00  0.00    +0.000 N 
ATOM     36  H   UNL     1      -3.684  11.373  19.740  0.00  0.00    +0.000 HD
ATOM     37  H   UNL     1      -3.721  12.630  18.635  0.00  0.00    +0.000 HD
ENDBRANCH   3  35
BRANCH   2  38
ATOM     38  C   UNL     1      -1.916  10.508  17.790  0.00  0.00    +0.000 C 
ATOM     39  N   UNL     1      -2.514   9.649  17.087  0.00  0.00    +0.000 NA
ENDBRANCH   2  38
TORSDOF 8
ENDMDL
MODEL 3
REMARK VINA RESULT:      -6.5      2.362      3.006
REMARK  Name = 
REMARK  9 active torsions:
REMARK  status: ('A' for Active; 'I' for Inactive)
REMARK    1  A    between atoms: C_1  and  O_2
REMARK    2  A    between atoms: O_2  and  C_3
REMARK    3  A    between atoms: C_6  and  C_7
REMARK    4  A    between atoms: C_8  and  C_9
REMARK    5  A    between atoms: C_11  and  N_12
REMARK    6  A    between atoms: N_13  and  C_14
REMARK    7  A    between atoms: C_28  and  C_29
REMARK    8  A    between atoms: C_29  and  N_30
REMARK    9  A    between atoms: C_32  and  N_33
REMARK                            x       y       z     vdW  Elec       q    Type
REMARK                         _______ _______ _______ _____ _____    ______ ____
ROOT
ATOM      1  C   UNL     1      -1.241  11.768  18.598  0.00  0.00    +0.000 C 
ATOM      2  C   UNL     1      -2.556  11.221  18.103  0.00  0.00    +0.000 C 
ATOM      3  C   UNL     1      -3.762  11.605  18.605  0.00  0.00    +0.000 C 
ATOM      4  N   UNL     1      -3.830  12.568  19.687  0.00  0.00    +0.000 N 
ATOM      5  C   UNL     1      -2.612  13.156  20.184  0.00  0.00    +0.000 C 
ATOM      6  C   UNL     1      -1.409  12.836  19.647  0.00  0.00    +0.000 C 
ATOM      7  C   UNL     1      -0.152  13.563  20.022  0.00  0.00    +0.000 C 
ATOM      8  O   UNL     1       0.892  13.364  19.404  0.00  0.00    +0.000 OA
ATOM      9  C   UNL     1      -0.221  14.630  21.080  0.00  0.00    +0.000 C 
ATOM     10  C   UNL     1      -1.288  14.279  22.091  0.00  0.00    +0.000 C 
ATOM     11  C   UNL     1      -2.630  14.105  21.383  0.00  0.00    +0.000 C 
ENDROOT
BRANCH   1  15
ATOM     12  C   UNL     1       1.311   8.553  20.011  0.00  0.00    +0.000 A 
ATOM     13  C   UNL     1       0.377   9.165  20.851  0.00  0.00    +0.000 A 
ATOM     14  C   UNL     1      -0.455  10.169  20.372  0.00  0.00    +0.000 A 
ATOM     15  C   UNL     1      -0.344  10.617  19.051  0.00  0.00    +0.000 A 
ATOM     16  C   UNL     1       0.643  10.051  18.228  0.00  0.00    +0.000 A 
ATOM     17  C   UNL     1       1.483   9.022  18.699  0.00  0.00    +0.000 A 
BRANCH  12  19
ATOM     18  C   UNL     1       1.400   6.453  21.071  0.00  0.00    +0.000 C 
ATOM     19  O   UNL     1       2.105   7.512  20.422  0.00  0.00    +0.000 OA
ENDBRANCH  12  19
BRANCH  17  20
ATOM     20  C   UNL     1       2.570   8.503  17.797  0.00  0.00    +0.000 C 
BRANCH  20  21
ATOM     21  N   UNL     1       2.916   7.105  18.020  0.00  0.00    +0.000 N 
ATOM     22  C   UNL     1       4.183   6.612  18.205  0.00  0.00    +0.000 A 
ATOM     23  C   UNL     1       4.110   5.259  17.944  0.00  0.00    +0.000 A 
ATOM     24  C   UNL     1       2.753   5.010  17.692  0.00  0.00    +0.000 A 
ATOM     25  N   UNL     1       2.012   6.125  17.739  0.00  0.00    +0.000 NA
BRANCH  23  26
ATOM     26  N   UNL     1       5.198   4.333  17.889  0.00  0.00    +0.000 N 
ATOM     27  O   UNL     1       5.576   3.963  16.768  0.00  0.00    +0.000 OA
ATOM     28  O   UNL     1       5.662   3.952  18.973  0.00  0.00    +0.000 OA
ENDBRANCH  23  26
ENDBRANCH  20  21
ENDBRANCH  17  20
ENDBRANCH   1  15
BRANCH   4  29
ATOM     29  C   UNL     1      -5.130  12.951  20.208  0.00  0.00    +0.000 A 
ATOM     30  C   UNL     1      -5.751  12.293  21.282  0.00  0.00    +0.000 A 
ATOM     31  C   UNL     1      -7.006  12.686  21.758  0.00  0.00    +0.000 A 
ATOM     32  C   UNL     1      -7.597  13.803  21.207  0.00  0.00    +0.000 A 
ATOM     33  N   UNL     1      -7.046  14.499  20.197  0.00  0.00    +0.000 NA
ATOM     34  C   UNL     1      -5.858  14.042  19.709  0.00  0.00    +0.000 A 
ENDBRANCH   4  29
BRANCH   3  35
ATOM     35  N   UNL     1      -4.920  11.074  18.036  0.00  0.00    +0.000 N 
ATOM     36  H   UNL     1      -5.789  11.580  18.189  0.00  0.00    +0.000 HD
ATOM     37  H   UNL     1      -5.041  10.084  18.236  0.00  0.00    +0.000 HD
ENDBRANCH   3  35
BRANCH   2  38
ATOM     38  C   UNL     1      -2.476  10.210  16.971  0.00  0.00    +0.000 C 
ATOM     39  N   UNL     1      -2.409   9.370  16.032  0.00  0.00    +0.000 NA
ENDBRANCH   2  38
TORSDOF 8
ENDMDL
MODEL 4
REMARK VINA RESULT:      -6.5      4.900      9.023
REMARK  Name = 
REMARK  9 active torsions:
REMARK  status: ('A' for Active; 'I' for Inactive)
REMARK    1  A    between atoms: C_1  and  O_2
REMARK    2  A    between atoms: O_2  and  C_3
REMARK    3  A    between atoms: C_6  and  C_7
REMARK    4  A    between atoms: C_8  and  C_9
REMARK    5  A    between atoms: C_11  and  N_12
REMARK    6  A    between atoms: N_13  and  C_14
REMARK    7  A    between atoms: C_28  and  C_29
REMARK    8  A    between atoms: C_29  and  N_30
REMARK    9  A    between atoms: C_32  and  N_33
REMARK                            x       y       z     vdW  Elec       q    Type
REMARK                         _______ _______ _______ _____ _____    ______ ____
ROOT
ATOM      1  C   UNL     1      -1.378  14.532  19.557  0.00  0.00    +0.000 C 
ATOM      2  C   UNL     1      -0.630  15.840  19.623  0.00  0.00    +0.000 C 
ATOM      3  C   UNL     1       0.721  15.937  19.480  0.00  0.00    +0.000 C 
ATOM      4  N   UNL     1       1.521  14.745  19.275  0.00  0.00    +0.000 N 
ATOM      5  C   UNL     1       0.866  13.465  19.169  0.00  0.00    +0.000 C 
ATOM      6  C   UNL     1      -0.484  13.362  19.240  0.00  0.00    +0.000 C 
ATOM      7  C   UNL     1      -1.198  12.075  18.953  0.00  0.00    +0.000 C 
ATOM      8  O   UNL     1      -2.424  12.047  18.865  0.00  0.00    +0.000 OA
ATOM      9  C   UNL     1      -0.385  10.847  18.649  0.00  0.00    +0.000 C 
ATOM     10  C   UNL     1       0.921  10.899  19.409  0.00  0.00    +0.000 C 
ATOM     11  C   UNL     1       1.677  12.176  19.046  0.00  0.00    +0.000 C 
ENDROOT
BRANCH   1  15
ATOM     12  C   UNL     1      -3.605  13.870  23.225  0.00  0.00    +0.000 A 
ATOM     13  C   UNL     1      -2.256  13.520  23.117  0.00  0.00    +0.000 A 
ATOM     14  C   UNL     1      -1.551  13.771  21.948  0.00  0.00    +0.000 A 
ATOM     15  C   UNL     1      -2.187  14.339  20.839  0.00  0.00    +0.000 A 
ATOM     16  C   UNL     1      -3.560  14.624  20.923  0.00  0.00    +0.000 A 
ATOM     17  C   UNL     1      -4.283  14.387  22.109  0.00  0.00    +0.000 A 
BRANCH  12  19
ATOM     18  C   UNL     1      -4.521  12.341  24.761  0.00  0.00    +0.000 C 
ATOM     19  O   UNL     1      -4.322  13.704  24.382  0.00  0.00    +0.000 OA
ENDBRANCH  12  19
BRANCH  17  20
ATOM     20  C   UNL     1      -5.765  14.645  22.120  0.00  0.00    +0.000 C 
BRANCH  20  21
ATOM     21  N   UNL     1      -6.547  13.673  21.366  0.00  0.00    +0.000 N 
ATOM     22  C   UNL     1      -6.530  12.313  21.550  0.00  0.00    +0.000 A 
ATOM     23  C   UNL     1      -7.044  11.763  20.393  0.00  0.00    +0.000 A 
ATOM     24  C   UNL     1      -7.418  12.860  19.604  0.00  0.00    +0.000 A 
ATOM     25  N   UNL     1      -7.126  14.031  20.186  0.00  0.00    +0.000 NA
BRANCH  23  26
ATOM     26  N   UNL     1      -7.118  10.375  20.060  0.00  0.00    +0.000 N 
ATOM     27  O   UNL     1      -7.417   9.585  20.967  0.00  0.00    +0.000 OA
ATOM     28  O   UNL     1      -6.850  10.067  18.890  0.00  0.00    +0.000 OA
ENDBRANCH  23  26
ENDBRANCH  20  21
ENDBRANCH  17  20
ENDBRANCH   1  15
BRANCH   4  29
ATOM     29  C   UNL     1       2.960  14.879  19.135  0.00  0.00    +0.000 A 
ATOM     30  C   UNL     1       3.842  14.873  20.228  0.00  0.00    +0.000 A 
ATOM     31  C   UNL     1       5.224  15.006  20.058  0.00  0.00    +0.000 A 
ATOM     32  C   UNL     1       5.725  15.057  18.775  0.00  0.00    +0.000 A 
ATOM     33  N   UNL     1       4.943  15.037  17.682  0.00  0.00    +0.000 NA
ATOM     34  C   UNL     1       3.597  14.982  17.889  0.00  0.00    +0.000 A 
ENDBRANCH   4  29
BRANCH   3  35
ATOM     35  N   UNL     1       1.304  17.204  19.504  0.00  0.00    +0.000 N 
ATOM     36  H   UNL     1       2.129  17.349  18.927  0.00  0.00    +0.000 HD
ATOM     37  H   UNL     1       1.462  17.548  20.449  0.00  0.00    +0.000 HD
ENDBRANCH   3  35
BRANCH   2  38
ATOM     38  C   UNL     1      -1.476  17.084  19.840  0.00  0.00    +0.000 C 
ATOM     39  N   UNL     1      -2.178  18.116  20.021  0.00  0.00    +0.000 NA
ENDBRANCH   2  38
TORSDOF 8
ENDMDL
MODEL 5
REMARK VINA RESULT:      -6.5      0.959      1.099
REMARK  Name = 
REMARK  9 active torsions:
REMARK  status: ('A' for Active; 'I' for Inactive)
REMARK    1  A    between atoms: C_1  and  O_2
REMARK    2  A    between atoms: O_2  and  C_3
REMARK    3  A    between atoms: C_6  and  C_7
REMARK    4  A    between atoms: C_8  and  C_9
REMARK    5  A    between atoms: C_11  and  N_12
REMARK    6  A    between atoms: N_13  and  C_14
REMARK    7  A    between atoms: C_28  and  C_29
REMARK    8  A    between atoms: C_29  and  N_30
REMARK    9  A    between atoms: C_32  and  N_33
REMARK                            x       y       z     vdW  Elec       q    Type
REMARK                         _______ _______ _______ _____ _____    ______ ____
ROOT
ATOM      1  C   UNL     1       0.313  11.385  18.484  0.00  0.00    +0.000 C 
ATOM      2  C   UNL     1      -1.165  11.443  18.773  0.00  0.00    +0.000 C 
ATOM      3  C   UNL     1      -1.740  12.414  19.537  0.00  0.00    +0.000 C 
ATOM      4  N   UNL     1      -0.922  13.448  20.141  0.00  0.00    +0.000 N 
ATOM      5  C   UNL     1       0.494  13.470  19.877  0.00  0.00    +0.000 C 
ATOM      6  C   UNL     1       1.069  12.551  19.063  0.00  0.00    +0.000 C 
ATOM      7  C   UNL     1       2.502  12.659  18.632  0.00  0.00    +0.000 C 
ATOM      8  O   UNL     1       2.951  11.908  17.768  0.00  0.00    +0.000 OA
ATOM      9  C   UNL     1       3.341  13.781  19.179  0.00  0.00    +0.000 C 
ATOM     10  C   UNL     1       2.888  14.120  20.580  0.00  0.00    +0.000 C 
ATOM     11  C   UNL     1       1.405  14.486  20.567  0.00  0.00    +0.000 C 
ENDROOT
BRANCH   1  15
ATOM     12  C   UNL     1       1.955   7.601  19.841  0.00  0.00    +0.000 A 
ATOM     13  C   UNL     1       1.614   8.614  20.742  0.00  0.00    +0.000 A 
ATOM     14  C   UNL     1       1.058   9.804  20.292  0.00  0.00    +0.000 A 
ATOM     15  C   UNL     1       0.868  10.031  18.925  0.00  0.00    +0.000 A 
ATOM     16  C   UNL     1       1.277   9.043  18.015  0.00  0.00    +0.000 A 
ATOM     17  C   UNL     1       1.829   7.825  18.460  0.00  0.00    +0.000 A 
BRANCH  12  19
ATOM     18  C   UNL     1       1.445   5.477  20.715  0.00  0.00    +0.000 C 
ATOM     19  O   UNL     1       2.443   6.384  20.244  0.00  0.00    +0.000 OA
ENDBRANCH  12  19
BRANCH  17  20
ATOM     20  C   UNL     1       2.315   6.832  17.439  0.00  0.00    +0.000 C 
BRANCH  20  21
ATOM     21  N   UNL     1       3.758   6.632  17.437  0.00  0.00    +0.000 N 
ATOM     22  C   UNL     1       4.418   5.544  17.952  0.00  0.00    +0.000 A 
ATOM     23  C   UNL     1       5.726   5.942  18.140  0.00  0.00    +0.000 A 
ATOM     24  C   UNL     1       5.783   7.251  17.638  0.00  0.00    +0.000 A 
ATOM     25  N   UNL     1       4.592   7.683  17.202  0.00  0.00    +0.000 NA
BRANCH  23  26
ATOM     26  N   UNL     1       6.771   5.194  18.765  0.00  0.00    +0.000 N 
ATOM     27  O   UNL     1       6.955   5.374  19.978  0.00  0.00    +0.000 OA
ATOM     28  O   UNL     1       7.431   4.441  18.036  0.00  0.00    +0.000 OA
ENDBRANCH  23  26
ENDBRANCH  20  21
ENDBRANCH  17  20
ENDBRANCH   1  15
BRANCH   4  29
ATOM     29  C   UNL     1      -1.563  14.464  20.958  0.00  0.00    +0.000 A 
ATOM     30  C   UNL     1      -1.806  14.303  22.331  0.00  0.00    +0.000 A 
ATOM     31  C   UNL     1      -2.428  15.301  23.089  0.00  0.00    +0.000 A 
ATOM     32  C   UNL     1      -2.724  16.501  22.477  0.00  0.00    +0.000 A 
ATOM     33  N   UNL     1      -2.491  16.735  21.174  0.00  0.00    +0.000 NA
ATOM     34  C   UNL     1      -1.953  15.713  20.451  0.00  0.00    +0.000 A 
ENDBRANCH   4  29
BRANCH   3  35
ATOM     35  N   UNL     1      -3.126  12.403  19.695  0.00  0.00    +0.000 N 
ATOM     36  H   UNL     1      -3.538  11.586  20.140  0.00  0.00    +0.000 HD
ATOM     37  H   UNL     1      -3.624  12.635  18.839  0.00  0.00    +0.000 HD
ENDBRANCH   3  35
BRANCH   2  38
ATOM     38  C   UNL     1      -2.015  10.354  18.138  0.00  0.00    +0.000 C 
ATOM     39  N   UNL     1      -2.720   9.450  17.612  0.00  0.00    +0.000 NA
ENDBRANCH   2  38
TORSDOF 8
ENDMDL
MODEL 6
REMARK VINA RESULT:      -6.5      6.561     10.830
REMARK  Name = 
REMARK  9 active torsions:
REMARK  status: ('A' for Active; 'I' for Inactive)
REMARK    1  A    between atoms: C_1  and  O_2
REMARK    2  A    between atoms: O_2  and  C_3
REMARK    3  A    between atoms: C_6  and  C_7
REMARK    4  A    between atoms: C_8  and  C_9
REMARK    5  A    between atoms: C_11  and  N_12
REMARK    6  A    between atoms: N_13  and  C_14
REMARK    7  A    between atoms: C_28  and  C_29
REMARK    8  A    between atoms: C_29  and  N_30
REMARK    9  A    between atoms: C_32  and  N_33
REMARK                            x       y       z     vdW  Elec       q    Type
REMARK                         _______ _______ _______ _____ _____    ______ ____
ROOT
ATOM      1  C   UNL     1       8.671  14.235  24.042  0.00  0.00    +0.000 C 
ATOM      2  C   UNL     1       8.450  12.847  23.497  0.00  0.00    +0.000 C 
ATOM      3  C   UNL     1       8.966  12.418  22.312  0.00  0.00    +0.000 C 
ATOM      4  N   UNL     1       9.755  13.316  21.491  0.00  0.00    +0.000 N 
ATOM      5  C   UNL     1      10.033  14.647  21.969  0.00  0.00    +0.000 C 
ATOM      6  C   UNL     1       9.583  15.065  23.178  0.00  0.00    +0.000 C 
ATOM      7  C   UNL     1      10.008  16.374  23.774  0.00  0.00    +0.000 C 
ATOM      8  O   UNL     1       9.718  16.654  24.935  0.00  0.00    +0.000 OA
ATOM      9  C   UNL     1      10.901  17.280  22.971  0.00  0.00    +0.000 C 
ATOM     10  C   UNL     1      10.602  17.117  21.499  0.00  0.00    +0.000 C 
ATOM     11  C   UNL     1      10.780  15.655  21.095  0.00  0.00    +0.000 C 
ENDROOT
BRANCH   1  15
ATOM     12  C   UNL     1       4.819  16.047  24.898  0.00  0.00    +0.000 A 
ATOM     13  C   UNL     1       5.622  15.523  25.916  0.00  0.00    +0.000 A 
ATOM     14  C   UNL     1       6.866  14.979  25.627  0.00  0.00    +0.000 A 
ATOM     15  C   UNL     1       7.322  14.903  24.307  0.00  0.00    +0.000 A 
ATOM     16  C   UNL     1       6.486  15.364  23.277  0.00  0.00    +0.000 A 
ATOM     17  C   UNL     1       5.227  15.931  23.559  0.00  0.00    +0.000 A 
BRANCH  12  19
ATOM     18  C   UNL     1       3.509  17.249  26.439  0.00  0.00    +0.000 C 
ATOM     19  O   UNL     1       3.615  16.655  25.144  0.00  0.00    +0.000 OA
ENDBRANCH  12  19
BRANCH  17  20
ATOM     20  C   UNL     1       4.343  16.343  22.413  0.00  0.00    +0.000 C 
BRANCH  20  21
ATOM     21  N   UNL     1       3.854  15.233  21.606  0.00  0.00    +0.000 N 
ATOM     22  C   UNL     1       4.106  15.040  20.270  0.00  0.00    +0.000 A 
ATOM     23  C   UNL     1       3.138  14.166  19.820  0.00  0.00    +0.000 A 
ATOM     24  C   UNL     1       2.399  13.821  20.962  0.00  0.00    +0.000 A 
ATOM     25  N   UNL     1       2.827  14.460  22.059  0.00  0.00    +0.000 NA
BRANCH  23  26
ATOM     26  N   UNL     1       2.911  13.754  18.470  0.00  0.00    +0.000 N 
ATOM     27  O   UNL     1       2.629  12.564  18.275  0.00  0.00    +0.000 OA
ATOM     28  O   UNL     1       3.042  14.621  17.594  0.00  0.00    +0.000 OA
ENDBRANCH  23  26
ENDBRANCH  20  21
ENDBRANCH  17  20
ENDBRANCH   1  15
BRANCH   4  29
ATOM     29  C   UNL     1      10.284  12.833  20.228  0.00  0.00    +0.000 A 
ATOM     30  C   UNL     1      11.505  12.148  20.119  0.00  0.00    +0.000 A 
ATOM     31  C   UNL     1      11.987  11.698  18.886  0.00  0.00    +0.000 A 
ATOM     32  C   UNL     1      11.193  11.861  17.771  0.00  0.00    +0.000 A 
ATOM     33  N   UNL     1      10.000  12.481  17.807  0.00  0.00    +0.000 NA
ATOM     34  C   UNL     1       9.596  12.972  19.012  0.00  0.00    +0.000 A 
ENDBRANCH   4  29
BRANCH   3  35
ATOM     35  N   UNL     1       8.744  11.095  21.928  0.00  0.00    +0.000 N 
ATOM     36  H   UNL     1       8.125  10.937  21.137  0.00  0.00    +0.000 HD
ATOM     37  H   UNL     1       8.489  10.494  22.709  0.00  0.00    +0.000 HD
ENDBRANCH   3  35
BRANCH   2  38
ATOM     38  C   UNL     1       7.620  11.913  24.363  0.00  0.00    +0.000 C 
ATOM     39  N   UNL     1       6.931  11.137  25.081  0.00  0.00    +0.000 NA
ENDBRANCH   2  38
TORSDOF 8
ENDMDL
MODEL 7
REMARK VINA RESULT:      -6.4      3.852      7.112
REMARK  Name = 
REMARK  9 active torsions:
REMARK  status: ('A' for Active; 'I' for Inactive)
REMARK    1  A    between atoms: C_1  and  O_2
REMARK    2  A    between atoms: O_2  and  C_3
REMARK    3  A    between atoms: C_6  and  C_7
REMARK    4  A    between atoms: C_8  and  C_9
REMARK    5  A    between atoms: C_11  and  N_12
REMARK    6  A    between atoms: N_13  and  C_14
REMARK    7  A    between atoms: C_28  and  C_29
REMARK    8  A    between atoms: C_29  and  N_30
REMARK    9  A    between atoms: C_32  and  N_33
REMARK                            x       y       z     vdW  Elec       q    Type
REMARK                         _______ _______ _______ _____ _____    ______ ____
ROOT
ATOM      1  C   UNL     1      -0.561  13.868  21.031  0.00  0.00    +0.000 C 
ATOM      2  C   UNL     1      -0.657  15.094  20.158  0.00  0.00    +0.000 C 
ATOM      3  C   UNL     1      -1.760  15.892  20.108  0.00  0.00    +0.000 C 
ATOM      4  N   UNL     1      -2.931  15.569  20.900  0.00  0.00    +0.000 N 
ATOM      5  C   UNL     1      -2.894  14.430  21.782  0.00  0.00    +0.000 C 
ATOM      6  C   UNL     1      -1.778  13.668  21.894  0.00  0.00    +0.000 C 
ATOM      7  C   UNL     1      -1.653  12.592  22.932  0.00  0.00    +0.000 C 
ATOM      8  O   UNL     1      -0.576  12.027  23.118  0.00  0.00    +0.000 OA
ATOM      9  C   UNL     1      -2.829  12.305  23.824  0.00  0.00    +0.000 C 
ATOM     10  C   UNL     1      -4.114  12.562  23.073  0.00  0.00    +0.000 C 
ATOM     11  C   UNL     1      -4.136  14.002  22.565  0.00  0.00    +0.000 C 
ENDROOT
BRANCH   1  15
ATOM     12  C   UNL     1       0.497  10.475  18.538  0.00  0.00    +0.000 A 
ATOM     13  C   UNL     1       1.475  11.300  19.101  0.00  0.00    +0.000 A 
ATOM     14  C   UNL     1       1.119  12.360  19.923  0.00  0.00    +0.000 A 
ATOM     15  C   UNL     1      -0.228  12.651  20.170  0.00  0.00    +0.000 A 
ATOM     16  C   UNL     1      -1.211  11.866  19.547  0.00  0.00    +0.000 A 
ATOM     17  C   UNL     1      -0.862  10.779  18.721  0.00  0.00    +0.000 A 
BRANCH  12  19
ATOM     18  C   UNL     1       2.061   8.774  18.090  0.00  0.00    +0.000 C 
ATOM     19  O   UNL     1       0.804   9.377  17.775  0.00  0.00    +0.000 OA
ENDBRANCH  12  19
BRANCH  17  20
ATOM     20  C   UNL     1      -1.955  10.017  18.023  0.00  0.00    +0.000 C 
BRANCH  20  21
ATOM     21  N   UNL     1      -3.005  10.856  17.460  0.00  0.00    +0.000 N 
ATOM     22  C   UNL     1      -4.098  11.336  18.137  0.00  0.00    +0.000 A 
ATOM     23  C   UNL     1      -5.020  11.690  17.173  0.00  0.00    +0.000 A 
ATOM     24  C   UNL     1      -4.372  11.467  15.950  0.00  0.00    +0.000 A 
ATOM     25  N   UNL     1      -3.141  10.964  16.109  0.00  0.00    +0.000 NA
BRANCH  23  26
ATOM     26  N   UNL     1      -6.363  12.130  17.389  0.00  0.00    +0.000 N 
ATOM     27  O   UNL     1      -7.111  11.385  18.038  0.00  0.00    +0.000 OA
ATOM     28  O   UNL     1      -6.682  13.216  16.884  0.00  0.00    +0.000 OA
ENDBRANCH  23  26
ENDBRANCH  20  21
ENDBRANCH  17  20
ENDBRANCH   1  15
BRANCH   4  29
ATOM     29  C   UNL     1      -4.095  16.433  20.819  0.00  0.00    +0.000 A 
ATOM     30  C   UNL     1      -5.162  16.204  19.935  0.00  0.00    +0.000 A 
ATOM     31  C   UNL     1      -6.268  17.058  19.880  0.00  0.00    +0.000 A 
ATOM     32  C   UNL     1      -6.340  18.097  20.783  0.00  0.00    +0.000 A 
ATOM     33  N   UNL     1      -5.371  18.357  21.678  0.00  0.00    +0.000 NA
ATOM     34  C   UNL     1      -4.274  17.549  21.652  0.00  0.00    +0.000 A 
ENDBRANCH   4  29
BRANCH   3  35
ATOM     35  N   UNL     1      -1.722  17.032  19.305  0.00  0.00    +0.000 N 
ATOM     36  H   UNL     1      -1.338  16.930  18.369  0.00  0.00    +0.000 HD
ATOM     37  H   UNL     1      -1.310  17.834  19.777  0.00  0.00    +0.000 HD
ENDBRANCH   3  35
BRANCH   2  38
ATOM     38  C   UNL     1       0.573  15.423  19.328  0.00  0.00    +0.000 C 
ATOM     39  N   UNL     1       1.594  15.696  18.640  0.00  0.00    +0.000 NA
ENDBRANCH   2  38
TORSDOF 8
ENDMDL
MODEL 8
REMARK VINA RESULT:      -6.4      5.081      7.445
REMARK  Name = 
REMARK  9 active torsions:
REMARK  status: ('A' for Active; 'I' for Inactive)
REMARK    1  A    between atoms: C_1  and  O_2
REMARK    2  A    between atoms: O_2  and  C_3
REMARK    3  A    between atoms: C_6  and  C_7
REMARK    4  A    between atoms: C_8  and  C_9
REMARK    5  A    between atoms: C_11  and  N_12
REMARK    6  A    between atoms: N_13  and  C_14
REMARK    7  A    between atoms: C_28  and  C_29
REMARK    8  A    between atoms: C_29  and  N_30
REMARK    9  A    between atoms: C_32  and  N_33
REMARK                            x       y       z     vdW  Elec       q    Type
REMARK                         _______ _______ _______ _____ _____    ______ ____
ROOT
ATOM      1  C   UNL     1       0.543  14.022  20.761  0.00  0.00    +0.000 C 
ATOM      2  C   UNL     1       0.184  14.636  22.090  0.00  0.00    +0.000 C 
ATOM      3  C   UNL     1      -1.004  14.417  22.719  0.00  0.00    +0.000 C 
ATOM      4  N   UNL     1      -2.011  13.575  22.103  0.00  0.00    +0.000 N 
ATOM      5  C   UNL     1      -1.720  12.929  20.848  0.00  0.00    +0.000 C 
ATOM      6  C   UNL     1      -0.515  13.083  20.245  0.00  0.00    +0.000 C 
ATOM      7  C   UNL     1      -0.124  12.284  19.038  0.00  0.00    +0.000 C 
ATOM      8  O   UNL     1       1.028  12.324  18.610  0.00  0.00    +0.000 OA
ATOM      9  C   UNL     1      -1.128  11.337  18.439  0.00  0.00    +0.000 C 
ATOM     10  C   UNL     1      -2.523  11.883  18.633  0.00  0.00    +0.000 C 
ATOM     11  C   UNL     1      -2.786  12.110  20.121  0.00  0.00    +0.000 C 
ENDROOT
BRANCH   1  15
ATOM     12  C   UNL     1       1.441  17.147  17.883  0.00  0.00    +0.000 A 
ATOM     13  C   UNL     1       0.158  16.992  18.415  0.00  0.00    +0.000 A 
ATOM     14  C   UNL     1      -0.102  16.009  19.361  0.00  0.00    +0.000 A 
ATOM     15  C   UNL     1       0.904  15.125  19.767  0.00  0.00    +0.000 A 
ATOM     16  C   UNL     1       2.175  15.235  19.179  0.00  0.00    +0.000 A 
ATOM     17  C   UNL     1       2.454  16.238  18.229  0.00  0.00    +0.000 A 
BRANCH  12  19
ATOM     18  C   UNL     1       0.657  18.627  16.231  0.00  0.00    +0.000 C 
ATOM     19  O   UNL     1       1.760  18.146  17.000  0.00  0.00    +0.000 OA
ENDBRANCH  12  19
BRANCH  17  20
ATOM     20  C   UNL     1       3.811  16.264  17.580  0.00  0.00    +0.000 C 
BRANCH  20  21
ATOM     21  N   UNL     1       4.910  16.531  18.499  0.00  0.00    +0.000 N 
ATOM     22  C   UNL     1       5.960  15.687  18.763  0.00  0.00    +0.000 A 
ATOM     23  C   UNL     1       6.500  16.110  19.960  0.00  0.00    +0.000 A 
ATOM     24  C   UNL     1       5.770  17.256  20.304  0.00  0.00    +0.000 A 
ATOM     25  N   UNL     1       4.800  17.529  19.421  0.00  0.00    +0.000 NA
BRANCH  23  26
ATOM     26  N   UNL     1       7.540  15.473  20.707  0.00  0.00    +0.000 N 
ATOM     27  O   UNL     1       8.133  16.154  21.555  0.00  0.00    +0.000 OA
ATOM     28  O   UNL     1       7.783  14.291  20.426  0.00  0.00    +0.000 OA
ENDBRANCH  23  26
ENDBRANCH  20  21
ENDBRANCH  17  20
ENDBRANCH   1  15
BRANCH   4  29
ATOM     29  C   UNL     1      -3.272  13.367  22.794  0.00  0.00    +0.000 A 
ATOM     30  C   UNL     1      -4.418  14.140  22.549  0.00  0.00    +0.000 A 
ATOM     31  C   UNL     1      -5.617  13.915  23.234  0.00  0.00    +0.000 A 
ATOM     32  C   UNL     1      -5.685  12.848  24.104  0.00  0.00    +0.000 A 
ATOM     33  N   UNL     1      -4.636  12.047  24.363  0.00  0.00    +0.000 NA
ATOM     34  C   UNL     1      -3.464  12.343  23.734  0.00  0.00    +0.000 A 
ENDBRANCH   4  29
BRANCH   3  35
ATOM     35  N   UNL     1      -1.210  14.993  23.973  0.00  0.00    +0.000 N 
ATOM     36  H   UNL     1      -2.150  14.944  24.359  0.00  0.00    +0.000 HD
ATOM     37  H   UNL     1      -0.844  15.940  24.038  0.00  0.00    +0.000 HD
ENDBRANCH   3  35
BRANCH   2  38
ATOM     38  C   UNL     1       1.245  15.520  22.727  0.00  0.00    +0.000 C 
ATOM     39  N   UNL     1       2.125  16.253  23.256  0.00  0.00    +0.000 NA
ENDBRANCH   2  38
TORSDOF 8
ENDMDL
MODEL 9
REMARK VINA RESULT:      -6.4      4.304      7.020
REMARK  Name = 
REMARK  9 active torsions:
REMARK  status: ('A' for Active; 'I' for Inactive)
REMARK    1  A    between atoms: C_1  and  O_2
REMARK    2  A    between atoms: O_2  and  C_3
REMARK    3  A    between atoms: C_6  and  C_7
REMARK    4  A    between atoms: C_8  and  C_9
REMARK    5  A    between atoms: C_11  and  N_12
REMARK    6  A    between atoms: N_13  and  C_14
REMARK    7  A    between atoms: C_28  and  C_29
REMARK    8  A    between atoms: C_29  and  N_30
REMARK    9  A    between atoms: C_32  and  N_33
REMARK                            x       y       z     vdW  Elec       q    Type
REMARK                         _______ _______ _______ _____ _____    ______ ____
ROOT
ATOM      1  C   UNL     1      -4.819  14.990  21.911  0.00  0.00    +0.000 C 
ATOM      2  C   UNL     1      -4.552  14.433  23.287  0.00  0.00    +0.000 C 
ATOM      3  C   UNL     1      -3.705  15.019  24.178  0.00  0.00    +0.000 C 
ATOM      4  N   UNL     1      -2.987  16.227  23.819  0.00  0.00    +0.000 N 
ATOM      5  C   UNL     1      -3.223  16.830  22.531  0.00  0.00    +0.000 C 
ATOM      6  C   UNL     1      -4.115  16.297  21.661  0.00  0.00    +0.000 C 
ATOM      7  C   UNL     1      -4.509  17.001  20.397  0.00  0.00    +0.000 C 
ATOM      8  O   UNL     1      -5.436  16.576  19.709  0.00  0.00    +0.000 OA
ATOM      9  C   UNL     1      -3.839  18.303  20.053  0.00  0.00    +0.000 C 
ATOM     10  C   UNL     1      -2.419  18.297  20.570  0.00  0.00    +0.000 C 
ATOM     11  C   UNL     1      -2.420  18.049  22.077  0.00  0.00    +0.000 C 
ENDROOT
BRANCH   1  15
ATOM     12  C   UNL     1      -4.036  11.896  18.968  0.00  0.00    +0.000 A 
ATOM     13  C   UNL     1      -5.334  12.175  19.405  0.00  0.00    +0.000 A 
ATOM     14  C   UNL     1      -5.569  13.191  20.322  0.00  0.00    +0.000 A 
ATOM     15  C   UNL     1      -4.507  13.927  20.859  0.00  0.00    +0.000 A 
ATOM     16  C   UNL     1      -3.197  13.599  20.473  0.00  0.00    +0.000 A 
ATOM     17  C   UNL     1      -2.948  12.579  19.533  0.00  0.00    +0.000 A 
BRANCH  12  19
ATOM     18  C   UNL     1      -4.359  11.207  16.741  0.00  0.00    +0.000 C 
ATOM     19  O   UNL     1      -3.765  10.948  18.014  0.00  0.00    +0.000 OA
ENDBRANCH  12  19
BRANCH  17  20
ATOM     20  C   UNL     1      -1.522  12.223  19.210  0.00  0.00    +0.000 C 
BRANCH  20  21
ATOM     21  N   UNL     1      -0.995  11.104  19.981  0.00  0.00    +0.000 N 
ATOM     22  C   UNL     1      -0.741  11.107  21.330  0.00  0.00    +0.000 A 
ATOM     23  C   UNL     1       0.125  10.058  21.559  0.00  0.00    +0.000 A 
ATOM     24  C   UNL     1       0.273   9.429  20.315  0.00  0.00    +0.000 A 
ATOM     25  N   UNL     1      -0.407  10.053  19.343  0.00  0.00    +0.000 NA
BRANCH  23  26
ATOM     26  N   UNL     1       0.770   9.729  22.792  0.00  0.00    +0.000 N 
ATOM     27  O   UNL     1       1.960   9.386  22.740  0.00  0.00    +0.000 OA
ATOM     28  O   UNL     1       0.076   9.787  23.817  0.00  0.00    +0.000 OA
ENDBRANCH  23  26
ENDBRANCH  20  21
ENDBRANCH  17  20
ENDBRANCH   1  15
BRANCH   4  29
ATOM     29  C   UNL     1      -2.084  16.823  24.787  0.00  0.00    +0.000 A 
ATOM     30  C   UNL     1      -0.797  16.324  25.046  0.00  0.00    +0.000 A 
ATOM     31  C   UNL     1       0.047  16.921  25.988  0.00  0.00    +0.000 A 
ATOM     32  C   UNL     1      -0.374  18.080  26.605  0.00  0.00    +0.000 A 
ATOM     33  N   UNL     1      -1.580  18.631  26.383  0.00  0.00    +0.000 NA
ATOM     34  C   UNL     1      -2.405  17.980  25.515  0.00  0.00    +0.000 A 
ENDBRANCH   4  29
BRANCH   3  35
ATOM     35  N   UNL     1      -3.571  14.449  25.444  0.00  0.00    +0.000 N 
ATOM     36  H   UNL     1      -3.863  15.009  26.242  0.00  0.00    +0.000 HD
ATOM     37  H   UNL     1      -2.648  14.050  25.604  0.00  0.00    +0.000 HD
ENDBRANCH   3  35
BRANCH   2  38
ATOM     38  C   UNL     1      -5.306  13.166  23.655  0.00  0.00    +0.000 C 
ATOM     39  N   UNL     1      -5.931  12.114  23.960  0.00  0.00    +0.000 NA
ENDBRANCH   2  38
TORSDOF 8
ENDMDL
