MODEL 1
REMARK VINA RESULT:      -7.2      0.000      0.000
REMARK  Name = 
REMARK  4 active torsions:
REMARK  status: ('A' for Active; 'I' for Inactive)
REMARK    1  A    between atoms: C_2  and  C_3
REMARK    2  A    between atoms: C_8  and  N_9
REMARK    3  A    between atoms: C_10  and  C_12
REMARK    4  A    between atoms: C_12  and  N_13
REMARK                            x       y       z     vdW  Elec       q    Type
REMARK                         _______ _______ _______ _____ _____    ______ ____
ROOT
ATOM      1  N   UNL     1       2.658   6.651  20.329  0.00  0.00    +0.000 N 
ATOM      2  C   UNL     1       2.205   5.338  20.239  0.00  0.00    +0.000 C 
ATOM      3  O   UNL     1       1.019   5.013  20.247  0.00  0.00    +0.000 OA
ATOM      4  H   UNL     1       3.510   6.741  20.888  0.00  0.00    +0.000 HD
ENDROOT
BRANCH   1  10
ATOM      5  C   UNL     1       1.511   8.596  19.258  0.00  0.00    +0.000 A 
ATOM      6  C   UNL     1       0.582   9.644  19.393  0.00  0.00    +0.000 A 
ATOM      7  C   UNL     1      -0.074   9.859  20.606  0.00  0.00    +0.000 A 
ATOM      8  C   UNL     1       0.212   9.048  21.701  0.00  0.00    +0.000 A 
ATOM      9  C   UNL     1       1.141   8.013  21.582  0.00  0.00    +0.000 A 
ATOM     10  C   UNL     1       1.770   7.753  20.356  0.00  0.00    +0.000 A 
BRANCH   5  12
ATOM     11  N   UNL     1       2.925   8.494  17.082  0.00  0.00    +0.000 NA
ATOM     12  C   UNL     1       2.254   8.523  18.032  0.00  0.00    +0.000 C 
ENDBRANCH   5  12
ENDBRANCH   1  10
BRANCH   2  13
ATOM     13  C   UNL     1       3.334   4.306  20.268  0.00  0.00    +0.000 C 
BRANCH  13  14
ATOM     14  N   UNL     1       4.068   4.307  19.017  0.00  0.00    +0.000 N 
ATOM     15  S   UNL     1       3.270   4.060  17.523  0.00  0.00    +0.000 S 
ATOM     16  C   UNL     1       4.780   4.336  16.641  0.00  0.00    +0.000 A 
ATOM     17  C   UNL     1       4.995   4.225  15.276  0.00  0.00    +0.000 A 
ATOM     18  C   UNL     1       6.282   4.448  14.779  0.00  0.00    +0.000 A 
ATOM     19  C   UNL     1       7.336   4.797  15.645  0.00  0.00    +0.000 A 
ATOM     20  C   UNL     1       7.107   4.917  17.019  0.00  0.00    +0.000 A 
ATOM     21  C   UNL     1       5.826   4.670  17.498  0.00  0.00    +0.000 A 
ATOM     22  C   UNL     1       5.400   4.680  18.919  0.00  0.00    +0.000 A 
ATOM     23  O   UNL     1       6.135   4.953  19.856  0.00  0.00    +0.000 OA
ENDBRANCH  13  14
ENDBRANCH   2  13
TORSDOF 4
ENDMDL
MODEL 2
REMARK VINA RESULT:      -7.0      3.061      7.235
REMARK  Name = 
REMARK  4 active torsions:
REMARK  status: ('A' for Active; 'I' for Inactive)
REMARK    1  A    between atoms: C_2  and  C_3
REMARK    2  A    between atoms: C_8  and  N_9
REMARK    3  A    between atoms: C_10  and  C_12
REMARK    4  A    between atoms: C_12  and  N_13
REMARK                            x       y       z     vdW  Elec       q    Type
REMARK                         _______ _______ _______ _____ _____    ______ ____
ROOT
ATOM      1  N   UNL     1       6.228   4.898  15.393  0.00  0.00    +0.000 N 
ATOM      2  C   UNL     1       5.643   6.105  15.762  0.00  0.00    +0.000 C 
ATOM      3  O   UNL     1       5.062   6.859  14.984  0.00  0.00    +0.000 OA
ATOM      4  H   UNL     1       7.104   4.712  15.889  0.00  0.00    +0.000 HD
ENDROOT
BRANCH   1  10
ATOM      5  C   UNL     1       7.115   4.558  13.081  0.00  0.00    +0.000 A 
ATOM      6  C   UNL     1       6.927   3.976  11.815  0.00  0.00    +0.000 A 
ATOM      7  C   UNL     1       5.774   3.242  11.535  0.00  0.00    +0.000 A 
ATOM      8  C   UNL     1       4.788   3.106  12.508  0.00  0.00    +0.000 A 
ATOM      9  C   UNL     1       4.958   3.690  13.764  0.00  0.00    +0.000 A 
ATOM     10  C   UNL     1       6.133   4.387  14.076  0.00  0.00    +0.000 A 
BRANCH   5  12
ATOM     11  N   UNL     1       9.131   6.175  13.342  0.00  0.00    +0.000 NA
ATOM     12  C   UNL     1       8.251   5.420  13.253  0.00  0.00    +0.000 C 
ENDBRANCH   5  12
ENDBRANCH   1  10
BRANCH   2  13
ATOM     13  C   UNL     1       5.909   6.484  17.221  0.00  0.00    +0.000 C 
BRANCH  13  14
ATOM     14  N   UNL     1       4.946   5.851  18.103  0.00  0.00    +0.000 N 
ATOM     15  S   UNL     1       3.380   6.505  18.318  0.00  0.00    +0.000 S 
ATOM     16  C   UNL     1       2.922   5.138  19.345  0.00  0.00    +0.000 A 
ATOM     17  C   UNL     1       1.731   4.957  20.032  0.00  0.00    +0.000 A 
ATOM     18  C   UNL     1       1.582   3.818  20.828  0.00  0.00    +0.000 A 
ATOM     19  C   UNL     1       2.612   2.862  20.915  0.00  0.00    +0.000 A 
ATOM     20  C   UNL     1       3.805   3.048  20.210  0.00  0.00    +0.000 A 
ATOM     21  C   UNL     1       3.945   4.197  19.442  0.00  0.00    +0.000 A 
ATOM     22  C   UNL     1       5.150   4.606  18.680  0.00  0.00    +0.000 A 
ATOM     23  O   UNL     1       6.174   3.944  18.603  0.00  0.00    +0.000 OA
ENDBRANCH  13  14
ENDBRANCH   2  13
TORSDOF 4
ENDMDL
MODEL 3
REMARK VINA RESULT:      -7.0      1.216      1.618
REMARK  Name = 
REMARK  4 active torsions:
REMARK  status: ('A' for Active; 'I' for Inactive)
REMARK    1  A    between atoms: C_2  and  C_3
REMARK    2  A    between atoms: C_8  and  N_9
REMARK    3  A    between atoms: C_10  and  C_12
REMARK    4  A    between atoms: C_12  and  N_13
REMARK                            x       y       z     vdW  Elec       q    Type
REMARK                         _______ _______ _______ _____ _____    ______ ____
ROOT
ATOM      1  N   UNL     1       2.590   6.717  20.288  0.00  0.00    +0.000 N 
ATOM      2  C   UNL     1       2.114   5.410  20.257  0.00  0.00    +0.000 C 
ATOM      3  O   UNL     1       0.927   5.103  20.346  0.00  0.00    +0.000 OA
ATOM      4  H   UNL     1       3.476   6.807  20.791  0.00  0.00    +0.000 HD
ENDROOT
BRANCH   1  10
ATOM      5  C   UNL     1       1.469   8.704  19.267  0.00  0.00    +0.000 A 
ATOM      6  C   UNL     1       0.558   9.763  19.431  0.00  0.00    +0.000 A 
ATOM      7  C   UNL     1      -0.087   9.963  20.652  0.00  0.00    +0.000 A 
ATOM      8  C   UNL     1       0.192   9.124  21.727  0.00  0.00    +0.000 A 
ATOM      9  C   UNL     1       1.104   8.077  21.579  0.00  0.00    +0.000 A 
ATOM     10  C   UNL     1       1.720   7.833  20.345  0.00  0.00    +0.000 A 
BRANCH   5  12
ATOM     11  N   UNL     1       2.861   8.555  17.079  0.00  0.00    +0.000 NA
ATOM     12  C   UNL     1       2.204   8.646  18.035  0.00  0.00    +0.000 C 
ENDBRANCH   5  12
ENDBRANCH   1  10
BRANCH   2  13
ATOM     13  C   UNL     1       3.229   4.362  20.240  0.00  0.00    +0.000 C 
BRANCH  13  14
ATOM     14  N   UNL     1       4.079   4.530  19.076  0.00  0.00    +0.000 N 
ATOM     15  S   UNL     1       5.677   5.124  19.226  0.00  0.00    +0.000 S 
ATOM     16  C   UNL     1       5.956   4.884  17.495  0.00  0.00    +0.000 A 
ATOM     17  C   UNL     1       7.082   5.229  16.762  0.00  0.00    +0.000 A 
ATOM     18  C   UNL     1       7.088   4.989  15.386  0.00  0.00    +0.000 A 
ATOM     19  C   UNL     1       5.980   4.390  14.756  0.00  0.00    +0.000 A 
ATOM     20  C   UNL     1       4.853   4.035  15.504  0.00  0.00    +0.000 A 
ATOM     21  C   UNL     1       4.856   4.302  16.868  0.00  0.00    +0.000 A 
ATOM     22  C   UNL     1       3.738   4.064  17.815  0.00  0.00    +0.000 A 
ATOM     23  O   UNL     1       2.672   3.555  17.506  0.00  0.00    +0.000 OA
ENDBRANCH  13  14
ENDBRANCH   2  13
TORSDOF 4
ENDMDL
MODEL 4
REMARK VINA RESULT:      -6.8      3.309      4.462
REMARK  Name = 
REMARK  4 active torsions:
REMARK  status: ('A' for Active; 'I' for Inactive)
REMARK    1  A    between atoms: C_2  and  C_3
REMARK    2  A    between atoms: C_8  and  N_9
REMARK    3  A    between atoms: C_10  and  C_12
REMARK    4  A    between atoms: C_12  and  N_13
REMARK                            x       y       z     vdW  Elec       q    Type
REMARK                         _______ _______ _______ _____ _____    ______ ____
ROOT
ATOM      1  N   UNL     1       3.753   4.919  19.071  0.00  0.00    +0.000 N 
ATOM      2  C   UNL     1       5.095   4.624  18.853  0.00  0.00    +0.000 C 
ATOM      3  O   UNL     1       5.687   3.673  19.361  0.00  0.00    +0.000 OA
ATOM      4  H   UNL     1       3.570   5.924  19.128  0.00  0.00    +0.000 HD
ENDROOT
BRANCH   1  10
ATOM      5  C   UNL     1       2.234   2.955  19.360  0.00  0.00    +0.000 A 
ATOM      6  C   UNL     1       1.455   2.180  20.238  0.00  0.00    +0.000 A 
ATOM      7  C   UNL     1       1.346   2.527  21.585  0.00  0.00    +0.000 A 
ATOM      8  C   UNL     1       1.991   3.665  22.060  0.00  0.00    +0.000 A 
ATOM      9  C   UNL     1       2.757   4.449  21.195  0.00  0.00    +0.000 A 
ATOM     10  C   UNL     1       2.916   4.085  19.852  0.00  0.00    +0.000 A 
BRANCH   5  12
ATOM     11  N   UNL     1       2.189   2.433  16.816  0.00  0.00    +0.000 NA
ATOM     12  C   UNL     1       2.184   2.627  17.963  0.00  0.00    +0.000 C 
ENDBRANCH   5  12
ENDBRANCH   1  10
BRANCH   2  13
ATOM     13  C   UNL     1       5.818   5.683  18.017  0.00  0.00    +0.000 C 
BRANCH  13  14
ATOM     14  N   UNL     1       6.040   5.211  16.664  0.00  0.00    +0.000 N 
ATOM     15  S   UNL     1       4.945   4.132  15.912  0.00  0.00    +0.000 S 
ATOM     16  C   UNL     1       5.860   4.215  14.400  0.00  0.00    +0.000 A 
ATOM     17  C   UNL     1       5.636   3.499  13.233  0.00  0.00    +0.000 A 
ATOM     18  C   UNL     1       6.506   3.681  12.155  0.00  0.00    +0.000 A 
ATOM     19  C   UNL     1       7.578   4.590  12.243  0.00  0.00    +0.000 A 
ATOM     20  C   UNL     1       7.790   5.317  13.419  0.00  0.00    +0.000 A 
ATOM     21  C   UNL     1       6.928   5.106  14.489  0.00  0.00    +0.000 A 
ATOM     22  C   UNL     1       7.026   5.724  15.834  0.00  0.00    +0.000 A 
ATOM     23  O   UNL     1       7.873   6.544  16.154  0.00  0.00    +0.000 OA
ENDBRANCH  13  14
ENDBRANCH   2  13
TORSDOF 4
ENDMDL
MODEL 5
REMARK VINA RESULT:      -6.8      2.468      4.284
REMARK  Name = 
REMARK  4 active torsions:
REMARK  status: ('A' for Active; 'I' for Inactive)
REMARK    1  A    between atoms: C_2  and  C_3
REMARK    2  A    between atoms: C_8  and  N_9
REMARK    3  A    between atoms: C_10  and  C_12
REMARK    4  A    between atoms: C_12  and  N_13
REMARK                            x       y       z     vdW  Elec       q    Type
REMARK                         _______ _______ _______ _____ _____    ______ ____
ROOT
ATOM      1  N   UNL     1       3.901   4.812  18.505  0.00  0.00    +0.000 N 
ATOM      2  C   UNL     1       5.212   4.435  18.778  0.00  0.00    +0.000 C 
ATOM      3  O   UNL     1       5.527   3.563  19.586  0.00  0.00    +0.000 OA
ATOM      4  H   UNL     1       3.800   5.819  18.348  0.00  0.00    +0.000 HD
ENDROOT
BRANCH   1  10
ATOM      5  C   UNL     1       1.808   4.792  19.872  0.00  0.00    +0.000 A 
ATOM      6  C   UNL     1       0.730   4.042  20.374  0.00  0.00    +0.000 A 
ATOM      7  C   UNL     1       0.633   2.675  20.112  0.00  0.00    +0.000 A 
ATOM      8  C   UNL     1       1.625   2.040  19.370  0.00  0.00    +0.000 A 
ATOM      9  C   UNL     1       2.707   2.772  18.876  0.00  0.00    +0.000 A 
ATOM     10  C   UNL     1       2.791   4.155  19.089  0.00  0.00    +0.000 A 
BRANCH   5  12
ATOM     11  N   UNL     1       1.947   7.281  20.600  0.00  0.00    +0.000 NA
ATOM     12  C   UNL     1       1.924   6.157  20.300  0.00  0.00    +0.000 C 
ENDBRANCH   5  12
ENDBRANCH   1  10
BRANCH   2  13
ATOM     13  C   UNL     1       6.251   5.308  18.073  0.00  0.00    +0.000 C 
BRANCH  13  14
ATOM     14  N   UNL     1       6.390   4.925  16.680  0.00  0.00    +0.000 N 
ATOM     15  S   UNL     1       5.407   3.702  15.997  0.00  0.00    +0.000 S 
ATOM     16  C   UNL     1       6.116   3.988  14.401  0.00  0.00    +0.000 A 
ATOM     17  C   UNL     1       5.879   3.282  13.230  0.00  0.00    +0.000 A 
ATOM     18  C   UNL     1       6.577   3.644  12.075  0.00  0.00    +0.000 A 
ATOM     19  C   UNL     1       7.488   4.717  12.093  0.00  0.00    +0.000 A 
ATOM     20  C   UNL     1       7.713   5.430  13.275  0.00  0.00    +0.000 A 
ATOM     21  C   UNL     1       7.027   5.042  14.420  0.00  0.00    +0.000 A 
ATOM     22  C   UNL     1       7.176   5.624  15.776  0.00  0.00    +0.000 A 
ATOM     23  O   UNL     1       7.908   6.564  16.045  0.00  0.00    +0.000 OA
ENDBRANCH  13  14
ENDBRANCH   2  13
TORSDOF 4
ENDMDL
MODEL 6
REMARK VINA RESULT:      -6.7      3.009      7.422
REMARK  Name = 
REMARK  4 active torsions:
REMARK  status: ('A' for Active; 'I' for Inactive)
REMARK    1  A    between atoms: C_2  and  C_3
REMARK    2  A    between atoms: C_8  and  N_9
REMARK    3  A    between atoms: C_10  and  C_12
REMARK    4  A    between atoms: C_12  and  N_13
REMARK                            x       y       z     vdW  Elec       q    Type
REMARK                         _______ _______ _______ _____ _____    ______ ____
ROOT
ATOM      1  N   UNL     1       6.276   4.752  15.295  0.00  0.00    +0.000 N 
ATOM      2  C   UNL     1       5.690   5.940  15.721  0.00  0.00    +0.000 C 
ATOM      3  O   UNL     1       5.129   6.742  14.976  0.00  0.00    +0.000 OA
ATOM      4  H   UNL     1       7.140   4.532  15.797  0.00  0.00    +0.000 HD
ENDROOT
BRANCH   1  10
ATOM      5  C   UNL     1       7.185   4.584  12.973  0.00  0.00    +0.000 A 
ATOM      6  C   UNL     1       7.024   4.073  11.673  0.00  0.00    +0.000 A 
ATOM      7  C   UNL     1       5.900   3.316  11.342  0.00  0.00    +0.000 A 
ATOM      8  C   UNL     1       4.915   3.086  12.298  0.00  0.00    +0.000 A 
ATOM      9  C   UNL     1       5.058   3.599  13.589  0.00  0.00    +0.000 A 
ATOM     10  C   UNL     1       6.205   4.318  13.949  0.00  0.00    +0.000 A 
BRANCH   5  12
ATOM     11  N   UNL     1       9.177   6.217  13.308  0.00  0.00    +0.000 NA
ATOM     12  C   UNL     1       8.288   5.474  13.204  0.00  0.00    +0.000 C 
ENDBRANCH   5  12
ENDBRANCH   1  10
BRANCH   2  13
ATOM     13  C   UNL     1       5.927   6.233  17.204  0.00  0.00    +0.000 C 
BRANCH  13  14
ATOM     14  N   UNL     1       4.953   5.544  18.030  0.00  0.00    +0.000 N 
ATOM     15  S   UNL     1       5.326   4.051  18.779  0.00  0.00    +0.000 S 
ATOM     16  C   UNL     1       3.757   4.041  19.598  0.00  0.00    +0.000 A 
ATOM     17  C   UNL     1       3.226   3.040  20.397  0.00  0.00    +0.000 A 
ATOM     18  C   UNL     1       1.942   3.210  20.922  0.00  0.00    +0.000 A 
ATOM     19  C   UNL     1       1.209   4.383  20.661  0.00  0.00    +0.000 A 
ATOM     20  C   UNL     1       1.757   5.392  19.863  0.00  0.00    +0.000 A 
ATOM     21  C   UNL     1       3.026   5.197  19.331  0.00  0.00    +0.000 A 
ATOM     22  C   UNL     1       3.747   6.112  18.413  0.00  0.00    +0.000 A 
ATOM     23  O   UNL     1       3.317   7.192  18.040  0.00  0.00    +0.000 OA
ENDBRANCH  13  14
ENDBRANCH   2  13
TORSDOF 4
ENDMDL
MODEL 7
REMARK VINA RESULT:      -6.7      3.383      7.465
REMARK  Name = 
REMARK  4 active torsions:
REMARK  status: ('A' for Active; 'I' for Inactive)
REMARK    1  A    between atoms: C_2  and  C_3
REMARK    2  A    between atoms: C_8  and  N_9
REMARK    3  A    between atoms: C_10  and  C_12
REMARK    4  A    between atoms: C_12  and  N_13
REMARK                            x       y       z     vdW  Elec       q    Type
REMARK                         _______ _______ _______ _____ _____    ______ ____
ROOT
ATOM      1  N   UNL     1       5.580   5.133  14.739  0.00  0.00    +0.000 N 
ATOM      2  C   UNL     1       5.629   4.577  16.014  0.00  0.00    +0.000 C 
ATOM      3  O   UNL     1       5.833   3.386  16.243  0.00  0.00    +0.000 OA
ATOM      4  H   UNL     1       4.869   5.864  14.650  0.00  0.00    +0.000 HD
ENDROOT
BRANCH   1  10
ATOM      5  C   UNL     1       7.060   4.397  12.864  0.00  0.00    +0.000 A 
ATOM      6  C   UNL     1       7.222   3.570  11.738  0.00  0.00    +0.000 A 
ATOM      7  C   UNL     1       6.186   2.735  11.316  0.00  0.00    +0.000 A 
ATOM      8  C   UNL     1       4.973   2.739  11.998  0.00  0.00    +0.000 A 
ATOM      9  C   UNL     1       4.797   3.565  13.110  0.00  0.00    +0.000 A 
ATOM     10  C   UNL     1       5.845   4.371  13.575  0.00  0.00    +0.000 A 
BRANCH   5  12
ATOM     11  N   UNL     1       9.008   6.049  13.337  0.00  0.00    +0.000 NA
ATOM     12  C   UNL     1       8.108   5.335  13.154  0.00  0.00    +0.000 C 
ENDBRANCH   5  12
ENDBRANCH   1  10
BRANCH   2  13
ATOM     13  C   UNL     1       5.267   5.571  17.120  0.00  0.00    +0.000 C 
BRANCH  13  14
ATOM     14  N   UNL     1       4.308   4.992  18.042  0.00  0.00    +0.000 N 
ATOM     15  S   UNL     1       2.625   5.108  17.756  0.00  0.00    +0.000 S 
ATOM     16  C   UNL     1       2.289   4.106  19.176  0.00  0.00    +0.000 A 
ATOM     17  C   UNL     1       1.050   3.779  19.708  0.00  0.00    +0.000 A 
ATOM     18  C   UNL     1       1.002   3.002  20.868  0.00  0.00    +0.000 A 
ATOM     19  C   UNL     1       2.186   2.543  21.476  0.00  0.00    +0.000 A 
ATOM     20  C   UNL     1       3.430   2.869  20.927  0.00  0.00    +0.000 A 
ATOM     21  C   UNL     1       3.460   3.661  19.785  0.00  0.00    +0.000 A 
ATOM     22  C   UNL     1       4.672   4.167  19.096  0.00  0.00    +0.000 A 
ATOM     23  O   UNL     1       5.816   3.906  19.435  0.00  0.00    +0.000 OA
ENDBRANCH  13  14
ENDBRANCH   2  13
TORSDOF 4
ENDMDL
MODEL 8
REMARK VINA RESULT:      -6.6      2.801      7.326
REMARK  Name = 
REMARK  4 active torsions:
REMARK  status: ('A' for Active; 'I' for Inactive)
REMARK    1  A    between atoms: C_2  and  C_3
REMARK    2  A    between atoms: C_8  and  N_9
REMARK    3  A    between atoms: C_10  and  C_12
REMARK    4  A    between atoms: C_12  and  N_13
REMARK                            x       y       z     vdW  Elec       q    Type
REMARK                         _______ _______ _______ _____ _____    ______ ____
ROOT
ATOM      1  N   UNL     1       6.160   5.603  15.020  0.00  0.00    +0.000 N 
ATOM      2  C   UNL     1       6.969   5.366  16.127  0.00  0.00    +0.000 C 
ATOM      3  O   UNL     1       7.691   4.379  16.258  0.00  0.00    +0.000 OA
ATOM      4  H   UNL     1       5.263   6.028  15.266  0.00  0.00    +0.000 HD
ENDROOT
BRANCH   1  10
ATOM      5  C   UNL     1       7.222   4.646  12.969  0.00  0.00    +0.000 A 
ATOM      6  C   UNL     1       7.125   3.737  11.900  0.00  0.00    +0.000 A 
ATOM      7  C   UNL     1       5.985   2.948  11.741  0.00  0.00    +0.000 A 
ATOM      8  C   UNL     1       4.923   3.079  12.631  0.00  0.00    +0.000 A 
ATOM      9  C   UNL     1       5.003   3.987  13.688  0.00  0.00    +0.000 A 
ATOM     10  C   UNL     1       6.161   4.749  13.890  0.00  0.00    +0.000 A 
BRANCH   5  12
ATOM     11  N   UNL     1       9.245   6.271  13.082  0.00  0.00    +0.000 NA
ATOM     12  C   UNL     1       8.355   5.528  12.989  0.00  0.00    +0.000 C 
ENDBRANCH   5  12
ENDBRANCH   1  10
BRANCH   2  13
ATOM     13  C   UNL     1       6.775   6.390  17.247  0.00  0.00    +0.000 C 
BRANCH  13  14
ATOM     14  N   UNL     1       5.565   6.111  17.998  0.00  0.00    +0.000 N 
ATOM     15  S   UNL     1       4.101   6.927  17.651  0.00  0.00    +0.000 S 
ATOM     16  C   UNL     1       3.241   5.946  18.847  0.00  0.00    +0.000 A 
ATOM     17  C   UNL     1       1.918   6.064  19.246  0.00  0.00    +0.000 A 
ATOM     18  C   UNL     1       1.438   5.210  20.243  0.00  0.00    +0.000 A 
ATOM     19  C   UNL     1       2.275   4.235  20.818  0.00  0.00    +0.000 A 
ATOM     20  C   UNL     1       3.605   4.116  20.402  0.00  0.00    +0.000 A 
ATOM     21  C   UNL     1       4.072   4.988  19.426  0.00  0.00    +0.000 A 
ATOM     22  C   UNL     1       5.458   5.066  18.903  0.00  0.00    +0.000 A 
ATOM     23  O   UNL     1       6.366   4.326  19.249  0.00  0.00    +0.000 OA
ENDBRANCH  13  14
ENDBRANCH   2  13
TORSDOF 4
ENDMDL
MODEL 9
REMARK VINA RESULT:      -6.6      2.710      7.407
REMARK  Name = 
REMARK  4 active torsions:
REMARK  status: ('A' for Active; 'I' for Inactive)
REMARK    1  A    between atoms: C_2  and  C_3
REMARK    2  A    between atoms: C_8  and  N_9
REMARK    3  A    between atoms: C_10  and  C_12
REMARK    4  A    between atoms: C_12  and  N_13
REMARK                            x       y       z     vdW  Elec       q    Type
REMARK                         _______ _______ _______ _____ _____    ______ ____
ROOT
ATOM      1  N   UNL     1       2.117   5.763  17.855  0.00  0.00    +0.000 N 
ATOM      2  C   UNL     1       2.733   6.701  18.678  0.00  0.00    +0.000 C 
ATOM      3  O   UNL     1       3.446   6.417  19.639  0.00  0.00    +0.000 OA
ATOM      4  H   UNL     1       1.181   6.049  17.556  0.00  0.00    +0.000 HD
ENDROOT
BRANCH   1  10
ATOM      5  C   UNL     1       3.451   3.675  17.524  0.00  0.00    +0.000 A 
ATOM      6  C   UNL     1       3.569   2.295  17.768  0.00  0.00    +0.000 A 
ATOM      7  C   UNL     1       2.580   1.612  18.477  0.00  0.00    +0.000 A 
ATOM      8  C   UNL     1       1.453   2.295  18.924  0.00  0.00    +0.000 A 
ATOM      9  C   UNL     1       1.319   3.662  18.677  0.00  0.00    +0.000 A 
ATOM     10  C   UNL     1       2.327   4.371  18.011  0.00  0.00    +0.000 A 
BRANCH   5  12
ATOM     11  N   UNL     1       5.281   4.739  16.019  0.00  0.00    +0.000 NA
ATOM     12  C   UNL     1       4.428   4.283  16.666  0.00  0.00    +0.000 C 
ENDBRANCH   5  12
ENDBRANCH   1  10
BRANCH   2  13
ATOM     13  C   UNL     1       2.330   8.142  18.358  0.00  0.00    +0.000 C 
BRANCH  13  14
ATOM     14  N   UNL     1       1.521   8.701  19.424  0.00  0.00    +0.000 N 
ATOM     15  S   UNL     1       1.377   7.908  20.934  0.00  0.00    +0.000 S 
ATOM     16  C   UNL     1       0.415   9.248  21.575  0.00  0.00    +0.000 A 
ATOM     17  C   UNL     1      -0.199   9.333  22.816  0.00  0.00    +0.000 A 
ATOM     18  C   UNL     1      -0.953  10.470  23.116  0.00  0.00    +0.000 A 
ATOM     19  C   UNL     1      -1.071  11.520  22.186  0.00  0.00    +0.000 A 
ATOM     20  C   UNL     1      -0.439  11.432  20.941  0.00  0.00    +0.000 A 
ATOM     21  C   UNL     1       0.288  10.283  20.651  0.00  0.00    +0.000 A 
ATOM     22  C   UNL     1       0.969   9.972  19.370  0.00  0.00    +0.000 A 
ATOM     23  O   UNL     1       1.007  10.726  18.410  0.00  0.00    +0.000 OA
ENDBRANCH  13  14
ENDBRANCH   2  13
TORSDOF 4
ENDMDL
