MODEL 1
REMARK VINA RESULT:      -8.0      0.000      0.000
REMARK  Name = 
REMARK  7 active torsions:
REMARK  status: ('A' for Active; 'I' for Inactive)
REMARK    1  A    between atoms: C_7  and  C_8
REMARK    2  A    between atoms: N_12  and  C_13
REMARK    3  A    between atoms: C_13  and  C_14
REMARK    4  A    between atoms: C_14  and  C_15
REMARK    5  A    between atoms: C_15  and  N_16
REMARK    6  A    between atoms: C_19  and  C_20
REMARK    7  A    between atoms: C_20  and  C_21
REMARK                            x       y       z     vdW  Elec       q    Type
REMARK                         _______ _______ _______ _____ _____    ______ ____
ROOT
ATOM      1  C   UNL     1       2.518   6.211  18.218  0.00  0.00    +0.000 C 
ENDROOT
BRANCH   1   2
ATOM      2  C   UNL     1       2.107   4.730  18.298  0.00  0.00    +0.000 C 
BRANCH   2   7
ATOM      3  C   UNL     1       4.394   3.592  18.719  0.00  0.00    +0.000 A 
ATOM      4  N   UNL     1       4.801   2.785  19.688  0.00  0.00    +0.000 NA
ATOM      5  N   UNL     1       3.750   2.581  20.528  0.00  0.00    +0.000 NA
ATOM      6  N   UNL     1       2.697   3.262  20.127  0.00  0.00    +0.000 NA
ATOM      7  N   UNL     1       3.074   3.899  18.997  0.00  0.00    +0.000 N 
BRANCH   3  14
ATOM      8 CL   UNL     1       6.811   5.492  19.413  0.00  0.00    +0.000 Cl
ATOM      9  C   UNL     1       6.320   4.960  17.837  0.00  0.00    +0.000 A 
ATOM     10  C   UNL     1       7.062   5.479  16.765  0.00  0.00    +0.000 A 
ATOM     11  C   UNL     1       6.775   5.097  15.459  0.00  0.00    +0.000 A 
ATOM     12  C   UNL     1       5.741   4.198  15.222  0.00  0.00    +0.000 A 
ATOM     13  C   UNL     1       4.985   3.693  16.287  0.00  0.00    +0.000 A 
ATOM     14  C   UNL     1       5.257   4.053  17.619  0.00  0.00    +0.000 A 
ENDBRANCH   3  14
ENDBRANCH   2   7
ENDBRANCH   1   2
BRANCH   1  15
ATOM     15  C   UNL     1       2.496   6.965  19.550  0.00  0.00    +0.000 C 
BRANCH  15  16
ATOM     16  N   UNL     1       2.052   8.369  19.484  0.00  0.00    +0.000 NA
ATOM     17  C   UNL     1       2.052   8.875  18.098  0.00  0.00    +0.000 C 
ATOM     18  C   UNL     1       1.551  10.316  18.026  0.00  0.00    +0.000 C 
ATOM     19  C   UNL     1       0.128  10.459  18.576  0.00  0.00    +0.000 C 
ATOM     20  C   UNL     1       0.125   9.894  20.006  0.00  0.00    +0.000 C 
ATOM     21  C   UNL     1       0.704   8.475  20.083  0.00  0.00    +0.000 C 
BRANCH  19  22
ATOM     22  C   UNL     1      -0.950   9.769  17.704  0.00  0.00    +0.000 C 
BRANCH  22  23
ATOM     23  C   UNL     1      -2.268  10.503  17.590  0.00  0.00    +0.000 A 
ATOM     24  C   UNL     1      -3.031  10.401  16.418  0.00  0.00    +0.000 A 
ATOM     25  C   UNL     1      -4.267  11.041  16.315  0.00  0.00    +0.000 A 
ATOM     26  C   UNL     1      -4.754  11.793  17.383  0.00  0.00    +0.000 A 
ATOM     27  C   UNL     1      -4.004  11.904  18.552  0.00  0.00    +0.000 A 
ATOM     28  C   UNL     1      -2.770  11.262  18.657  0.00  0.00    +0.000 A 
ENDBRANCH  22  23
ENDBRANCH  19  22
ENDBRANCH  15  16
ENDBRANCH   1  15
TORSDOF 7
ENDMDL
MODEL 2
REMARK VINA RESULT:      -7.8      1.727      2.325
REMARK  Name = 
REMARK  7 active torsions:
REMARK  status: ('A' for Active; 'I' for Inactive)
REMARK    1  A    between atoms: C_7  and  C_8
REMARK    2  A    between atoms: N_12  and  C_13
REMARK    3  A    between atoms: C_13  and  C_14
REMARK    4  A    between atoms: C_14  and  C_15
REMARK    5  A    between atoms: C_15  and  N_16
REMARK    6  A    between atoms: C_19  and  C_20
REMARK    7  A    between atoms: C_20  and  C_21
REMARK                            x       y       z     vdW  Elec       q    Type
REMARK                         _______ _______ _______ _____ _____    ______ ____
ROOT
ATOM      1  C   UNL     1       2.386   6.752  19.331  0.00  0.00    +0.000 C 
ENDROOT
BRANCH   1   2
ATOM      2  C   UNL     1       2.478   5.236  19.581  0.00  0.00    +0.000 C 
BRANCH   2   7
ATOM      3  C   UNL     1       4.131   4.502  17.729  0.00  0.00    +0.000 A 
ATOM      4  N   UNL     1       4.005   3.619  16.749  0.00  0.00    +0.000 NA
ATOM      5  N   UNL     1       2.753   3.090  16.823  0.00  0.00    +0.000 NA
ATOM      6  N   UNL     1       2.095   3.600  17.843  0.00  0.00    +0.000 NA
ATOM      7  N   UNL     1       2.934   4.486  18.421  0.00  0.00    +0.000 N 
BRANCH   3  14
ATOM      8 CL   UNL     1       4.916   6.760  15.676  0.00  0.00    +0.000 Cl
ATOM      9  C   UNL     1       5.812   6.263  17.075  0.00  0.00    +0.000 A 
ATOM     10  C   UNL     1       7.039   6.916  17.270  0.00  0.00    +0.000 A 
ATOM     11  C   UNL     1       7.827   6.618  18.376  0.00  0.00    +0.000 A 
ATOM     12  C   UNL     1       7.393   5.661  19.287  0.00  0.00    +0.000 A 
ATOM     13  C   UNL     1       6.179   4.993  19.085  0.00  0.00    +0.000 A 
ATOM     14  C   UNL     1       5.356   5.279  17.982  0.00  0.00    +0.000 A 
ENDBRANCH   3  14
ENDBRANCH   2   7
ENDBRANCH   1   2
BRANCH   1  15
ATOM     15  C   UNL     1       1.973   7.588  20.546  0.00  0.00    +0.000 C 
BRANCH  15  16
ATOM     16  N   UNL     1       1.457   8.936  20.250  0.00  0.00    +0.000 NA
ATOM     17  C   UNL     1       1.096   9.080  18.827  0.00  0.00    +0.000 C 
ATOM     18  C   UNL     1       0.520  10.464  18.531  0.00  0.00    +0.000 C 
ATOM     19  C   UNL     1      -0.732  10.757  19.363  0.00  0.00    +0.000 C 
ATOM     20  C   UNL     1      -0.361  10.567  20.843  0.00  0.00    +0.000 C 
ATOM     21  C   UNL     1       0.291   9.205  21.119  0.00  0.00    +0.000 C 
BRANCH  19  22
ATOM     22  C   UNL     1      -1.953   9.884  18.981  0.00  0.00    +0.000 C 
BRANCH  22  23
ATOM     23  C   UNL     1      -2.640  10.252  17.684  0.00  0.00    +0.000 A 
ATOM     24  C   UNL     1      -3.768  11.084  17.695  0.00  0.00    +0.000 A 
ATOM     25  C   UNL     1      -4.388  11.461  16.502  0.00  0.00    +0.000 A 
ATOM     26  C   UNL     1      -3.886  11.009  15.283  0.00  0.00    +0.000 A 
ATOM     27  C   UNL     1      -2.766  10.181  15.258  0.00  0.00    +0.000 A 
ATOM     28  C   UNL     1      -2.145   9.805  16.450  0.00  0.00    +0.000 A 
ENDBRANCH  22  23
ENDBRANCH  19  22
ENDBRANCH  15  16
ENDBRANCH   1  15
TORSDOF 7
ENDMDL
MODEL 3
REMARK VINA RESULT:      -7.7      5.707      9.079
REMARK  Name = 
REMARK  7 active torsions:
REMARK  status: ('A' for Active; 'I' for Inactive)
REMARK    1  A    between atoms: C_7  and  C_8
REMARK    2  A    between atoms: N_12  and  C_13
REMARK    3  A    between atoms: C_13  and  C_14
REMARK    4  A    between atoms: C_14  and  C_15
REMARK    5  A    between atoms: C_15  and  N_16
REMARK    6  A    between atoms: C_19  and  C_20
REMARK    7  A    between atoms: C_20  and  C_21
REMARK                            x       y       z     vdW  Elec       q    Type
REMARK                         _______ _______ _______ _____ _____    ______ ____
ROOT
ATOM      1  C   UNL     1       8.347   9.197  17.856  0.00  0.00    +0.000 C 
ENDROOT
BRANCH   1   2
ATOM      2  C   UNL     1       8.557  10.408  18.782  0.00  0.00    +0.000 C 
BRANCH   2   7
ATOM      3  C   UNL     1       9.330  12.773  18.066  0.00  0.00    +0.000 A 
ATOM      4  N   UNL     1      10.457  13.190  17.509  0.00  0.00    +0.000 NA
ATOM      5  N   UNL     1      11.253  12.103  17.315  0.00  0.00    +0.000 NA
ATOM      6  N   UNL     1      10.664  11.013  17.761  0.00  0.00    +0.000 NA
ATOM      7  N   UNL     1       9.461  11.406  18.232  0.00  0.00    +0.000 N 
BRANCH   3  14
ATOM      8 CL   UNL     1       9.307  13.997  20.970  0.00  0.00    +0.000 Cl
ATOM      9  C   UNL     1       8.100  14.201  19.741  0.00  0.00    +0.000 A 
ATOM     10  C   UNL     1       6.979  14.956  20.115  0.00  0.00    +0.000 A 
ATOM     11  C   UNL     1       5.962  15.208  19.201  0.00  0.00    +0.000 A 
ATOM     12  C   UNL     1       6.062  14.700  17.910  0.00  0.00    +0.000 A 
ATOM     13  C   UNL     1       7.171  13.929  17.538  0.00  0.00    +0.000 A 
ATOM     14  C   UNL     1       8.219  13.665  18.438  0.00  0.00    +0.000 A 
ENDBRANCH   3  14
ENDBRANCH   2   7
ENDBRANCH   1   2
BRANCH   1  15
ATOM     15  C   UNL     1       8.315   7.837  18.560  0.00  0.00    +0.000 C 
BRANCH  15  16
ATOM     16  N   UNL     1       7.519   6.790  17.895  0.00  0.00    +0.000 NA
ATOM     17  C   UNL     1       6.957   5.835  18.868  0.00  0.00    +0.000 C 
ATOM     18  C   UNL     1       6.096   4.775  18.182  0.00  0.00    +0.000 C 
ATOM     19  C   UNL     1       4.929   5.395  17.408  0.00  0.00    +0.000 C 
ATOM     20  C   UNL     1       5.517   6.419  16.423  0.00  0.00    +0.000 C 
ATOM     21  C   UNL     1       6.445   7.432  17.106  0.00  0.00    +0.000 C 
BRANCH  19  22
ATOM     22  C   UNL     1       3.857   6.049  18.314  0.00  0.00    +0.000 C 
BRANCH  22  23
ATOM     23  C   UNL     1       2.801   5.113  18.860  0.00  0.00    +0.000 A 
ATOM     24  C   UNL     1       2.148   4.213  18.007  0.00  0.00    +0.000 A 
ATOM     25  C   UNL     1       1.201   3.317  18.505  0.00  0.00    +0.000 A 
ATOM     26  C   UNL     1       0.894   3.313  19.865  0.00  0.00    +0.000 A 
ATOM     27  C   UNL     1       1.535   4.203  20.724  0.00  0.00    +0.000 A 
ATOM     28  C   UNL     1       2.484   5.097  20.227  0.00  0.00    +0.000 A 
ENDBRANCH  22  23
ENDBRANCH  19  22
ENDBRANCH  15  16
ENDBRANCH   1  15
TORSDOF 7
ENDMDL
MODEL 4
REMARK VINA RESULT:      -7.7      1.358      1.835
REMARK  Name = 
REMARK  7 active torsions:
REMARK  status: ('A' for Active; 'I' for Inactive)
REMARK    1  A    between atoms: C_7  and  C_8
REMARK    2  A    between atoms: N_12  and  C_13
REMARK    3  A    between atoms: C_13  and  C_14
REMARK    4  A    between atoms: C_14  and  C_15
REMARK    5  A    between atoms: C_15  and  N_16
REMARK    6  A    between atoms: C_19  and  C_20
REMARK    7  A    between atoms: C_20  and  C_21
REMARK                            x       y       z     vdW  Elec       q    Type
REMARK                         _______ _______ _______ _____ _____    ______ ____
ROOT
ATOM      1  C   UNL     1       2.845   6.345  18.315  0.00  0.00    +0.000 C 
ENDROOT
BRANCH   1   2
ATOM      2  C   UNL     1       2.051   5.108  17.860  0.00  0.00    +0.000 C 
BRANCH   2   7
ATOM      3  C   UNL     1       4.089   3.550  18.209  0.00  0.00    +0.000 A 
ATOM      4  N   UNL     1       4.162   2.248  18.442  0.00  0.00    +0.000 NA
ATOM      5  N   UNL     1       2.892   1.758  18.462  0.00  0.00    +0.000 NA
ATOM      6  N   UNL     1       2.019   2.725  18.273  0.00  0.00    +0.000 NA
ATOM      7  N   UNL     1       2.743   3.853  18.110  0.00  0.00    +0.000 N 
BRANCH   3  14
ATOM      8 CL   UNL     1       5.227   4.250  15.354  0.00  0.00    +0.000 Cl
ATOM      9  C   UNL     1       5.874   4.743  16.886  0.00  0.00    +0.000 A 
ATOM     10  C   UNL     1       7.057   5.495  16.828  0.00  0.00    +0.000 A 
ATOM     11  C   UNL     1       7.649   5.968  17.994  0.00  0.00    +0.000 A 
ATOM     12  C   UNL     1       7.060   5.687  19.223  0.00  0.00    +0.000 A 
ATOM     13  C   UNL     1       5.889   4.920  19.286  0.00  0.00    +0.000 A 
ATOM     14  C   UNL     1       5.263   4.436  18.124  0.00  0.00    +0.000 A 
ENDBRANCH   3  14
ENDBRANCH   2   7
ENDBRANCH   1   2
BRANCH   1  15
ATOM     15  C   UNL     1       2.317   7.027  19.581  0.00  0.00    +0.000 C 
BRANCH  15  16
ATOM     16  N   UNL     1       1.982   8.456  19.446  0.00  0.00    +0.000 NA
ATOM     17  C   UNL     1       1.300   8.737  18.169  0.00  0.00    +0.000 C 
ATOM     18  C   UNL     1       0.915  10.210  18.049  0.00  0.00    +0.000 C 
ATOM     19  C   UNL     1      -0.015  10.655  19.182  0.00  0.00    +0.000 C 
ATOM     20  C   UNL     1       0.683  10.324  20.512  0.00  0.00    +0.000 C 
ATOM     21  C   UNL     1       1.140   8.862  20.593  0.00  0.00    +0.000 C 
BRANCH  19  22
ATOM     22  C   UNL     1      -1.424  10.016  19.121  0.00  0.00    +0.000 C 
BRANCH  22  23
ATOM     23  C   UNL     1      -2.248  10.362  17.901  0.00  0.00    +0.000 A 
ATOM     24  C   UNL     1      -1.998   9.725  16.677  0.00  0.00    +0.000 A 
ATOM     25  C   UNL     1      -2.776  10.008  15.554  0.00  0.00    +0.000 A 
ATOM     26  C   UNL     1      -3.815  10.933  15.641  0.00  0.00    +0.000 A 
ATOM     27  C   UNL     1      -4.074  11.574  16.850  0.00  0.00    +0.000 A 
ATOM     28  C   UNL     1      -3.297  11.291  17.974  0.00  0.00    +0.000 A 
ENDBRANCH  22  23
ENDBRANCH  19  22
ENDBRANCH  15  16
ENDBRANCH   1  15
TORSDOF 7
ENDMDL
MODEL 5
REMARK VINA RESULT:      -7.7      1.995      3.114
REMARK  Name = 
REMARK  7 active torsions:
REMARK  status: ('A' for Active; 'I' for Inactive)
REMARK    1  A    between atoms: C_7  and  C_8
REMARK    2  A    between atoms: N_12  and  C_13
REMARK    3  A    between atoms: C_13  and  C_14
REMARK    4  A    between atoms: C_14  and  C_15
REMARK    5  A    between atoms: C_15  and  N_16
REMARK    6  A    between atoms: C_19  and  C_20
REMARK    7  A    between atoms: C_20  and  C_21
REMARK                            x       y       z     vdW  Elec       q    Type
REMARK                         _______ _______ _______ _____ _____    ______ ____
ROOT
ATOM      1  C   UNL     1       2.792   6.729  17.888  0.00  0.00    +0.000 C 
ENDROOT
BRANCH   1   2
ATOM      2  C   UNL     1       4.275   6.574  17.507  0.00  0.00    +0.000 C 
BRANCH   2   7
ATOM      3  C   UNL     1       4.670   4.489  18.990  0.00  0.00    +0.000 A 
ATOM      4  N   UNL     1       5.717   4.120  19.714  0.00  0.00    +0.000 NA
ATOM      5  N   UNL     1       6.669   5.084  19.590  0.00  0.00    +0.000 NA
ATOM      6  N   UNL     1       6.258   6.041  18.785  0.00  0.00    +0.000 NA
ATOM      7  N   UNL     1       5.012   5.692  18.400  0.00  0.00    +0.000 N 
BRANCH   3  14
ATOM      8 CL   UNL     1       2.575   4.604  21.340  0.00  0.00    +0.000 Cl
ATOM      9  C   UNL     1       2.480   3.639  19.903  0.00  0.00    +0.000 A 
ATOM     10  C   UNL     1       1.366   2.790  19.818  0.00  0.00    +0.000 A 
ATOM     11  C   UNL     1       1.172   1.991  18.696  0.00  0.00    +0.000 A 
ATOM     12  C   UNL     1       2.096   2.037  17.657  0.00  0.00    +0.000 A 
ATOM     13  C   UNL     1       3.220   2.869  17.747  0.00  0.00    +0.000 A 
ATOM     14  C   UNL     1       3.437   3.694  18.864  0.00  0.00    +0.000 A 
ENDBRANCH   3  14
ENDBRANCH   2   7
ENDBRANCH   1   2
BRANCH   1  15
ATOM     15  C   UNL     1       2.535   7.340  19.269  0.00  0.00    +0.000 C 
BRANCH  15  16
ATOM     16  N   UNL     1       2.029   8.724  19.273  0.00  0.00    +0.000 NA
ATOM     17  C   UNL     1       1.338   9.054  18.012  0.00  0.00    +0.000 C 
ATOM     18  C   UNL     1       0.776  10.475  18.035  0.00  0.00    +0.000 C 
ATOM     19  C   UNL     1      -0.218  10.682  19.182  0.00  0.00    +0.000 C 
ATOM     20  C   UNL     1       0.495  10.299  20.489  0.00  0.00    +0.000 C 
ATOM     21  C   UNL     1       1.126   8.902  20.431  0.00  0.00    +0.000 C 
BRANCH  19  22
ATOM     22  C   UNL     1      -1.537   9.888  19.016  0.00  0.00    +0.000 C 
BRANCH  22  23
ATOM     23  C   UNL     1      -2.380  10.261  17.816  0.00  0.00    +0.000 A 
ATOM     24  C   UNL     1      -3.426  11.184  17.950  0.00  0.00    +0.000 A 
ATOM     25  C   UNL     1      -4.186  11.566  16.843  0.00  0.00    +0.000 A 
ATOM     26  C   UNL     1      -3.908  11.028  15.588  0.00  0.00    +0.000 A 
ATOM     27  C   UNL     1      -2.872  10.108  15.441  0.00  0.00    +0.000 A 
ATOM     28  C   UNL     1      -2.110   9.728  16.547  0.00  0.00    +0.000 A 
ENDBRANCH  22  23
ENDBRANCH  19  22
ENDBRANCH  15  16
ENDBRANCH   1  15
TORSDOF 7
ENDMDL
MODEL 6
REMARK VINA RESULT:      -7.7      1.261      1.873
REMARK  Name = 
REMARK  7 active torsions:
REMARK  status: ('A' for Active; 'I' for Inactive)
REMARK    1  A    between atoms: C_7  and  C_8
REMARK    2  A    between atoms: N_12  and  C_13
REMARK    3  A    between atoms: C_13  and  C_14
REMARK    4  A    between atoms: C_14  and  C_15
REMARK    5  A    between atoms: C_15  and  N_16
REMARK    6  A    between atoms: C_19  and  C_20
REMARK    7  A    between atoms: C_20  and  C_21
REMARK                            x       y       z     vdW  Elec       q    Type
REMARK                         _______ _______ _______ _____ _____    ______ ____
ROOT
ATOM      1  C   UNL     1       1.715   5.425  18.612  0.00  0.00    +0.000 C 
ENDROOT
BRANCH   1   2
ATOM      2  C   UNL     1       2.520   4.389  17.807  0.00  0.00    +0.000 C 
BRANCH   2   7
ATOM      3  C   UNL     1       4.795   3.733  18.854  0.00  0.00    +0.000 A 
ATOM      4  N   UNL     1       5.123   2.750  19.680  0.00  0.00    +0.000 NA
ATOM      5  N   UNL     1       3.999   2.026  19.932  0.00  0.00    +0.000 NA
ATOM      6  N   UNL     1       2.963   2.544  19.306  0.00  0.00    +0.000 NA
ATOM      7  N   UNL     1       3.437   3.609  18.624  0.00  0.00    +0.000 N 
BRANCH   3  14
ATOM      8 CL   UNL     1       5.079   4.106  15.737  0.00  0.00    +0.000 Cl
ATOM      9  C   UNL     1       5.982   4.921  16.974  0.00  0.00    +0.000 A 
ATOM     10  C   UNL     1       6.973   5.802  16.516  0.00  0.00    +0.000 A 
ATOM     11  C   UNL     1       7.739   6.532  17.419  0.00  0.00    +0.000 A 
ATOM     12  C   UNL     1       7.518   6.377  18.783  0.00  0.00    +0.000 A 
ATOM     13  C   UNL     1       6.543   5.483  19.245  0.00  0.00    +0.000 A 
ATOM     14  C   UNL     1       5.748   4.739  18.356  0.00  0.00    +0.000 A 
ENDBRANCH   3  14
ENDBRANCH   2   7
ENDBRANCH   1   2
BRANCH   1  15
ATOM     15  C   UNL     1       2.542   6.306  19.551  0.00  0.00    +0.000 C 
BRANCH  15  16
ATOM     16  N   UNL     1       2.333   7.759  19.417  0.00  0.00    +0.000 NA
ATOM     17  C   UNL     1       2.254   8.168  18.002  0.00  0.00    +0.000 C 
ATOM     18  C   UNL     1       1.995   9.668  17.865  0.00  0.00    +0.000 C 
ATOM     19  C   UNL     1       0.690  10.090  18.547  0.00  0.00    +0.000 C 
ATOM     20  C   UNL     1       0.761   9.626  20.012  0.00  0.00    +0.000 C 
ATOM     21  C   UNL     1       1.102   8.136  20.144  0.00  0.00    +0.000 C 
BRANCH  19  22
ATOM     22  C   UNL     1      -0.582   9.545  17.853  0.00  0.00    +0.000 C 
BRANCH  22  23
ATOM     23  C   UNL     1      -1.861  10.301  18.142  0.00  0.00    +0.000 A 
ATOM     24  C   UNL     1      -1.831  11.461  18.929  0.00  0.00    +0.000 A 
ATOM     25  C   UNL     1      -2.997  12.189  19.170  0.00  0.00    +0.000 A 
ATOM     26  C   UNL     1      -4.208  11.764  18.628  0.00  0.00    +0.000 A 
ATOM     27  C   UNL     1      -4.253  10.612  17.846  0.00  0.00    +0.000 A 
ATOM     28  C   UNL     1      -3.087   9.885  17.602  0.00  0.00    +0.000 A 
ENDBRANCH  22  23
ENDBRANCH  19  22
ENDBRANCH  15  16
ENDBRANCH   1  15
TORSDOF 7
ENDMDL
MODEL 7
REMARK VINA RESULT:      -7.7      5.891      9.461
REMARK  Name = 
REMARK  7 active torsions:
REMARK  status: ('A' for Active; 'I' for Inactive)
REMARK    1  A    between atoms: C_7  and  C_8
REMARK    2  A    between atoms: N_12  and  C_13
REMARK    3  A    between atoms: C_13  and  C_14
REMARK    4  A    between atoms: C_14  and  C_15
REMARK    5  A    between atoms: C_15  and  N_16
REMARK    6  A    between atoms: C_19  and  C_20
REMARK    7  A    between atoms: C_20  and  C_21
REMARK                            x       y       z     vdW  Elec       q    Type
REMARK                         _______ _______ _______ _____ _____    ______ ____
ROOT
ATOM      1  C   UNL     1       8.392   9.503  17.895  0.00  0.00    +0.000 C 
ENDROOT
BRANCH   1   2
ATOM      2  C   UNL     1       8.858  10.602  18.867  0.00  0.00    +0.000 C 
BRANCH   2   7
ATOM      3  C   UNL     1       9.383  12.988  18.011  0.00  0.00    +0.000 A 
ATOM      4  N   UNL     1      10.439  13.473  17.374  0.00  0.00    +0.000 NA
ATOM      5  N   UNL     1      11.314  12.449  17.180  0.00  0.00    +0.000 NA
ATOM      6  N   UNL     1      10.847  11.334  17.703  0.00  0.00    +0.000 NA
ATOM      7  N   UNL     1       9.641  11.646  18.225  0.00  0.00    +0.000 N 
BRANCH   3  14
ATOM      8 CL   UNL     1       9.358  14.246  20.900  0.00  0.00    +0.000 Cl
ATOM      9  C   UNL     1       8.101  14.342  19.708  0.00  0.00    +0.000 A 
ATOM     10  C   UNL     1       6.938  15.016  20.109  0.00  0.00    +0.000 A 
ATOM     11  C   UNL     1       5.878  15.179  19.225  0.00  0.00    +0.000 A 
ATOM     12  C   UNL     1       5.976  14.662  17.937  0.00  0.00    +0.000 A 
ATOM     13  C   UNL     1       7.128  13.972  17.539  0.00  0.00    +0.000 A 
ATOM     14  C   UNL     1       8.220  13.799  18.408  0.00  0.00    +0.000 A 
ENDBRANCH   3  14
ENDBRANCH   2   7
ENDBRANCH   1   2
BRANCH   1  15
ATOM     15  C   UNL     1       8.413   8.081  18.463  0.00  0.00    +0.000 C 
BRANCH  15  16
ATOM     16  N   UNL     1       7.700   7.064  17.669  0.00  0.00    +0.000 NA
ATOM     17  C   UNL     1       7.660   5.762  18.363  0.00  0.00    +0.000 C 
ATOM     18  C   UNL     1       6.884   4.721  17.559  0.00  0.00    +0.000 C 
ATOM     19  C   UNL     1       5.438   5.156  17.299  0.00  0.00    +0.000 C 
ATOM     20  C   UNL     1       5.484   6.531  16.611  0.00  0.00    +0.000 C 
ATOM     21  C   UNL     1       6.332   7.550  17.383  0.00  0.00    +0.000 C 
BRANCH  19  22
ATOM     22  C   UNL     1       4.561   5.202  18.574  0.00  0.00    +0.000 C 
BRANCH  22  23
ATOM     23  C   UNL     1       3.394   4.240  18.601  0.00  0.00    +0.000 A 
ATOM     24  C   UNL     1       2.223   4.571  19.298  0.00  0.00    +0.000 A 
ATOM     25  C   UNL     1       1.125   3.710  19.298  0.00  0.00    +0.000 A 
ATOM     26  C   UNL     1       1.186   2.504  18.601  0.00  0.00    +0.000 A 
ATOM     27  C   UNL     1       2.343   2.161  17.906  0.00  0.00    +0.000 A 
ATOM     28  C   UNL     1       3.441   3.023  17.903  0.00  0.00    +0.000 A 
ENDBRANCH  22  23
ENDBRANCH  19  22
ENDBRANCH  15  16
ENDBRANCH   1  15
TORSDOF 7
ENDMDL
MODEL 8
REMARK VINA RESULT:      -7.6      2.540      8.837
REMARK  Name = 
REMARK  7 active torsions:
REMARK  status: ('A' for Active; 'I' for Inactive)
REMARK    1  A    between atoms: C_7  and  C_8
REMARK    2  A    between atoms: N_12  and  C_13
REMARK    3  A    between atoms: C_13  and  C_14
REMARK    4  A    between atoms: C_14  and  C_15
REMARK    5  A    between atoms: C_15  and  N_16
REMARK    6  A    between atoms: C_19  and  C_20
REMARK    7  A    between atoms: C_20  and  C_21
REMARK                            x       y       z     vdW  Elec       q    Type
REMARK                         _______ _______ _______ _____ _____    ______ ____
ROOT
ATOM      1  C   UNL     1       2.089   6.171  20.745  0.00  0.00    +0.000 C 
ENDROOT
BRANCH   1   2
ATOM      2  C   UNL     1       1.324   7.492  20.545  0.00  0.00    +0.000 C 
BRANCH   2   7
ATOM      3  C   UNL     1       1.278   9.406  18.803  0.00  0.00    +0.000 A 
ATOM      4  N   UNL     1       1.935   9.563  17.663  0.00  0.00    +0.000 NA
ATOM      5  N   UNL     1       2.719   8.465  17.480  0.00  0.00    +0.000 NA
ATOM      6  N   UNL     1       2.591   7.631  18.490  0.00  0.00    +0.000 NA
ATOM      7  N   UNL     1       1.694   8.195  19.327  0.00  0.00    +0.000 N 
BRANCH   3  14
ATOM      8 CL   UNL     1      -1.486   9.797  17.340  0.00  0.00    +0.000 Cl
ATOM      9  C   UNL     1      -0.897  10.677  18.714  0.00  0.00    +0.000 A 
ATOM     10  C   UNL     1      -1.736  11.701  19.180  0.00  0.00    +0.000 A 
ATOM     11  C   UNL     1      -1.378  12.453  20.293  0.00  0.00    +0.000 A 
ATOM     12  C   UNL     1      -0.177  12.185  20.941  0.00  0.00    +0.000 A 
ATOM     13  C   UNL     1       0.672  11.178  20.467  0.00  0.00    +0.000 A 
ATOM     14  C   UNL     1       0.333  10.395  19.349  0.00  0.00    +0.000 A 
ENDBRANCH   3  14
ENDBRANCH   2   7
ENDBRANCH   1   2
BRANCH   1  15
ATOM     15  C   UNL     1       1.298   4.904  20.408  0.00  0.00    +0.000 C 
BRANCH  15  16
ATOM     16  N   UNL     1       1.970   3.949  19.507  0.00  0.00    +0.000 NA
ATOM     17  C   UNL     1       1.738   4.283  18.090  0.00  0.00    +0.000 C 
ATOM     18  C   UNL     1       2.470   3.319  17.158  0.00  0.00    +0.000 C 
ATOM     19  C   UNL     1       3.983   3.325  17.398  0.00  0.00    +0.000 C 
ATOM     20  C   UNL     1       4.218   3.016  18.886  0.00  0.00    +0.000 C 
ATOM     21  C   UNL     1       3.417   3.936  19.815  0.00  0.00    +0.000 C 
BRANCH  19  22
ATOM     22  C   UNL     1       4.674   4.650  16.990  0.00  0.00    +0.000 C 
BRANCH  22  23
ATOM     23  C   UNL     1       5.489   4.598  15.717  0.00  0.00    +0.000 A 
ATOM     24  C   UNL     1       6.749   5.210  15.662  0.00  0.00    +0.000 A 
ATOM     25  C   UNL     1       7.528   5.137  14.505  0.00  0.00    +0.000 A 
ATOM     26  C   UNL     1       7.053   4.450  13.389  0.00  0.00    +0.000 A 
ATOM     27  C   UNL     1       5.802   3.839  13.430  0.00  0.00    +0.000 A 
ATOM     28  C   UNL     1       5.024   3.910  14.586  0.00  0.00    +0.000 A 
ENDBRANCH  22  23
ENDBRANCH  19  22
ENDBRANCH  15  16
ENDBRANCH   1  15
TORSDOF 7
ENDMDL
MODEL 9
REMARK VINA RESULT:      -7.6      2.211      3.576
REMARK  Name = 
REMARK  7 active torsions:
REMARK  status: ('A' for Active; 'I' for Inactive)
REMARK    1  A    between atoms: C_7  and  C_8
REMARK    2  A    between atoms: N_12  and  C_13
REMARK    3  A    between atoms: C_13  and  C_14
REMARK    4  A    between atoms: C_14  and  C_15
REMARK    5  A    between atoms: C_15  and  N_16
REMARK    6  A    between atoms: C_19  and  C_20
REMARK    7  A    between atoms: C_20  and  C_21
REMARK                            x       y       z     vdW  Elec       q    Type
REMARK                         _______ _______ _______ _____ _____    ______ ____
ROOT
ATOM      1  C   UNL     1       2.858   7.476  18.356  0.00  0.00    +0.000 C 
ENDROOT
BRANCH   1   2
ATOM      2  C   UNL     1       3.911   6.795  17.463  0.00  0.00    +0.000 C 
BRANCH   2   7
ATOM      3  C   UNL     1       4.524   4.804  19.000  0.00  0.00    +0.000 A 
ATOM      4  N   UNL     1       5.699   4.350  19.412  0.00  0.00    +0.000 NA
ATOM      5  N   UNL     1       6.663   5.156  18.887  0.00  0.00    +0.000 NA
ATOM      6  N   UNL     1       6.125   6.092  18.133  0.00  0.00    +0.000 NA
ATOM      7  N   UNL     1       4.791   5.894  18.191  0.00  0.00    +0.000 N 
BRANCH   3  14
ATOM      8 CL   UNL     1       2.980   3.196  16.773  0.00  0.00    +0.000 Cl
ATOM      9  C   UNL     1       2.450   3.505  18.396  0.00  0.00    +0.000 A 
ATOM     10  C   UNL     1       1.174   3.019  18.717  0.00  0.00    +0.000 A 
ATOM     11  C   UNL     1       0.659   3.185  19.998  0.00  0.00    +0.000 A 
ATOM     12  C   UNL     1       1.419   3.842  20.961  0.00  0.00    +0.000 A 
ATOM     13  C   UNL     1       2.686   4.345  20.638  0.00  0.00    +0.000 A 
ATOM     14  C   UNL     1       3.236   4.186  19.354  0.00  0.00    +0.000 A 
ENDBRANCH   3  14
ENDBRANCH   2   7
ENDBRANCH   1   2
BRANCH   1  15
ATOM     15  C   UNL     1       2.245   8.755  17.780  0.00  0.00    +0.000 C 
BRANCH  15  16
ATOM     16  N   UNL     1       1.671   9.690  18.765  0.00  0.00    +0.000 NA
ATOM     17  C   UNL     1       1.969  11.093  18.421  0.00  0.00    +0.000 C 
ATOM     18  C   UNL     1       1.337  12.062  19.418  0.00  0.00    +0.000 C 
ATOM     19  C   UNL     1      -0.186  11.910  19.482  0.00  0.00    +0.000 C 
ATOM     20  C   UNL     1      -0.492  10.437  19.802  0.00  0.00    +0.000 C 
ATOM     21  C   UNL     1       0.211   9.466  18.845  0.00  0.00    +0.000 C 
BRANCH  19  22
ATOM     22  C   UNL     1      -0.913  12.360  18.190  0.00  0.00    +0.000 C 
BRANCH  22  23
ATOM     23  C   UNL     1      -2.339  11.878  18.040  0.00  0.00    +0.000 A 
ATOM     24  C   UNL     1      -3.296  12.194  19.015  0.00  0.00    +0.000 A 
ATOM     25  C   UNL     1      -4.624  11.788  18.868  0.00  0.00    +0.000 A 
ATOM     26  C   UNL     1      -5.010  11.061  17.744  0.00  0.00    +0.000 A 
ATOM     27  C   UNL     1      -4.069  10.740  16.768  0.00  0.00    +0.000 A 
ATOM     28  C   UNL     1      -2.742  11.146  16.913  0.00  0.00    +0.000 A 
ENDBRANCH  22  23
ENDBRANCH  19  22
ENDBRANCH  15  16
ENDBRANCH   1  15
TORSDOF 7
ENDMDL
