MODEL 1
REMARK VINA RESULT:      -8.8      0.000      0.000
REMARK  Name = 
REMARK  6 active torsions:
REMARK  status: ('A' for Active; 'I' for Inactive)
REMARK    1  A    between atoms: C_2  and  C_3
REMARK    2  A    between atoms: C_6  and  N_7
REMARK    3  A    between atoms: C_9  and  C_10
REMARK    4  A    between atoms: C_13  and  C_14
REMARK    5  A    between atoms: C_14  and  O_16
REMARK    6  A    between atoms: C_20  and  C_21
REMARK                            x       y       z     vdW  Elec       q    Type
REMARK                         _______ _______ _______ _____ _____    ______ ____
ROOT
ATOM      1  N   UNL     1       2.712   6.819  19.348  0.00  0.00    +0.000 N 
ATOM      2  N   UNL     1       3.203   6.712  18.081  0.00  0.00    +0.000 NA
ATOM      3  C   UNL     1       3.978   5.675  18.051  0.00  0.00    +0.000 C 
ATOM      4  C   UNL     1       4.111   4.951  19.355  0.00  0.00    +0.000 C 
ATOM      5  C   UNL     1       3.085   5.691  20.216  0.00  0.00    +0.000 C 
ENDROOT
BRANCH   1   9
ATOM      6  C   UNL     1       0.154  10.060  20.225  0.00  0.00    +0.000 A 
ATOM      7  C   UNL     1       0.734   9.938  18.966  0.00  0.00    +0.000 A 
ATOM      8  C   UNL     1       1.619   8.887  18.711  0.00  0.00    +0.000 A 
ATOM      9  C   UNL     1       1.925   7.916  19.683  0.00  0.00    +0.000 A 
ATOM     10  C   UNL     1       1.391   8.109  20.964  0.00  0.00    +0.000 A 
ATOM     11  C   UNL     1       0.513   9.167  21.237  0.00  0.00    +0.000 A 
BRANCH   6  13
ATOM     12  N   UNL     1      -1.596  11.916  20.681  0.00  0.00    +0.000 NA
ATOM     13  C   UNL     1      -0.828  11.073  20.465  0.00  0.00    +0.000 C 
ENDBRANCH   6  13
ENDBRANCH   1   9
BRANCH   3  14
ATOM     14  C   UNL     1       4.692   5.234  16.831  0.00  0.00    +0.000 A 
ATOM     15  C   UNL     1       5.064   6.195  15.884  0.00  0.00    +0.000 A 
ATOM     16  C   UNL     1       5.734   5.814  14.718  0.00  0.00    +0.000 A 
ATOM     17  C   UNL     1       6.021   4.466  14.482  0.00  0.00    +0.000 A 
ATOM     18  C   UNL     1       5.663   3.502  15.435  0.00  0.00    +0.000 A 
ATOM     19  C   UNL     1       4.998   3.886  16.605  0.00  0.00    +0.000 A 
BRANCH  17  20
ATOM     20  C   UNL     1       6.757   4.121  13.234  0.00  0.00    +0.000 C 
ATOM     21  O   UNL     1       7.594   4.853  12.745  0.00  0.00    +0.000 OA
BRANCH  20  22
ATOM     22  O   UNL     1       6.398   2.937  12.697  0.00  0.00    +0.000 OA
ATOM     23  H   UNL     1       5.784   2.980  11.942  0.00  0.00    +0.000 HD
ENDBRANCH  20  22
ENDBRANCH  17  20
ENDBRANCH   3  14
BRANCH   5  24
ATOM     24  C   UNL     1       1.845   4.865  20.690  0.00  0.00    +0.000 C 
ATOM     25  C   UNL     1       0.873   4.366  19.608  0.00  0.00    +0.000 C 
ATOM     26  C   UNL     1       1.305   3.107  18.861  0.00  0.00    +0.000 C 
ATOM     27  C   UNL     1       1.903   2.008  19.742  0.00  0.00    +0.000 C 
ATOM     28  C   UNL     1       2.789   2.483  20.893  0.00  0.00    +0.000 C 
ATOM     29  C   UNL     1       2.214   3.692  21.618  0.00  0.00    +0.000 C 
ENDBRANCH   5  24
TORSDOF 6
ENDMDL
MODEL 2
REMARK VINA RESULT:      -8.7      0.443      1.361
REMARK  Name = 
REMARK  6 active torsions:
REMARK  status: ('A' for Active; 'I' for Inactive)
REMARK    1  A    between atoms: C_2  and  C_3
REMARK    2  A    between atoms: C_6  and  N_7
REMARK    3  A    between atoms: C_9  and  C_10
REMARK    4  A    between atoms: C_13  and  C_14
REMARK    5  A    between atoms: C_14  and  O_16
REMARK    6  A    between atoms: C_20  and  C_21
REMARK                            x       y       z     vdW  Elec       q    Type
REMARK                         _______ _______ _______ _____ _____    ______ ____
ROOT
ATOM      1  N   UNL     1       2.573   6.824  19.560  0.00  0.00    +0.000 N 
ATOM      2  N   UNL     1       3.059   6.793  18.288  0.00  0.00    +0.000 NA
ATOM      3  C   UNL     1       3.862   5.781  18.202  0.00  0.00    +0.000 C 
ATOM      4  C   UNL     1       4.024   5.000  19.468  0.00  0.00    +0.000 C 
ATOM      5  C   UNL     1       2.983   5.666  20.370  0.00  0.00    +0.000 C 
ENDROOT
BRANCH   1   9
ATOM      6  C   UNL     1       0.268  10.098  20.897  0.00  0.00    +0.000 A 
ATOM      7  C   UNL     1       0.502   9.010  21.733  0.00  0.00    +0.000 A 
ATOM      8  C   UNL     1       1.224   7.913  21.254  0.00  0.00    +0.000 A 
ATOM      9  C   UNL     1       1.757   7.881  19.953  0.00  0.00    +0.000 A 
ATOM     10  C   UNL     1       1.437   8.952  19.107  0.00  0.00    +0.000 A 
ATOM     11  C   UNL     1       0.702  10.052  19.571  0.00  0.00    +0.000 A 
BRANCH   6  13
ATOM     12  N   UNL     1      -0.873  12.232  21.824  0.00  0.00    +0.000 NA
ATOM     13  C   UNL     1      -0.383  11.266  21.408  0.00  0.00    +0.000 C 
ENDBRANCH   6  13
ENDBRANCH   1   9
BRANCH   3  14
ATOM     14  C   UNL     1       4.580   5.421  16.958  0.00  0.00    +0.000 A 
ATOM     15  C   UNL     1       4.863   4.073  16.709  0.00  0.00    +0.000 A 
ATOM     16  C   UNL     1       5.544   3.698  15.548  0.00  0.00    +0.000 A 
ATOM     17  C   UNL     1       5.964   4.671  14.636  0.00  0.00    +0.000 A 
ATOM     18  C   UNL     1       5.670   6.021  14.874  0.00  0.00    +0.000 A 
ATOM     19  C   UNL     1       4.982   6.394  16.034  0.00  0.00    +0.000 A 
BRANCH  17  20
ATOM     20  C   UNL     1       6.666   4.211  13.405  0.00  0.00    +0.000 C 
ATOM     21  O   UNL     1       7.512   4.881  12.846  0.00  0.00    +0.000 OA
BRANCH  20  22
ATOM     22  O   UNL     1       6.266   3.000  12.967  0.00  0.00    +0.000 OA
ATOM     23  H   UNL     1       6.976   2.384  12.711  0.00  0.00    +0.000 HD
ENDBRANCH  20  22
ENDBRANCH  17  20
ENDBRANCH   3  14
BRANCH   5  24
ATOM     24  C   UNL     1       1.771   4.783  20.810  0.00  0.00    +0.000 C 
ATOM     25  C   UNL     1       0.797   4.323  19.712  0.00  0.00    +0.000 C 
ATOM     26  C   UNL     1       1.250   3.122  18.887  0.00  0.00    +0.000 C 
ATOM     27  C   UNL     1       1.886   1.988  19.695  0.00  0.00    +0.000 C 
ATOM     28  C   UNL     1       2.775   2.418  20.861  0.00  0.00    +0.000 C 
ATOM     29  C   UNL     1       2.181   3.567  21.663  0.00  0.00    +0.000 C 
ENDBRANCH   5  24
TORSDOF 6
ENDMDL
MODEL 3
REMARK VINA RESULT:      -8.6      0.492      1.188
REMARK  Name = 
REMARK  6 active torsions:
REMARK  status: ('A' for Active; 'I' for Inactive)
REMARK    1  A    between atoms: C_2  and  C_3
REMARK    2  A    between atoms: C_6  and  N_7
REMARK    3  A    between atoms: C_9  and  C_10
REMARK    4  A    between atoms: C_13  and  C_14
REMARK    5  A    between atoms: C_14  and  O_16
REMARK    6  A    between atoms: C_20  and  C_21
REMARK                            x       y       z     vdW  Elec       q    Type
REMARK                         _______ _______ _______ _____ _____    ______ ____
ROOT
ATOM      1  N   UNL     1       2.556   6.825  19.567  0.00  0.00    +0.000 N 
ATOM      2  N   UNL     1       3.107   6.806  18.321  0.00  0.00    +0.000 NA
ATOM      3  C   UNL     1       3.920   5.800  18.269  0.00  0.00    +0.000 C 
ATOM      4  C   UNL     1       4.022   5.010  19.536  0.00  0.00    +0.000 C 
ATOM      5  C   UNL     1       2.932   5.663  20.388  0.00  0.00    +0.000 C 
ENDROOT
BRANCH   1   9
ATOM      6  C   UNL     1       0.170  10.083  20.796  0.00  0.00    +0.000 A 
ATOM      7  C   UNL     1       0.434   9.031  21.668  0.00  0.00    +0.000 A 
ATOM      8  C   UNL     1       1.182   7.937  21.226  0.00  0.00    +0.000 A 
ATOM      9  C   UNL     1       1.714   7.873  19.925  0.00  0.00    +0.000 A 
ATOM     10  C   UNL     1       1.365   8.906  19.043  0.00  0.00    +0.000 A 
ATOM     11  C   UNL     1       0.603  10.002  19.471  0.00  0.00    +0.000 A 
BRANCH   6  13
ATOM     12  N   UNL     1      -1.037  12.221  21.625  0.00  0.00    +0.000 NA
ATOM     13  C   UNL     1      -0.509  11.250  21.268  0.00  0.00    +0.000 C 
ENDBRANCH   6  13
ENDBRANCH   1   9
BRANCH   3  14
ATOM     14  C   UNL     1       4.703   5.455  17.061  0.00  0.00    +0.000 A 
ATOM     15  C   UNL     1       5.044   6.474  16.164  0.00  0.00    +0.000 A 
ATOM     16  C   UNL     1       5.777   6.183  15.011  0.00  0.00    +0.000 A 
ATOM     17  C   UNL     1       6.160   4.866  14.736  0.00  0.00    +0.000 A 
ATOM     18  C   UNL     1       5.834   3.845  15.639  0.00  0.00    +0.000 A 
ATOM     19  C   UNL     1       5.105   4.139  16.797  0.00  0.00    +0.000 A 
BRANCH  17  20
ATOM     20  C   UNL     1       6.960   4.618  13.504  0.00  0.00    +0.000 C 
ATOM     21  O   UNL     1       6.676   3.749  12.704  0.00  0.00    +0.000 OA
BRANCH  20  22
ATOM     22  O   UNL     1       8.027   5.433  13.371  0.00  0.00    +0.000 OA
ATOM     23  H   UNL     1       8.012   6.032  12.603  0.00  0.00    +0.000 HD
ENDBRANCH  20  22
ENDBRANCH  17  20
ENDBRANCH   3  14
BRANCH   5  24
ATOM     24  C   UNL     1       1.705   4.769  20.759  0.00  0.00    +0.000 C 
ATOM     25  C   UNL     1       0.797   4.304  19.608  0.00  0.00    +0.000 C 
ATOM     26  C   UNL     1       1.304   3.108  18.807  0.00  0.00    +0.000 C 
ATOM     27  C   UNL     1       1.905   1.978  19.647  0.00  0.00    +0.000 C 
ATOM     28  C   UNL     1       2.724   2.412  20.860  0.00  0.00    +0.000 C 
ATOM     29  C   UNL     1       2.077   3.554  21.630  0.00  0.00    +0.000 C 
ENDBRANCH   5  24
TORSDOF 6
ENDMDL
MODEL 4
REMARK VINA RESULT:      -8.5      0.384      1.160
REMARK  Name = 
REMARK  6 active torsions:
REMARK  status: ('A' for Active; 'I' for Inactive)
REMARK    1  A    between atoms: C_2  and  C_3
REMARK    2  A    between atoms: C_6  and  N_7
REMARK    3  A    between atoms: C_9  and  C_10
REMARK    4  A    between atoms: C_13  and  C_14
REMARK    5  A    between atoms: C_14  and  O_16
REMARK    6  A    between atoms: C_20  and  C_21
REMARK                            x       y       z     vdW  Elec       q    Type
REMARK                         _______ _______ _______ _____ _____    ______ ____
ROOT
ATOM      1  N   UNL     1       2.604   6.869  19.594  0.00  0.00    +0.000 N 
ATOM      2  N   UNL     1       3.122   6.885  18.334  0.00  0.00    +0.000 NA
ATOM      3  C   UNL     1       3.883   5.845  18.212  0.00  0.00    +0.000 C 
ATOM      4  C   UNL     1       3.977   4.989  19.437  0.00  0.00    +0.000 C 
ATOM      5  C   UNL     1       2.942   5.652  20.348  0.00  0.00    +0.000 C 
ENDROOT
BRANCH   1   9
ATOM      6  C   UNL     1       0.065  10.033  20.762  0.00  0.00    +0.000 A 
ATOM      7  C   UNL     1       0.605   9.996  19.480  0.00  0.00    +0.000 A 
ATOM      8  C   UNL     1       1.485   8.968  19.129  0.00  0.00    +0.000 A 
ATOM      9  C   UNL     1       1.824   7.938  20.025  0.00  0.00    +0.000 A 
ATOM     10  C   UNL     1       1.331   8.044  21.333  0.00  0.00    +0.000 A 
ATOM     11  C   UNL     1       0.459   9.077  21.701  0.00  0.00    +0.000 A 
BRANCH   6  13
ATOM     12  N   UNL     1      -1.696  11.819  21.412  0.00  0.00    +0.000 NA
ATOM     13  C   UNL     1      -0.912  11.022  21.098  0.00  0.00    +0.000 C 
ENDBRANCH   6  13
ENDBRANCH   1   9
BRANCH   3  14
ATOM     14  C   UNL     1       4.618   5.521  16.968  0.00  0.00    +0.000 A 
ATOM     15  C   UNL     1       4.917   4.182  16.691  0.00  0.00    +0.000 A 
ATOM     16  C   UNL     1       5.614   3.841  15.529  0.00  0.00    +0.000 A 
ATOM     17  C   UNL     1       6.034   4.840  14.644  0.00  0.00    +0.000 A 
ATOM     18  C   UNL     1       5.724   6.180  14.910  0.00  0.00    +0.000 A 
ATOM     19  C   UNL     1       5.019   6.519  16.071  0.00  0.00    +0.000 A 
BRANCH  17  20
ATOM     20  C   UNL     1       6.754   4.416  13.410  0.00  0.00    +0.000 C 
ATOM     21  O   UNL     1       6.474   3.399  12.808  0.00  0.00    +0.000 OA
BRANCH  20  22
ATOM     22  O   UNL     1       7.744   5.253  13.040  0.00  0.00    +0.000 OA
ATOM     23  H   UNL     1       7.470   6.157  12.799  0.00  0.00    +0.000 HD
ENDBRANCH  20  22
ENDBRANCH  17  20
ENDBRANCH   3  14
BRANCH   5  24
ATOM     24  C   UNL     1       1.682   4.801  20.709  0.00  0.00    +0.000 C 
ATOM     25  C   UNL     1       0.791   4.331  19.547  0.00  0.00    +0.000 C 
ATOM     26  C   UNL     1       1.285   3.102  18.790  0.00  0.00    +0.000 C 
ATOM     27  C   UNL     1       1.833   1.978  19.673  0.00  0.00    +0.000 C 
ATOM     28  C   UNL     1       2.633   2.420  20.896  0.00  0.00    +0.000 C 
ATOM     29  C   UNL     1       1.998   3.599  21.620  0.00  0.00    +0.000 C 
ENDBRANCH   5  24
TORSDOF 6
ENDMDL
MODEL 5
REMARK VINA RESULT:      -8.2      0.912      1.172
REMARK  Name = 
REMARK  6 active torsions:
REMARK  status: ('A' for Active; 'I' for Inactive)
REMARK    1  A    between atoms: C_2  and  C_3
REMARK    2  A    between atoms: C_6  and  N_7
REMARK    3  A    between atoms: C_9  and  C_10
REMARK    4  A    between atoms: C_13  and  C_14
REMARK    5  A    between atoms: C_14  and  O_16
REMARK    6  A    between atoms: C_20  and  C_21
REMARK                            x       y       z     vdW  Elec       q    Type
REMARK                         _______ _______ _______ _____ _____    ______ ____
ROOT
ATOM      1  N   UNL     1       3.234   6.504  18.817  0.00  0.00    +0.000 N 
ATOM      2  N   UNL     1       3.665   6.440  17.526  0.00  0.00    +0.000 NA
ATOM      3  C   UNL     1       4.486   5.443  17.439  0.00  0.00    +0.000 C 
ATOM      4  C   UNL     1       4.719   4.706  18.721  0.00  0.00    +0.000 C 
ATOM      5  C   UNL     1       3.703   5.382  19.645  0.00  0.00    +0.000 C 
ENDROOT
BRANCH   1   9
ATOM      6  C   UNL     1       0.572   9.605  19.875  0.00  0.00    +0.000 A 
ATOM      7  C   UNL     1       1.110   9.541  18.593  0.00  0.00    +0.000 A 
ATOM      8  C   UNL     1       2.029   8.537  18.278  0.00  0.00    +0.000 A 
ATOM      9  C   UNL     1       2.412   7.556  19.210  0.00  0.00    +0.000 A 
ATOM     10  C   UNL     1       1.919   7.691  20.515  0.00  0.00    +0.000 A 
ATOM     11  C   UNL     1       1.007   8.702  20.848  0.00  0.00    +0.000 A 
BRANCH   6  13
ATOM     12  N   UNL     1      -1.295  11.315  20.426  0.00  0.00    +0.000 NA
ATOM     13  C   UNL     1      -0.443  10.566  20.179  0.00  0.00    +0.000 C 
ENDBRANCH   6  13
ENDBRANCH   1   9
BRANCH   3  14
ATOM     14  C   UNL     1       5.158   5.056  16.177  0.00  0.00    +0.000 A 
ATOM     15  C   UNL     1       4.461   4.263  15.258  0.00  0.00    +0.000 A 
ATOM     16  C   UNL     1       5.067   3.875  14.060  0.00  0.00    +0.000 A 
ATOM     17  C   UNL     1       6.381   4.262  13.780  0.00  0.00    +0.000 A 
ATOM     18  C   UNL     1       7.077   5.069  14.691  0.00  0.00    +0.000 A 
ATOM     19  C   UNL     1       6.467   5.462  15.888  0.00  0.00    +0.000 A 
BRANCH  17  20
ATOM     20  C   UNL     1       6.968   3.839  12.478  0.00  0.00    +0.000 C 
ATOM     21  O   UNL     1       7.642   4.581  11.792  0.00  0.00    +0.000 OA
BRANCH  20  22
ATOM     22  O   UNL     1       6.669   2.570  12.130  0.00  0.00    +0.000 OA
ATOM     23  H   UNL     1       5.948   2.464  11.483  0.00  0.00    +0.000 HD
ENDBRANCH  20  22
ENDBRANCH  17  20
ENDBRANCH   3  14
BRANCH   5  24
ATOM     24  C   UNL     1       2.530   4.489  20.166  0.00  0.00    +0.000 C 
ATOM     25  C   UNL     1       1.293   4.351  19.262  0.00  0.00    +0.000 C 
ATOM     26  C   UNL     1       1.419   3.350  18.117  0.00  0.00    +0.000 C 
ATOM     27  C   UNL     1       2.092   2.027  18.488  0.00  0.00    +0.000 C 
ATOM     28  C   UNL     1       3.258   2.124  19.471  0.00  0.00    +0.000 C 
ATOM     29  C   UNL     1       2.984   3.088  20.617  0.00  0.00    +0.000 C 
ENDBRANCH   5  24
TORSDOF 6
ENDMDL
MODEL 6
REMARK VINA RESULT:      -7.8      6.220     10.926
REMARK  Name = 
REMARK  6 active torsions:
REMARK  status: ('A' for Active; 'I' for Inactive)
REMARK    1  A    between atoms: C_2  and  C_3
REMARK    2  A    between atoms: C_6  and  N_7
REMARK    3  A    between atoms: C_9  and  C_10
REMARK    4  A    between atoms: C_13  and  C_14
REMARK    5  A    between atoms: C_14  and  O_16
REMARK    6  A    between atoms: C_20  and  C_21
REMARK                            x       y       z     vdW  Elec       q    Type
REMARK                         _______ _______ _______ _____ _____    ______ ____
ROOT
ATOM      1  N   UNL     1      -0.364  10.621  19.424  0.00  0.00    +0.000 N 
ATOM      2  N   UNL     1      -0.502  11.152  20.671  0.00  0.00    +0.000 NA
ATOM      3  C   UNL     1      -1.405  12.076  20.603  0.00  0.00    +0.000 C 
ATOM      4  C   UNL     1      -1.985  12.289  19.239  0.00  0.00    +0.000 C 
ATOM      5  C   UNL     1      -1.343  11.141  18.457  0.00  0.00    +0.000 C 
ENDROOT
BRANCH   1   9
ATOM      6  C   UNL     1       2.463   7.560  18.748  0.00  0.00    +0.000 A 
ATOM      7  C   UNL     1       1.906   7.741  20.010  0.00  0.00    +0.000 A 
ATOM      8  C   UNL     1       1.011   8.792  20.227  0.00  0.00    +0.000 A 
ATOM      9  C   UNL     1       0.622   9.666  19.195  0.00  0.00    +0.000 A 
ATOM     10  C   UNL     1       1.260   9.512  17.956  0.00  0.00    +0.000 A 
ATOM     11  C   UNL     1       2.170   8.469  17.730  0.00  0.00    +0.000 A 
BRANCH   6  13
ATOM     12  N   UNL     1       4.013   5.531  18.302  0.00  0.00    +0.000 NA
ATOM     13  C   UNL     1       3.301   6.428  18.492  0.00  0.00    +0.000 C 
ENDBRANCH   6  13
ENDBRANCH   1   9
BRANCH   3  14
ATOM     14  C   UNL     1      -1.833  12.878  21.773  0.00  0.00    +0.000 A 
ATOM     15  C   UNL     1      -0.853  13.407  22.621  0.00  0.00    +0.000 A 
ATOM     16  C   UNL     1      -1.220  14.163  23.737  0.00  0.00    +0.000 A 
ATOM     17  C   UNL     1      -2.571  14.381  24.023  0.00  0.00    +0.000 A 
ATOM     18  C   UNL     1      -3.555  13.867  23.168  0.00  0.00    +0.000 A 
ATOM     19  C   UNL     1      -3.185  13.115  22.047  0.00  0.00    +0.000 A 
BRANCH  17  20
ATOM     20  C   UNL     1      -2.903  15.214  25.214  0.00  0.00    +0.000 C 
ATOM     21  O   UNL     1      -2.118  15.399  26.121  0.00  0.00    +0.000 OA
BRANCH  20  22
ATOM     22  O   UNL     1      -4.151  15.725  25.193  0.00  0.00    +0.000 OA
ATOM     23  H   UNL     1      -4.215  16.695  25.247  0.00  0.00    +0.000 HD
ENDBRANCH  20  22
ENDBRANCH  17  20
ENDBRANCH   3  14
BRANCH   5  24
ATOM     24  C   UNL     1      -2.307  10.033  17.924  0.00  0.00    +0.000 C 
ATOM     25  C   UNL     1      -3.813  10.228  18.170  0.00  0.00    +0.000 C 
ATOM     26  C   UNL     1      -4.523  11.175  17.206  0.00  0.00    +0.000 C 
ATOM     27  C   UNL     1      -4.129  11.012  15.736  0.00  0.00    +0.000 C 
ATOM     28  C   UNL     1      -2.656  10.710  15.469  0.00  0.00    +0.000 C 
ATOM     29  C   UNL     1      -2.079   9.689  16.440  0.00  0.00    +0.000 C 
ENDBRANCH   5  24
TORSDOF 6
ENDMDL
MODEL 7
REMARK VINA RESULT:      -7.8      0.970      1.531
REMARK  Name = 
REMARK  6 active torsions:
REMARK  status: ('A' for Active; 'I' for Inactive)
REMARK    1  A    between atoms: C_2  and  C_3
REMARK    2  A    between atoms: C_6  and  N_7
REMARK    3  A    between atoms: C_9  and  C_10
REMARK    4  A    between atoms: C_13  and  C_14
REMARK    5  A    between atoms: C_14  and  O_16
REMARK    6  A    between atoms: C_20  and  C_21
REMARK                            x       y       z     vdW  Elec       q    Type
REMARK                         _______ _______ _______ _____ _____    ______ ____
ROOT
ATOM      1  N   UNL     1       3.218   6.359  18.999  0.00  0.00    +0.000 N 
ATOM      2  N   UNL     1       3.634   6.359  17.702  0.00  0.00    +0.000 NA
ATOM      3  C   UNL     1       4.504   5.409  17.573  0.00  0.00    +0.000 C 
ATOM      4  C   UNL     1       4.793   4.647  18.828  0.00  0.00    +0.000 C 
ATOM      5  C   UNL     1       3.756   5.238  19.785  0.00  0.00    +0.000 C 
ENDROOT
BRANCH   1   9
ATOM      6  C   UNL     1       0.749   9.454  20.465  0.00  0.00    +0.000 A 
ATOM      7  C   UNL     1       1.086   8.375  21.276  0.00  0.00    +0.000 A 
ATOM      8  C   UNL     1       1.861   7.334  20.756  0.00  0.00    +0.000 A 
ATOM      9  C   UNL     1       2.348   7.353  19.436  0.00  0.00    +0.000 A 
ATOM     10  C   UNL     1       1.926   8.411  18.618  0.00  0.00    +0.000 A 
ATOM     11  C   UNL     1       1.137   9.453  19.124  0.00  0.00    +0.000 A 
BRANCH   6  13
ATOM     12  N   UNL     1      -0.507  11.499  21.441  0.00  0.00    +0.000 NA
ATOM     13  C   UNL     1       0.042  10.569  21.016  0.00  0.00    +0.000 C 
ENDBRANCH   6  13
ENDBRANCH   1   9
BRANCH   3  14
ATOM     14  C   UNL     1       5.178   5.099  16.291  0.00  0.00    +0.000 A 
ATOM     15  C   UNL     1       6.456   5.620  16.058  0.00  0.00    +0.000 A 
ATOM     16  C   UNL     1       7.119   5.352  14.858  0.00  0.00    +0.000 A 
ATOM     17  C   UNL     1       6.501   4.575  13.873  0.00  0.00    +0.000 A 
ATOM     18  C   UNL     1       5.228   4.039  14.108  0.00  0.00    +0.000 A 
ATOM     19  C   UNL     1       4.568   4.303  15.314  0.00  0.00    +0.000 A 
BRANCH  17  20
ATOM     20  C   UNL     1       7.264   4.303  12.623  0.00  0.00    +0.000 C 
ATOM     21  O   UNL     1       7.157   3.264  12.004  0.00  0.00    +0.000 OA
BRANCH  20  22
ATOM     22  O   UNL     1       8.088   5.306  12.255  0.00  0.00    +0.000 OA
ATOM     23  H   UNL     1       8.449   5.252  11.352  0.00  0.00    +0.000 HD
ENDBRANCH  20  22
ENDBRANCH  17  20
ENDBRANCH   3  14
BRANCH   5  24
ATOM     24  C   UNL     1       2.639   4.269  20.291  0.00  0.00    +0.000 C 
ATOM     25  C   UNL     1       1.324   4.230  19.494  0.00  0.00    +0.000 C 
ATOM     26  C   UNL     1       1.346   3.387  18.223  0.00  0.00    +0.000 C 
ATOM     27  C   UNL     1       2.054   2.037  18.357  0.00  0.00    +0.000 C 
ATOM     28  C   UNL     1       3.306   2.024  19.232  0.00  0.00    +0.000 C 
ATOM     29  C   UNL     1       3.137   2.828  20.514  0.00  0.00    +0.000 C 
ENDBRANCH   5  24
TORSDOF 6
ENDMDL
MODEL 8
REMARK VINA RESULT:      -7.6      0.968      1.539
REMARK  Name = 
REMARK  6 active torsions:
REMARK  status: ('A' for Active; 'I' for Inactive)
REMARK    1  A    between atoms: C_2  and  C_3
REMARK    2  A    between atoms: C_6  and  N_7
REMARK    3  A    between atoms: C_9  and  C_10
REMARK    4  A    between atoms: C_13  and  C_14
REMARK    5  A    between atoms: C_14  and  O_16
REMARK    6  A    between atoms: C_20  and  C_21
REMARK                            x       y       z     vdW  Elec       q    Type
REMARK                         _______ _______ _______ _____ _____    ______ ____
ROOT
ATOM      1  N   UNL     1       2.956   6.596  18.574  0.00  0.00    +0.000 N 
ATOM      2  N   UNL     1       3.563   6.591  17.354  0.00  0.00    +0.000 NA
ATOM      3  C   UNL     1       4.218   5.479  17.250  0.00  0.00    +0.000 C 
ATOM      4  C   UNL     1       4.134   4.586  18.447  0.00  0.00    +0.000 C 
ATOM      5  C   UNL     1       3.109   5.329  19.307  0.00  0.00    +0.000 C 
ENDROOT
BRANCH   1   9
ATOM      6  C   UNL     1       1.031  10.086  19.963  0.00  0.00    +0.000 A 
ATOM      7  C   UNL     1       1.185   8.984  20.798  0.00  0.00    +0.000 A 
ATOM      8  C   UNL     1       1.778   7.819  20.304  0.00  0.00    +0.000 A 
ATOM      9  C   UNL     1       2.262   7.729  18.985  0.00  0.00    +0.000 A 
ATOM     10  C   UNL     1       2.021   8.824  18.143  0.00  0.00    +0.000 A 
ATOM     11  C   UNL     1       1.414   9.993  18.624  0.00  0.00    +0.000 A 
BRANCH   6  13
ATOM     12  N   UNL     1       0.136  12.317  20.932  0.00  0.00    +0.000 NA
ATOM     13  C   UNL     1       0.517  11.315  20.487  0.00  0.00    +0.000 C 
ENDBRANCH   6  13
ENDBRANCH   1   9
BRANCH   3  14
ATOM     14  C   UNL     1       5.004   5.113  16.049  0.00  0.00    +0.000 A 
ATOM     15  C   UNL     1       4.407   4.309  15.072  0.00  0.00    +0.000 A 
ATOM     16  C   UNL     1       5.121   3.939  13.929  0.00  0.00    +0.000 A 
ATOM     17  C   UNL     1       6.445   4.357  13.764  0.00  0.00    +0.000 A 
ATOM     18  C   UNL     1       7.043   5.175  14.733  0.00  0.00    +0.000 A 
ATOM     19  C   UNL     1       6.323   5.550  15.874  0.00  0.00    +0.000 A 
BRANCH  17  20
ATOM     20  C   UNL     1       7.151   3.952  12.515  0.00  0.00    +0.000 C 
ATOM     21  O   UNL     1       7.834   4.723  11.872  0.00  0.00    +0.000 OA
BRANCH  20  22
ATOM     22  O   UNL     1       6.947   2.666  12.165  0.00  0.00    +0.000 OA
ATOM     23  H   UNL     1       7.742   2.103  12.129  0.00  0.00    +0.000 HD
ENDBRANCH  20  22
ENDBRANCH  17  20
ENDBRANCH   3  14
BRANCH   5  24
ATOM     24  C   UNL     1       1.744   4.608  19.549  0.00  0.00    +0.000 C 
ATOM     25  C   UNL     1       1.386   3.442  18.613  0.00  0.00    +0.000 C 
ATOM     26  C   UNL     1       2.042   2.104  18.941  0.00  0.00    +0.000 C 
ATOM     27  C   UNL     1       2.067   1.746  20.429  0.00  0.00    +0.000 C 
ATOM     28  C   UNL     1       2.315   2.907  21.390  0.00  0.00    +0.000 C 
ATOM     29  C   UNL     1       1.542   4.162  21.010  0.00  0.00    +0.000 C 
ENDBRANCH   5  24
TORSDOF 6
ENDMDL
MODEL 9
REMARK VINA RESULT:      -7.5      4.197      7.862
REMARK  Name = 
REMARK  6 active torsions:
REMARK  status: ('A' for Active; 'I' for Inactive)
REMARK    1  A    between atoms: C_2  and  C_3
REMARK    2  A    between atoms: C_6  and  N_7
REMARK    3  A    between atoms: C_9  and  C_10
REMARK    4  A    between atoms: C_13  and  C_14
REMARK    5  A    between atoms: C_14  and  O_16
REMARK    6  A    between atoms: C_20  and  C_21
REMARK                            x       y       z     vdW  Elec       q    Type
REMARK                         _______ _______ _______ _____ _____    ______ ____
ROOT
ATOM      1  N   UNL     1       3.672   5.678  17.477  0.00  0.00    +0.000 N 
ATOM      2  N   UNL     1       3.446   6.857  18.121  0.00  0.00    +0.000 NA
ATOM      3  C   UNL     1       2.302   6.760  18.720  0.00  0.00    +0.000 C 
ATOM      4  C   UNL     1       1.596   5.456  18.519  0.00  0.00    +0.000 C 
ATOM      5  C   UNL     1       2.657   4.652  17.764  0.00  0.00    +0.000 C 
ENDROOT
BRANCH   1   9
ATOM      6  C   UNL     1       6.964   5.399  14.850  0.00  0.00    +0.000 A 
ATOM      7  C   UNL     1       5.812   4.653  14.620  0.00  0.00    +0.000 A 
ATOM      8  C   UNL     1       4.753   4.720  15.530  0.00  0.00    +0.000 A 
ATOM      9  C   UNL     1       4.796   5.548  16.667  0.00  0.00    +0.000 A 
ATOM     10  C   UNL     1       5.998   6.224  16.916  0.00  0.00    +0.000 A 
ATOM     11  C   UNL     1       7.073   6.155  16.019  0.00  0.00    +0.000 A 
BRANCH   6  13
ATOM     12  N   UNL     1       8.873   5.466  13.098  0.00  0.00    +0.000 NA
ATOM     13  C   UNL     1       8.012   5.415  13.875  0.00  0.00    +0.000 C 
ENDBRANCH   6  13
ENDBRANCH   1   9
BRANCH   3  14
ATOM     14  C   UNL     1       1.720   7.853  19.533  0.00  0.00    +0.000 A 
ATOM     15  C   UNL     1       1.457   7.617  20.888  0.00  0.00    +0.000 A 
ATOM     16  C   UNL     1       0.902   8.623  21.683  0.00  0.00    +0.000 A 
ATOM     17  C   UNL     1       0.590   9.867  21.125  0.00  0.00    +0.000 A 
ATOM     18  C   UNL     1       0.866  10.112  19.773  0.00  0.00    +0.000 A 
ATOM     19  C   UNL     1       1.427   9.105  18.979  0.00  0.00    +0.000 A 
BRANCH  17  20
ATOM     20  C   UNL     1       0.022  10.909  22.026  0.00  0.00    +0.000 C 
ATOM     21  O   UNL     1      -0.249  12.028  21.641  0.00  0.00    +0.000 OA
BRANCH  20  22
ATOM     22  O   UNL     1      -0.147  10.498  23.300  0.00  0.00    +0.000 OA
ATOM     23  H   UNL     1      -0.123  11.196  23.979  0.00  0.00    +0.000 HD
ENDBRANCH  20  22
ENDBRANCH  17  20
ENDBRANCH   3  14
BRANCH   5  24
ATOM     24  C   UNL     1       3.251   3.410  18.504  0.00  0.00    +0.000 C 
ATOM     25  C   UNL     1       3.671   3.598  19.972  0.00  0.00    +0.000 C 
ATOM     26  C   UNL     1       2.539   3.545  20.995  0.00  0.00    +0.000 C 
ATOM     27  C   UNL     1       1.508   2.439  20.759  0.00  0.00    +0.000 C 
ATOM     28  C   UNL     1       1.152   2.160  19.300  0.00  0.00    +0.000 C 
ATOM     29  C   UNL     1       2.371   2.152  18.387  0.00  0.00    +0.000 C 
ENDBRANCH   5  24
TORSDOF 6
ENDMDL
