MODEL 1
REMARK VINA RESULT:      -8.3      0.000      0.000
REMARK  Name = 
REMARK  6 active torsions:
REMARK  status: ('A' for Active; 'I' for Inactive)
REMARK    1  A    between atoms: C_1  and  C_2
REMARK    2  A    between atoms: N_4  and  C_5
REMARK    3  A    between atoms: N_4  and  C_15
REMARK    4  A    between atoms: C_5  and  C_6
REMARK    5  A    between atoms: C_6  and  C_7
REMARK    6  A    between atoms: C_10  and  C_11
REMARK                            x       y       z     vdW  Elec       q    Type
REMARK                         _______ _______ _______ _____ _____    ______ ____
ROOT
ATOM      1  C   UNL     1       5.859   3.891  13.571  0.00  0.00    +0.000 C 
ATOM      2  C   UNL     1       6.632   4.665  14.609  0.00  0.00    +0.000 C 
ATOM      3  O   UNL     1       7.688   5.197  14.269  0.00  0.00    +0.000 OA
ATOM      4  N   UNL     1       6.081   4.767  15.895  0.00  0.00    +0.000 N 
ENDROOT
BRANCH   4   5
ATOM      5  C   UNL     1       6.816   5.510  16.874  0.00  0.00    +0.000 A 
ATOM      6  C   UNL     1       7.331   4.874  18.011  0.00  0.00    +0.000 A 
ATOM      7  C   UNL     1       7.998   5.613  18.992  0.00  0.00    +0.000 A 
ATOM      8  C   UNL     1       8.181   6.985  18.833  0.00  0.00    +0.000 A 
ATOM      9  C   UNL     1       7.680   7.625  17.701  0.00  0.00    +0.000 A 
ATOM     10  C   UNL     1       6.988   6.893  16.734  0.00  0.00    +0.000 A 
ENDBRANCH   4   5
BRANCH   4  11
ATOM     11  C   UNL     1       4.793   4.175  16.333  0.00  0.00    +0.000 C 
BRANCH  11  12
ATOM     12  C   UNL     1       3.950   5.141  17.191  0.00  0.00    +0.000 C 
BRANCH  12  13
ATOM     13  C   UNL     1       3.291   4.482  18.391  0.00  0.00    +0.000 A 
ATOM     14  C   UNL     1       1.934   4.657  18.660  0.00  0.00    +0.000 A 
ATOM     15  C   UNL     1       1.337   4.010  19.749  0.00  0.00    +0.000 A 
ATOM     16  C   UNL     1       2.095   3.184  20.589  0.00  0.00    +0.000 A 
ATOM     17  C   UNL     1       1.497   2.472  21.764  0.00  0.00    +0.000 C 
ATOM     18  N   UNL     1       3.455   3.003  20.342  0.00  0.00    +0.000 N 
ATOM     19  O   UNL     1       4.171   2.263  21.080  0.00  0.00    +0.000 OA
ATOM     20  C   UNL     1       4.028   3.654  19.254  0.00  0.00    +0.000 A 
ENDBRANCH  12  13
ENDBRANCH  11  12
ENDBRANCH   4  11
TORSDOF 4
ENDMDL
MODEL 2
REMARK VINA RESULT:      -8.0      1.179      1.749
REMARK  Name = 
REMARK  6 active torsions:
REMARK  status: ('A' for Active; 'I' for Inactive)
REMARK    1  A    between atoms: C_1  and  C_2
REMARK    2  A    between atoms: N_4  and  C_5
REMARK    3  A    between atoms: N_4  and  C_15
REMARK    4  A    between atoms: C_5  and  C_6
REMARK    5  A    between atoms: C_6  and  C_7
REMARK    6  A    between atoms: C_10  and  C_11
REMARK                            x       y       z     vdW  Elec       q    Type
REMARK                         _______ _______ _______ _____ _____    ______ ____
ROOT
ATOM      1  C   UNL     1       6.233   3.863  13.495  0.00  0.00    +0.000 C 
ATOM      2  C   UNL     1       6.874   4.706  14.569  0.00  0.00    +0.000 C 
ATOM      3  O   UNL     1       7.843   5.399  14.262  0.00  0.00    +0.000 OA
ATOM      4  N   UNL     1       6.302   4.679  15.850  0.00  0.00    +0.000 N 
ENDROOT
BRANCH   4   5
ATOM      5  C   UNL     1       6.911   5.487  16.864  0.00  0.00    +0.000 A 
ATOM      6  C   UNL     1       6.999   6.876  16.708  0.00  0.00    +0.000 A 
ATOM      7  C   UNL     1       7.645   7.656  17.673  0.00  0.00    +0.000 A 
ATOM      8  C   UNL     1       8.182   7.058  18.812  0.00  0.00    +0.000 A 
ATOM      9  C   UNL     1       8.091   5.678  18.979  0.00  0.00    +0.000 A 
ATOM     10  C   UNL     1       7.471   4.895  18.003  0.00  0.00    +0.000 A 
ENDBRANCH   4   5
BRANCH   4  11
ATOM     11  C   UNL     1       5.112   3.889  16.250  0.00  0.00    +0.000 C 
BRANCH  11  12
ATOM     12  C   UNL     1       3.976   4.762  16.821  0.00  0.00    +0.000 C 
BRANCH  12  13
ATOM     13  C   UNL     1       3.309   4.174  18.052  0.00  0.00    +0.000 A 
ATOM     14  C   UNL     1       3.437   2.822  18.370  0.00  0.00    +0.000 A 
ATOM     15  C   UNL     1       2.847   2.306  19.530  0.00  0.00    +0.000 A 
ATOM     16  C   UNL     1       2.112   3.138  20.385  0.00  0.00    +0.000 A 
ATOM     17  C   UNL     1       1.466   2.629  21.637  0.00  0.00    +0.000 C 
ATOM     18  N   UNL     1       1.965   4.491  20.081  0.00  0.00    +0.000 N 
ATOM     19  O   UNL     1       1.308   5.273  20.831  0.00  0.00    +0.000 OA
ATOM     20  C   UNL     1       2.561   4.983  18.924  0.00  0.00    +0.000 A 
ENDBRANCH  12  13
ENDBRANCH  11  12
ENDBRANCH   4  11
TORSDOF 4
ENDMDL
MODEL 3
REMARK VINA RESULT:      -8.0      0.441      1.161
REMARK  Name = 
REMARK  6 active torsions:
REMARK  status: ('A' for Active; 'I' for Inactive)
REMARK    1  A    between atoms: C_1  and  C_2
REMARK    2  A    between atoms: N_4  and  C_5
REMARK    3  A    between atoms: N_4  and  C_15
REMARK    4  A    between atoms: C_5  and  C_6
REMARK    5  A    between atoms: C_6  and  C_7
REMARK    6  A    between atoms: C_10  and  C_11
REMARK                            x       y       z     vdW  Elec       q    Type
REMARK                         _______ _______ _______ _____ _____    ______ ____
ROOT
ATOM      1  C   UNL     1       6.442   4.042  13.343  0.00  0.00    +0.000 C 
ATOM      2  C   UNL     1       7.052   4.812  14.487  0.00  0.00    +0.000 C 
ATOM      3  O   UNL     1       8.084   5.448  14.273  0.00  0.00    +0.000 OA
ATOM      4  N   UNL     1       6.387   4.789  15.722  0.00  0.00    +0.000 N 
ENDROOT
BRANCH   4   5
ATOM      5  C   UNL     1       6.968   5.528  16.802  0.00  0.00    +0.000 A 
ATOM      6  C   UNL     1       6.977   6.928  16.782  0.00  0.00    +0.000 A 
ATOM      7  C   UNL     1       7.597   7.645  17.810  0.00  0.00    +0.000 A 
ATOM      8  C   UNL     1       8.186   6.972  18.878  0.00  0.00    +0.000 A 
ATOM      9  C   UNL     1       8.175   5.579  18.911  0.00  0.00    +0.000 A 
ATOM     10  C   UNL     1       7.582   4.860  17.870  0.00  0.00    +0.000 A 
ENDBRANCH   4   5
BRANCH   4  11
ATOM     11  C   UNL     1       5.123   4.068  16.009  0.00  0.00    +0.000 C 
BRANCH  11  12
ATOM     12  C   UNL     1       4.033   4.982  16.606  0.00  0.00    +0.000 C 
BRANCH  12  13
ATOM     13  C   UNL     1       3.350   4.402  17.833  0.00  0.00    +0.000 A 
ATOM     14  C   UNL     1       1.993   4.614  18.076  0.00  0.00    +0.000 A 
ATOM     15  C   UNL     1       1.373   4.041  19.192  0.00  0.00    +0.000 A 
ATOM     16  C   UNL     1       2.107   3.251  20.087  0.00  0.00    +0.000 A 
ATOM     17  C   UNL     1       1.484   2.616  21.292  0.00  0.00    +0.000 C 
ATOM     18  N   UNL     1       3.467   3.034  19.867  0.00  0.00    +0.000 N 
ATOM     19  O   UNL     1       4.162   2.326  20.654  0.00  0.00    +0.000 OA
ATOM     20  C   UNL     1       4.063   3.613  18.751  0.00  0.00    +0.000 A 
ENDBRANCH  12  13
ENDBRANCH  11  12
ENDBRANCH   4  11
TORSDOF 4
ENDMDL
MODEL 4
REMARK VINA RESULT:      -8.0      1.111      1.221
REMARK  Name = 
REMARK  6 active torsions:
REMARK  status: ('A' for Active; 'I' for Inactive)
REMARK    1  A    between atoms: C_1  and  C_2
REMARK    2  A    between atoms: N_4  and  C_5
REMARK    3  A    between atoms: N_4  and  C_15
REMARK    4  A    between atoms: C_5  and  C_6
REMARK    5  A    between atoms: C_6  and  C_7
REMARK    6  A    between atoms: C_10  and  C_11
REMARK                            x       y       z     vdW  Elec       q    Type
REMARK                         _______ _______ _______ _____ _____    ______ ____
ROOT
ATOM      1  C   UNL     1       6.176   3.771  13.455  0.00  0.00    +0.000 C 
ATOM      2  C   UNL     1       6.819   4.644  14.503  0.00  0.00    +0.000 C 
ATOM      3  O   UNL     1       7.666   5.460  14.139  0.00  0.00    +0.000 OA
ATOM      4  N   UNL     1       6.386   4.502  15.830  0.00  0.00    +0.000 N 
ENDROOT
BRANCH   4   5
ATOM      5  C   UNL     1       6.996   5.339  16.819  0.00  0.00    +0.000 A 
ATOM      6  C   UNL     1       7.522   4.786  17.993  0.00  0.00    +0.000 A 
ATOM      7  C   UNL     1       8.064   5.612  18.982  0.00  0.00    +0.000 A 
ATOM      8  C   UNL     1       8.110   6.992  18.795  0.00  0.00    +0.000 A 
ATOM      9  C   UNL     1       7.597   7.551  17.627  0.00  0.00    +0.000 A 
ATOM     10  C   UNL     1       7.029   6.729  16.650  0.00  0.00    +0.000 A 
ENDBRANCH   4   5
BRANCH   4  11
ATOM     11  C   UNL     1       5.342   3.560  16.302  0.00  0.00    +0.000 C 
BRANCH  11  12
ATOM     12  C   UNL     1       3.980   4.244  16.541  0.00  0.00    +0.000 C 
BRANCH  12  13
ATOM     13  C   UNL     1       3.283   3.797  17.814  0.00  0.00    +0.000 A 
ATOM     14  C   UNL     1       2.784   2.503  17.952  0.00  0.00    +0.000 A 
ATOM     15  C   UNL     1       2.179   2.098  19.147  0.00  0.00    +0.000 A 
ATOM     16  C   UNL     1       2.057   2.989  20.222  0.00  0.00    +0.000 A 
ATOM     17  C   UNL     1       1.419   2.598  21.519  0.00  0.00    +0.000 C 
ATOM     18  N   UNL     1       2.542   4.291  20.102  0.00  0.00    +0.000 N 
ATOM     19  O   UNL     1       2.451   5.124  21.052  0.00  0.00    +0.000 OA
ATOM     20  C   UNL     1       3.142   4.672  18.905  0.00  0.00    +0.000 A 
ENDBRANCH  12  13
ENDBRANCH  11  12
ENDBRANCH   4  11
TORSDOF 4
ENDMDL
MODEL 5
REMARK VINA RESULT:      -7.9      1.058      1.130
REMARK  Name = 
REMARK  6 active torsions:
REMARK  status: ('A' for Active; 'I' for Inactive)
REMARK    1  A    between atoms: C_1  and  C_2
REMARK    2  A    between atoms: N_4  and  C_5
REMARK    3  A    between atoms: N_4  and  C_15
REMARK    4  A    between atoms: C_5  and  C_6
REMARK    5  A    between atoms: C_6  and  C_7
REMARK    6  A    between atoms: C_10  and  C_11
REMARK                            x       y       z     vdW  Elec       q    Type
REMARK                         _______ _______ _______ _____ _____    ______ ____
ROOT
ATOM      1  C   UNL     1       5.812   4.031  13.541  0.00  0.00    +0.000 C 
ATOM      2  C   UNL     1       6.610   4.753  14.597  0.00  0.00    +0.000 C 
ATOM      3  O   UNL     1       7.708   5.213  14.282  0.00  0.00    +0.000 OA
ATOM      4  N   UNL     1       6.037   4.893  15.870  0.00  0.00    +0.000 N 
ENDROOT
BRANCH   4   5
ATOM      5  C   UNL     1       6.797   5.586  16.866  0.00  0.00    +0.000 A 
ATOM      6  C   UNL     1       7.399   4.884  17.918  0.00  0.00    +0.000 A 
ATOM      7  C   UNL     1       8.091   5.570  18.921  0.00  0.00    +0.000 A 
ATOM      8  C   UNL     1       8.212   6.957  18.866  0.00  0.00    +0.000 A 
ATOM      9  C   UNL     1       7.624   7.663  17.818  0.00  0.00    +0.000 A 
ATOM     10  C   UNL     1       6.907   6.982  16.832  0.00  0.00    +0.000 A 
ENDBRANCH   4   5
BRANCH   4  11
ATOM     11  C   UNL     1       4.703   4.389  16.277  0.00  0.00    +0.000 C 
BRANCH  11  12
ATOM     12  C   UNL     1       3.945   5.370  17.194  0.00  0.00    +0.000 C 
BRANCH  12  13
ATOM     13  C   UNL     1       3.279   4.706  18.387  0.00  0.00    +0.000 A 
ATOM     14  C   UNL     1       3.301   5.295  19.651  0.00  0.00    +0.000 A 
ATOM     15  C   UNL     1       2.648   4.687  20.730  0.00  0.00    +0.000 A 
ATOM     16  C   UNL     1       1.971   3.472  20.559  0.00  0.00    +0.000 A 
ATOM     17  C   UNL     1       1.258   2.788  21.685  0.00  0.00    +0.000 C 
ATOM     18  N   UNL     1       1.945   2.862  19.306  0.00  0.00    +0.000 N 
ATOM     19  O   UNL     1       1.341   1.765  19.114  0.00  0.00    +0.000 OA
ATOM     20  C   UNL     1       2.598   3.485  18.247  0.00  0.00    +0.000 A 
ENDBRANCH  12  13
ENDBRANCH  11  12
ENDBRANCH   4  11
TORSDOF 4
ENDMDL
MODEL 6
REMARK VINA RESULT:      -7.3      1.263      1.618
REMARK  Name = 
REMARK  6 active torsions:
REMARK  status: ('A' for Active; 'I' for Inactive)
REMARK    1  A    between atoms: C_1  and  C_2
REMARK    2  A    between atoms: N_4  and  C_5
REMARK    3  A    between atoms: N_4  and  C_15
REMARK    4  A    between atoms: C_5  and  C_6
REMARK    5  A    between atoms: C_6  and  C_7
REMARK    6  A    between atoms: C_10  and  C_11
REMARK                            x       y       z     vdW  Elec       q    Type
REMARK                         _______ _______ _______ _____ _____    ______ ____
ROOT
ATOM      1  C   UNL     1       5.884   4.100  13.692  0.00  0.00    +0.000 C 
ATOM      2  C   UNL     1       6.689   4.846  14.726  0.00  0.00    +0.000 C 
ATOM      3  O   UNL     1       7.825   5.211  14.424  0.00  0.00    +0.000 OA
ATOM      4  N   UNL     1       6.081   5.115  15.961  0.00  0.00    +0.000 N 
ENDROOT
BRANCH   4   5
ATOM      5  C   UNL     1       6.849   5.831  16.935  0.00  0.00    +0.000 A 
ATOM      6  C   UNL     1       7.394   5.165  18.040  0.00  0.00    +0.000 A 
ATOM      7  C   UNL     1       8.094   5.877  19.019  0.00  0.00    +0.000 A 
ATOM      8  C   UNL     1       8.278   7.252  18.889  0.00  0.00    +0.000 A 
ATOM      9  C   UNL     1       7.746   7.922  17.789  0.00  0.00    +0.000 A 
ATOM     10  C   UNL     1       7.022   7.217  16.824  0.00  0.00    +0.000 A 
ENDBRANCH   4   5
BRANCH   4  11
ATOM     11  C   UNL     1       4.703   4.728  16.348  0.00  0.00    +0.000 C 
BRANCH  11  12
ATOM     12  C   UNL     1       4.606   3.272  16.848  0.00  0.00    +0.000 C 
BRANCH  12  13
ATOM     13  C   UNL     1       3.851   3.121  18.158  0.00  0.00    +0.000 A 
ATOM     14  C   UNL     1       4.447   2.536  19.274  0.00  0.00    +0.000 A 
ATOM     15  C   UNL     1       3.750   2.440  20.484  0.00  0.00    +0.000 A 
ATOM     16  C   UNL     1       2.439   2.923  20.590  0.00  0.00    +0.000 A 
ATOM     17  C   UNL     1       1.656   2.843  21.864  0.00  0.00    +0.000 C 
ATOM     18  N   UNL     1       1.821   3.504  19.483  0.00  0.00    +0.000 N 
ATOM     19  O   UNL     1       0.638   3.952  19.541  0.00  0.00    +0.000 OA
ATOM     20  C   UNL     1       2.534   3.590  18.290  0.00  0.00    +0.000 A 
ENDBRANCH  12  13
ENDBRANCH  11  12
ENDBRANCH   4  11
TORSDOF 4
ENDMDL
MODEL 7
REMARK VINA RESULT:      -7.3      1.462      3.267
REMARK  Name = 
REMARK  6 active torsions:
REMARK  status: ('A' for Active; 'I' for Inactive)
REMARK    1  A    between atoms: C_1  and  C_2
REMARK    2  A    between atoms: N_4  and  C_5
REMARK    3  A    between atoms: N_4  and  C_15
REMARK    4  A    between atoms: C_5  and  C_6
REMARK    5  A    between atoms: C_6  and  C_7
REMARK    6  A    between atoms: C_10  and  C_11
REMARK                            x       y       z     vdW  Elec       q    Type
REMARK                         _______ _______ _______ _____ _____    ______ ____
ROOT
ATOM      1  C   UNL     1       7.587   5.656  19.252  0.00  0.00    +0.000 C 
ATOM      2  C   UNL     1       7.517   5.074  17.863  0.00  0.00    +0.000 C 
ATOM      3  O   UNL     1       8.250   4.123  17.594  0.00  0.00    +0.000 OA
ATOM      4  N   UNL     1       6.591   5.628  16.967  0.00  0.00    +0.000 N 
ENDROOT
BRANCH   4   5
ATOM      5  C   UNL     1       6.524   5.066  15.651  0.00  0.00    +0.000 A 
ATOM      6  C   UNL     1       5.586   4.072  15.349  0.00  0.00    +0.000 A 
ATOM      7  C   UNL     1       5.562   3.485  14.080  0.00  0.00    +0.000 A 
ATOM      8  C   UNL     1       6.454   3.905  13.097  0.00  0.00    +0.000 A 
ATOM      9  C   UNL     1       7.386   4.900  13.385  0.00  0.00    +0.000 A 
ATOM     10  C   UNL     1       7.431   5.468  14.661  0.00  0.00    +0.000 A 
ENDBRANCH   4   5
BRANCH   4  11
ATOM     11  C   UNL     1       5.664   6.747  17.264  0.00  0.00    +0.000 C 
BRANCH  11  12
ATOM     12  C   UNL     1       4.180   6.350  17.124  0.00  0.00    +0.000 C 
BRANCH  12  13
ATOM     13  C   UNL     1       3.625   5.613  18.330  0.00  0.00    +0.000 A 
ATOM     14  C   UNL     1       2.744   6.233  19.217  0.00  0.00    +0.000 A 
ATOM     15  C   UNL     1       2.213   5.525  20.301  0.00  0.00    +0.000 A 
ATOM     16  C   UNL     1       2.564   4.187  20.519  0.00  0.00    +0.000 A 
ATOM     17  C   UNL     1       2.019   3.391  21.665  0.00  0.00    +0.000 C 
ATOM     18  N   UNL     1       3.450   3.551  19.650  0.00  0.00    +0.000 N 
ATOM     19  O   UNL     1       3.790   2.342  19.814  0.00  0.00    +0.000 OA
ATOM     20  C   UNL     1       3.965   4.273  18.577  0.00  0.00    +0.000 A 
ENDBRANCH  12  13
ENDBRANCH  11  12
ENDBRANCH   4  11
TORSDOF 4
ENDMDL
MODEL 8
REMARK VINA RESULT:      -7.2      3.511      5.254
REMARK  Name = 
REMARK  6 active torsions:
REMARK  status: ('A' for Active; 'I' for Inactive)
REMARK    1  A    between atoms: C_1  and  C_2
REMARK    2  A    between atoms: N_4  and  C_5
REMARK    3  A    between atoms: N_4  and  C_15
REMARK    4  A    between atoms: C_5  and  C_6
REMARK    5  A    between atoms: C_6  and  C_7
REMARK    6  A    between atoms: C_10  and  C_11
REMARK                            x       y       z     vdW  Elec       q    Type
REMARK                         _______ _______ _______ _____ _____    ______ ____
ROOT
ATOM      1  C   UNL     1       2.737   2.738  20.982  0.00  0.00    +0.000 C 
ATOM      2  C   UNL     1       3.867   2.915  19.999  0.00  0.00    +0.000 C 
ATOM      3  O   UNL     1       4.763   2.071  19.988  0.00  0.00    +0.000 OA
ATOM      4  N   UNL     1       3.813   4.012  19.128  0.00  0.00    +0.000 N 
ENDROOT
BRANCH   4   5
ATOM      5  C   UNL     1       4.885   4.170  18.192  0.00  0.00    +0.000 A 
ATOM      6  C   UNL     1       6.088   4.771  18.584  0.00  0.00    +0.000 A 
ATOM      7  C   UNL     1       7.111   4.976  17.653  0.00  0.00    +0.000 A 
ATOM      8  C   UNL     1       6.953   4.557  16.334  0.00  0.00    +0.000 A 
ATOM      9  C   UNL     1       5.763   3.951  15.937  0.00  0.00    +0.000 A 
ATOM     10  C   UNL     1       4.728   3.772  16.858  0.00  0.00    +0.000 A 
ENDBRANCH   4   5
BRANCH   4  11
ATOM     11  C   UNL     1       2.732   5.028  19.084  0.00  0.00    +0.000 C 
BRANCH  11  12
ATOM     12  C   UNL     1       3.108   6.269  18.248  0.00  0.00    +0.000 C 
BRANCH  12  13
ATOM     13  C   UNL     1       2.382   7.535  18.669  0.00  0.00    +0.000 A 
ATOM     14  C   UNL     1       2.126   8.561  17.759  0.00  0.00    +0.000 A 
ATOM     15  C   UNL     1       1.423   9.703  18.156  0.00  0.00    +0.000 A 
ATOM     16  C   UNL     1       0.972   9.840  19.475  0.00  0.00    +0.000 A 
ATOM     17  C   UNL     1       0.214  11.044  19.943  0.00  0.00    +0.000 C 
ATOM     18  N   UNL     1       1.225   8.830  20.403  0.00  0.00    +0.000 N 
ATOM     19  O   UNL     1       0.832   8.918  21.604  0.00  0.00    +0.000 OA
ATOM     20  C   UNL     1       1.925   7.701  19.987  0.00  0.00    +0.000 A 
ENDBRANCH  12  13
ENDBRANCH  11  12
ENDBRANCH   4  11
TORSDOF 4
ENDMDL
MODEL 9
REMARK VINA RESULT:      -7.2      1.887      3.726
REMARK  Name = 
REMARK  6 active torsions:
REMARK  status: ('A' for Active; 'I' for Inactive)
REMARK    1  A    between atoms: C_1  and  C_2
REMARK    2  A    between atoms: N_4  and  C_5
REMARK    3  A    between atoms: N_4  and  C_15
REMARK    4  A    between atoms: C_5  and  C_6
REMARK    5  A    between atoms: C_6  and  C_7
REMARK    6  A    between atoms: C_10  and  C_11
REMARK                            x       y       z     vdW  Elec       q    Type
REMARK                         _______ _______ _______ _____ _____    ______ ____
ROOT
ATOM      1  C   UNL     1       7.556   5.673  18.991  0.00  0.00    +0.000 C 
ATOM      2  C   UNL     1       7.539   5.071  17.609  0.00  0.00    +0.000 C 
ATOM      3  O   UNL     1       8.237   4.079  17.400  0.00  0.00    +0.000 OA
ATOM      4  N   UNL     1       6.698   5.655  16.650  0.00  0.00    +0.000 N 
ENDROOT
BRANCH   4   5
ATOM      5  C   UNL     1       6.681   5.073  15.341  0.00  0.00    +0.000 A 
ATOM      6  C   UNL     1       7.577   5.511  14.357  0.00  0.00    +0.000 A 
ATOM      7  C   UNL     1       7.519   4.981  13.064  0.00  0.00    +0.000 A 
ATOM      8  C   UNL     1       6.587   3.993  12.752  0.00  0.00    +0.000 A 
ATOM      9  C   UNL     1       5.698   3.546  13.727  0.00  0.00    +0.000 A 
ATOM     10  C   UNL     1       5.735   4.094  15.012  0.00  0.00    +0.000 A 
ENDBRANCH   4   5
BRANCH   4  11
ATOM     11  C   UNL     1       5.814   6.825  16.873  0.00  0.00    +0.000 C 
BRANCH  11  12
ATOM     12  C   UNL     1       4.318   6.487  16.705  0.00  0.00    +0.000 C 
BRANCH  12  13
ATOM     13  C   UNL     1       3.711   5.776  17.902  0.00  0.00    +0.000 A 
ATOM     14  C   UNL     1       3.943   4.421  18.136  0.00  0.00    +0.000 A 
ATOM     15  C   UNL     1       3.406   3.792  19.265  0.00  0.00    +0.000 A 
ATOM     16  C   UNL     1       2.619   4.512  20.174  0.00  0.00    +0.000 A 
ATOM     17  C   UNL     1       2.027   3.881  21.397  0.00  0.00    +0.000 C 
ATOM     18  N   UNL     1       2.368   5.866  19.955  0.00  0.00    +0.000 N 
ATOM     19  O   UNL     1       1.663   6.549  20.756  0.00  0.00    +0.000 OA
ATOM     20  C   UNL     1       2.913   6.472  18.827  0.00  0.00    +0.000 A 
ENDBRANCH  12  13
ENDBRANCH  11  12
ENDBRANCH   4  11
TORSDOF 4
ENDMDL
