MODEL 1
REMARK VINA RESULT:      -8.0      0.000      0.000
REMARK  Name = 
REMARK  6 active torsions:
REMARK  status: ('A' for Active; 'I' for Inactive)
REMARK    1  A    between atoms: C_2  and  C_4
REMARK    2  A    between atoms: C_7  and  C_8
REMARK    3  A    between atoms: C_10  and  C_11
REMARK    4  A    between atoms: C_11  and  C_12
REMARK    5  A    between atoms: C_20  and  C_21
REMARK    6  A    between atoms: C_24  and  C_25
REMARK                            x       y       z     vdW  Elec       q    Type
REMARK                         _______ _______ _______ _____ _____    ______ ____
ROOT
ATOM      1  C   UNL     1       1.734   8.984  19.043  0.00  0.00    +0.000 A 
ATOM      2  C   UNL     1       1.947  10.098  18.258  0.00  0.00    +0.000 A 
ATOM      3  C   UNL     1       1.152  11.155  18.788  0.00  0.00    +0.000 A 
ATOM      4  C   UNL     1       0.488  10.611  19.882  0.00  0.00    +0.000 A 
ATOM      5  O   UNL     1       0.857   9.301  20.041  0.00  0.00    +0.000 OA
ENDROOT
BRANCH   1   9
ATOM      6  C   UNL     1       3.396   5.038  19.002  0.00  0.00    +0.000 A 
ATOM      7  C   UNL     1       3.623   5.908  17.935  0.00  0.00    +0.000 A 
ATOM      8  C   UNL     1       3.048   7.184  17.943  0.00  0.00    +0.000 A 
ATOM      9  C   UNL     1       2.257   7.617  19.020  0.00  0.00    +0.000 A 
ATOM     10  C   UNL     1       2.019   6.720  20.072  0.00  0.00    +0.000 A 
ATOM     11  C   UNL     1       2.584   5.438  20.064  0.00  0.00    +0.000 A 
BRANCH   6  13
ATOM     12  N   UNL     1       5.340   3.623  19.056  0.00  0.00    +0.000 NA
ATOM     13  C   UNL     1       4.051   3.699  19.016  0.00  0.00    +0.000 C 
ATOM     14  N   UNL     1       3.291   2.566  18.975  0.00  0.00    +0.000 N 
ATOM     15  H   UNL     1       5.626   2.644  19.111  0.00  0.00    +0.000 HD
ATOM     16  H   UNL     1       3.771   1.730  18.664  0.00  0.00    +0.000 HD
ATOM     17  H   UNL     1       2.388   2.666  18.522  0.00  0.00    +0.000 HD
ENDBRANCH   6  13
ENDBRANCH   1   9
BRANCH   4  18
ATOM     18  C   UNL     1      -0.486  11.117  20.852  0.00  0.00    +0.000 A 
ATOM     19  C   UNL     1      -0.461  10.697  22.193  0.00  0.00    +0.000 A 
ATOM     20  C   UNL     1      -1.387  11.180  23.127  0.00  0.00    +0.000 A 
ATOM     21  C   UNL     1      -2.350  12.110  22.738  0.00  0.00    +0.000 A 
ATOM     22  C   UNL     1      -2.398  12.531  21.403  0.00  0.00    +0.000 A 
ATOM     23  C   UNL     1      -1.472  12.038  20.475  0.00  0.00    +0.000 A 
BRANCH  21  24
ATOM     24  C   UNL     1      -3.313  12.653  23.740  0.00  0.00    +0.000 C 
ATOM     25  N   UNL     1      -4.228  11.931  24.303  0.00  0.00    +0.000 NA
ATOM     26  N   UNL     1      -3.275  13.964  24.113  0.00  0.00    +0.000 N 
ATOM     27  H   UNL     1      -4.233  10.976  23.932  0.00  0.00    +0.000 HD
ATOM     28  H   UNL     1      -2.356  14.379  24.198  0.00  0.00    +0.000 HD
ATOM     29  H   UNL     1      -3.850  14.112  24.936  0.00  0.00    +0.000 HD
ENDBRANCH  21  24
ENDBRANCH   4  18
BRANCH   3  30
ATOM     30  C   UNL     1       1.040  12.561  18.293  0.00  0.00    +0.000 C 
BRANCH  30  31
ATOM     31  C   UNL     1       1.717  13.611  19.154  0.00  0.00    +0.000 C 
ATOM     32  O   UNL     1       2.794  13.351  19.699  0.00  0.00    +0.000 OA
ATOM     33  N   UNL     1       1.121  14.859  19.262  0.00  0.00    +0.000 N 
ATOM     34  C   UNL     1       1.873  15.958  19.865  0.00  0.00    +0.000 C 
ATOM     35  C   UNL     1       1.112  16.575  21.032  0.00  0.00    +0.000 C 
ATOM     36  C   UNL     1      -0.304  16.968  20.614  0.00  0.00    +0.000 C 
ATOM     37  C   UNL     1      -1.036  15.781  19.996  0.00  0.00    +0.000 C 
ATOM     38  C   UNL     1      -0.241  15.183  18.837  0.00  0.00    +0.000 C 
ENDBRANCH  30  31
ENDBRANCH   3  30
TORSDOF 6
ENDMDL
MODEL 2
REMARK VINA RESULT:      -8.0      0.828      1.137
REMARK  Name = 
REMARK  6 active torsions:
REMARK  status: ('A' for Active; 'I' for Inactive)
REMARK    1  A    between atoms: C_2  and  C_4
REMARK    2  A    between atoms: C_7  and  C_8
REMARK    3  A    between atoms: C_10  and  C_11
REMARK    4  A    between atoms: C_11  and  C_12
REMARK    5  A    between atoms: C_20  and  C_21
REMARK    6  A    between atoms: C_24  and  C_25
REMARK                            x       y       z     vdW  Elec       q    Type
REMARK                         _______ _______ _______ _____ _____    ______ ____
ROOT
ATOM      1  C   UNL     1       1.714   8.984  19.033  0.00  0.00    +0.000 A 
ATOM      2  C   UNL     1       1.936  10.093  18.245  0.00  0.00    +0.000 A 
ATOM      3  C   UNL     1       1.144  11.157  18.767  0.00  0.00    +0.000 A 
ATOM      4  C   UNL     1       0.473  10.619  19.860  0.00  0.00    +0.000 A 
ATOM      5  O   UNL     1       0.834   9.309  20.026  0.00  0.00    +0.000 OA
ENDROOT
BRANCH   1   9
ATOM      6  C   UNL     1       3.357   5.029  19.011  0.00  0.00    +0.000 A 
ATOM      7  C   UNL     1       3.584   5.892  17.939  0.00  0.00    +0.000 A 
ATOM      8  C   UNL     1       3.015   7.170  17.940  0.00  0.00    +0.000 A 
ATOM      9  C   UNL     1       2.231   7.614  19.017  0.00  0.00    +0.000 A 
ATOM     10  C   UNL     1       1.992   6.724  20.075  0.00  0.00    +0.000 A 
ATOM     11  C   UNL     1       2.550   5.440  20.074  0.00  0.00    +0.000 A 
BRANCH   6  13
ATOM     12  N   UNL     1       5.293   3.605  19.113  0.00  0.00    +0.000 NA
ATOM     13  C   UNL     1       4.006   3.687  19.032  0.00  0.00    +0.000 C 
ATOM     14  N   UNL     1       3.243   2.559  18.955  0.00  0.00    +0.000 N 
ATOM     15  H   UNL     1       5.573   2.624  19.167  0.00  0.00    +0.000 HD
ATOM     16  H   UNL     1       3.728   1.723  18.651  0.00  0.00    +0.000 HD
ATOM     17  H   UNL     1       2.355   2.667  18.475  0.00  0.00    +0.000 HD
ENDBRANCH   6  13
ENDBRANCH   1   9
BRANCH   4  18
ATOM     18  C   UNL     1      -0.503  11.134  20.824  0.00  0.00    +0.000 A 
ATOM     19  C   UNL     1      -0.384  10.857  22.196  0.00  0.00    +0.000 A 
ATOM     20  C   UNL     1      -1.311  11.348  23.125  0.00  0.00    +0.000 A 
ATOM     21  C   UNL     1      -2.372  12.146  22.696  0.00  0.00    +0.000 A 
ATOM     22  C   UNL     1      -2.513  12.423  21.331  0.00  0.00    +0.000 A 
ATOM     23  C   UNL     1      -1.584  11.921  20.410  0.00  0.00    +0.000 A 
BRANCH  21  24
ATOM     24  C   UNL     1      -3.338  12.701  23.688  0.00  0.00    +0.000 C 
ATOM     25  N   UNL     1      -3.348  13.944  24.045  0.00  0.00    +0.000 NA
ATOM     26  N   UNL     1      -4.274  11.904  24.278  0.00  0.00    +0.000 N 
ATOM     27  H   UNL     1      -2.582  14.467  23.606  0.00  0.00    +0.000 HD
ATOM     28  H   UNL     1      -4.690  11.191  23.692  0.00  0.00    +0.000 HD
ATOM     29  H   UNL     1      -4.967  12.471  24.757  0.00  0.00    +0.000 HD
ENDBRANCH  21  24
ENDBRANCH   4  18
BRANCH   3  30
ATOM     30  C   UNL     1       1.041  12.561  18.267  0.00  0.00    +0.000 C 
BRANCH  30  31
ATOM     31  C   UNL     1       2.160  13.490  18.698  0.00  0.00    +0.000 C 
ATOM     32  O   UNL     1       3.286  13.357  18.209  0.00  0.00    +0.000 OA
ATOM     33  N   UNL     1       1.866  14.500  19.602  0.00  0.00    +0.000 N 
ATOM     34  C   UNL     1       2.850  15.557  19.835  0.00  0.00    +0.000 C 
ATOM     35  C   UNL     1       3.200  15.672  21.313  0.00  0.00    +0.000 C 
ATOM     36  C   UNL     1       1.941  15.820  22.164  0.00  0.00    +0.000 C 
ATOM     37  C   UNL     1       0.957  14.688  21.878  0.00  0.00    +0.000 C 
ATOM     38  C   UNL     1       0.636  14.597  20.388  0.00  0.00    +0.000 C 
ENDBRANCH  30  31
ENDBRANCH   3  30
TORSDOF 6
ENDMDL
MODEL 3
REMARK VINA RESULT:      -8.0      0.278      1.063
REMARK  Name = 
REMARK  6 active torsions:
REMARK  status: ('A' for Active; 'I' for Inactive)
REMARK    1  A    between atoms: C_2  and  C_4
REMARK    2  A    between atoms: C_7  and  C_8
REMARK    3  A    between atoms: C_10  and  C_11
REMARK    4  A    between atoms: C_11  and  C_12
REMARK    5  A    between atoms: C_20  and  C_21
REMARK    6  A    between atoms: C_24  and  C_25
REMARK                            x       y       z     vdW  Elec       q    Type
REMARK                         _______ _______ _______ _____ _____    ______ ____
ROOT
ATOM      1  C   UNL     1       1.674   8.960  19.033  0.00  0.00    +0.000 A 
ATOM      2  C   UNL     1       1.807  10.039  18.185  0.00  0.00    +0.000 A 
ATOM      3  C   UNL     1       1.007  11.097  18.708  0.00  0.00    +0.000 A 
ATOM      4  C   UNL     1       0.424  10.586  19.862  0.00  0.00    +0.000 A 
ATOM      5  O   UNL     1       0.844   9.298  20.063  0.00  0.00    +0.000 OA
ENDROOT
BRANCH   1   9
ATOM      6  C   UNL     1       3.462   5.068  19.095  0.00  0.00    +0.000 A 
ATOM      7  C   UNL     1       3.674   5.923  18.013  0.00  0.00    +0.000 A 
ATOM      8  C   UNL     1       3.059   7.179  17.987  0.00  0.00    +0.000 A 
ATOM      9  C   UNL     1       2.241   7.610  19.045  0.00  0.00    +0.000 A 
ATOM     10  C   UNL     1       2.018   6.727  20.112  0.00  0.00    +0.000 A 
ATOM     11  C   UNL     1       2.623   5.464  20.139  0.00  0.00    +0.000 A 
BRANCH   6  13
ATOM     12  N   UNL     1       3.463   2.671  19.289  0.00  0.00    +0.000 NA
ATOM     13  C   UNL     1       4.158   3.751  19.146  0.00  0.00    +0.000 C 
ATOM     14  N   UNL     1       5.518   3.693  19.054  0.00  0.00    +0.000 N 
ATOM     15  H   UNL     1       4.080   1.858  19.254  0.00  0.00    +0.000 HD
ATOM     16  H   UNL     1       5.944   2.847  19.412  0.00  0.00    +0.000 HD
ATOM     17  H   UNL     1       6.010   4.522  19.375  0.00  0.00    +0.000 HD
ENDBRANCH   6  13
ENDBRANCH   1   9
BRANCH   4  18
ATOM     18  C   UNL     1      -0.512  11.110  20.861  0.00  0.00    +0.000 A 
ATOM     19  C   UNL     1      -1.473  12.076  20.520  0.00  0.00    +0.000 A 
ATOM     20  C   UNL     1      -2.374  12.578  21.469  0.00  0.00    +0.000 A 
ATOM     21  C   UNL     1      -2.340  12.107  22.781  0.00  0.00    +0.000 A 
ATOM     22  C   UNL     1      -1.380  11.152  23.142  0.00  0.00    +0.000 A 
ATOM     23  C   UNL     1      -0.480  10.661  22.188  0.00  0.00    +0.000 A 
BRANCH  21  24
ATOM     24  C   UNL     1      -3.321  12.613  23.783  0.00  0.00    +0.000 C 
ATOM     25  N   UNL     1      -4.231  11.866  24.321  0.00  0.00    +0.000 NA
ATOM     26  N   UNL     1      -3.307  13.916  24.184  0.00  0.00    +0.000 N 
ATOM     27  H   UNL     1      -4.217  10.918  23.930  0.00  0.00    +0.000 HD
ATOM     28  H   UNL     1      -2.396  14.344  24.288  0.00  0.00    +0.000 HD
ATOM     29  H   UNL     1      -3.893  14.038  25.004  0.00  0.00    +0.000 HD
ENDBRANCH  21  24
ENDBRANCH   4  18
BRANCH   3  30
ATOM     30  C   UNL     1       0.821  12.471  18.153  0.00  0.00    +0.000 C 
BRANCH  30  31
ATOM     31  C   UNL     1       1.713  13.543  18.754  0.00  0.00    +0.000 C 
ATOM     32  O   UNL     1       2.892  13.281  19.009  0.00  0.00    +0.000 OA
ATOM     33  N   UNL     1       1.181  14.807  18.954  0.00  0.00    +0.000 N 
ATOM     34  C   UNL     1       2.078  15.914  19.284  0.00  0.00    +0.000 C 
ATOM     35  C   UNL     1       1.658  16.600  20.578  0.00  0.00    +0.000 C 
ATOM     36  C   UNL     1       0.187  17.008  20.529  0.00  0.00    +0.000 C 
ATOM     37  C   UNL     1      -0.696  15.812  20.183  0.00  0.00    +0.000 C 
ATOM     38  C   UNL     1      -0.242  15.145  18.887  0.00  0.00    +0.000 C 
ENDBRANCH  30  31
ENDBRANCH   3  30
TORSDOF 6
ENDMDL
MODEL 4
REMARK VINA RESULT:      -7.9      2.844      3.384
REMARK  Name = 
REMARK  6 active torsions:
REMARK  status: ('A' for Active; 'I' for Inactive)
REMARK    1  A    between atoms: C_2  and  C_4
REMARK    2  A    between atoms: C_7  and  C_8
REMARK    3  A    between atoms: C_10  and  C_11
REMARK    4  A    between atoms: C_11  and  C_12
REMARK    5  A    between atoms: C_20  and  C_21
REMARK    6  A    between atoms: C_24  and  C_25
REMARK                            x       y       z     vdW  Elec       q    Type
REMARK                         _______ _______ _______ _____ _____    ______ ____
ROOT
ATOM      1  C   UNL     1       1.946   9.068  18.302  0.00  0.00    +0.000 A 
ATOM      2  C   UNL     1       2.401  10.358  18.477  0.00  0.00    +0.000 A 
ATOM      3  C   UNL     1       1.264  11.218  18.468  0.00  0.00    +0.000 A 
ATOM      4  C   UNL     1       0.168  10.385  18.282  0.00  0.00    +0.000 A 
ATOM      5  O   UNL     1       0.584   9.083  18.198  0.00  0.00    +0.000 OA
ENDROOT
BRANCH   1   9
ATOM      6  C   UNL     1       4.000   5.312  18.164  0.00  0.00    +0.000 A 
ATOM      7  C   UNL     1       4.376   6.352  17.313  0.00  0.00    +0.000 A 
ATOM      8  C   UNL     1       3.677   7.563  17.343  0.00  0.00    +0.000 A 
ATOM      9  C   UNL     1       2.609   7.764  18.232  0.00  0.00    +0.000 A 
ATOM     10  C   UNL     1       2.228   6.699  19.063  0.00  0.00    +0.000 A 
ATOM     11  C   UNL     1       2.917   5.480  19.030  0.00  0.00    +0.000 A 
BRANCH   6  13
ATOM     12  N   UNL     1       6.030   4.063  18.484  0.00  0.00    +0.000 NA
ATOM     13  C   UNL     1       4.777   4.040  18.168  0.00  0.00    +0.000 C 
ATOM     14  N   UNL     1       4.169   2.867  17.829  0.00  0.00    +0.000 N 
ATOM     15  H   UNL     1       6.401   3.111  18.487  0.00  0.00    +0.000 HD
ATOM     16  H   UNL     1       4.790   2.122  17.537  0.00  0.00    +0.000 HD
ATOM     17  H   UNL     1       3.375   2.955  17.202  0.00  0.00    +0.000 HD
ENDBRANCH   6  13
ENDBRANCH   1   9
BRANCH   4  18
ATOM     18  C   UNL     1      -1.276  10.597  18.153  0.00  0.00    +0.000 A 
ATOM     19  C   UNL     1      -2.039   9.862  17.229  0.00  0.00    +0.000 A 
ATOM     20  C   UNL     1      -3.421  10.056  17.103  0.00  0.00    +0.000 A 
ATOM     21  C   UNL     1      -4.072  10.983  17.916  0.00  0.00    +0.000 A 
ATOM     22  C   UNL     1      -3.326  11.734  18.833  0.00  0.00    +0.000 A 
ATOM     23  C   UNL     1      -1.945  11.537  18.948  0.00  0.00    +0.000 A 
BRANCH  21  24
ATOM     24  C   UNL     1      -5.549  11.165  17.808  0.00  0.00    +0.000 C 
ATOM     25  N   UNL     1      -6.100  11.995  16.982  0.00  0.00    +0.000 NA
ATOM     26  N   UNL     1      -6.404  10.452  18.595  0.00  0.00    +0.000 N 
ATOM     27  H   UNL     1      -5.396  12.534  16.467  0.00  0.00    +0.000 HD
ATOM     28  H   UNL     1      -6.146   9.491  18.781  0.00  0.00    +0.000 HD
ATOM     29  H   UNL     1      -7.355  10.544  18.254  0.00  0.00    +0.000 HD
ENDBRANCH  21  24
ENDBRANCH   4  18
BRANCH   3  30
ATOM     30  C   UNL     1       1.233  12.704  18.627  0.00  0.00    +0.000 C 
BRANCH  30  31
ATOM     31  C   UNL     1       2.063  13.255  19.772  0.00  0.00    +0.000 C 
ATOM     32  O   UNL     1       1.861  12.850  20.921  0.00  0.00    +0.000 OA
ATOM     33  N   UNL     1       3.063  14.170  19.480  0.00  0.00    +0.000 N 
ATOM     34  C   UNL     1       4.035  14.517  20.516  0.00  0.00    +0.000 C 
ATOM     35  C   UNL     1       4.077  16.021  20.754  0.00  0.00    +0.000 C 
ATOM     36  C   UNL     1       4.293  16.777  19.444  0.00  0.00    +0.000 C 
ATOM     37  C   UNL     1       3.247  16.374  18.408  0.00  0.00    +0.000 C 
ATOM     38  C   UNL     1       3.227  14.862  18.202  0.00  0.00    +0.000 C 
ENDBRANCH  30  31
ENDBRANCH   3  30
TORSDOF 6
ENDMDL
MODEL 5
REMARK VINA RESULT:      -7.9      1.319      1.933
REMARK  Name = 
REMARK  6 active torsions:
REMARK  status: ('A' for Active; 'I' for Inactive)
REMARK    1  A    between atoms: C_2  and  C_4
REMARK    2  A    between atoms: C_7  and  C_8
REMARK    3  A    between atoms: C_10  and  C_11
REMARK    4  A    between atoms: C_11  and  C_12
REMARK    5  A    between atoms: C_20  and  C_21
REMARK    6  A    between atoms: C_24  and  C_25
REMARK                            x       y       z     vdW  Elec       q    Type
REMARK                         _______ _______ _______ _____ _____    ______ ____
ROOT
ATOM      1  C   UNL     1       1.217   9.833  19.170  0.00  0.00    +0.000 A 
ATOM      2  C   UNL     1       1.313  11.000  18.443  0.00  0.00    +0.000 A 
ATOM      3  C   UNL     1       0.432  11.951  19.037  0.00  0.00    +0.000 A 
ATOM      4  C   UNL     1      -0.160  11.291  20.108  0.00  0.00    +0.000 A 
ATOM      5  O   UNL     1       0.331  10.015  20.194  0.00  0.00    +0.000 OA
ENDROOT
BRANCH   1   9
ATOM      6  C   UNL     1       3.237   6.067  18.896  0.00  0.00    +0.000 A 
ATOM      7  C   UNL     1       3.334   6.995  17.859  0.00  0.00    +0.000 A 
ATOM      8  C   UNL     1       2.643   8.208  17.943  0.00  0.00    +0.000 A 
ATOM      9  C   UNL     1       1.864   8.524  19.069  0.00  0.00    +0.000 A 
ATOM     10  C   UNL     1       1.758   7.568  20.090  0.00  0.00    +0.000 A 
ATOM     11  C   UNL     1       2.438   6.347  20.007  0.00  0.00    +0.000 A 
BRANCH   6  13
ATOM     12  N   UNL     1       5.263   4.797  19.160  0.00  0.00    +0.000 NA
ATOM     13  C   UNL     1       4.014   4.796  18.828  0.00  0.00    +0.000 C 
ATOM     14  N   UNL     1       3.410   3.648  18.407  0.00  0.00    +0.000 N 
ATOM     15  H   UNL     1       5.634   3.847  19.107  0.00  0.00    +0.000 HD
ATOM     16  H   UNL     1       4.034   2.922  18.076  0.00  0.00    +0.000 HD
ATOM     17  H   UNL     1       2.623   3.777  17.777  0.00  0.00    +0.000 HD
ENDBRANCH   6  13
ENDBRANCH   1   9
BRANCH   4  18
ATOM     18  C   UNL     1      -1.160  11.653  21.115  0.00  0.00    +0.000 A 
ATOM     19  C   UNL     1      -0.993  11.301  22.465  0.00  0.00    +0.000 A 
ATOM     20  C   UNL     1      -1.944  11.647  23.434  0.00  0.00    +0.000 A 
ATOM     21  C   UNL     1      -3.078  12.373  23.071  0.00  0.00    +0.000 A 
ATOM     22  C   UNL     1      -3.267  12.722  21.728  0.00  0.00    +0.000 A 
ATOM     23  C   UNL     1      -2.314  12.366  20.765  0.00  0.00    +0.000 A 
BRANCH  21  24
ATOM     24  C   UNL     1      -4.073  12.774  24.108  0.00  0.00    +0.000 C 
ATOM     25  N   UNL     1      -4.160  13.978  24.574  0.00  0.00    +0.000 NA
ATOM     26  N   UNL     1      -4.952  11.870  24.625  0.00  0.00    +0.000 N 
ATOM     27  H   UNL     1      -3.432  14.585  24.183  0.00  0.00    +0.000 HD
ATOM     28  H   UNL     1      -5.324  11.186  23.978  0.00  0.00    +0.000 HD
ATOM     29  H   UNL     1      -5.677  12.347  25.152  0.00  0.00    +0.000 HD
ENDBRANCH  21  24
ENDBRANCH   4  18
BRANCH   3  30
ATOM     30  C   UNL     1       0.183  13.363  18.618  0.00  0.00    +0.000 C 
BRANCH  30  31
ATOM     31  C   UNL     1       0.808  14.426  19.503  0.00  0.00    +0.000 C 
ATOM     32  O   UNL     1       0.146  14.923  20.419  0.00  0.00    +0.000 OA
ATOM     33  N   UNL     1       2.132  14.773  19.280  0.00  0.00    +0.000 N 
ATOM     34  C   UNL     1       2.829  15.595  20.269  0.00  0.00    +0.000 C 
ATOM     35  C   UNL     1       3.412  16.850  19.633  0.00  0.00    +0.000 C 
ATOM     36  C   UNL     1       4.274  16.501  18.422  0.00  0.00    +0.000 C 
ATOM     37  C   UNL     1       3.491  15.647  17.428  0.00  0.00    +0.000 C 
ATOM     38  C   UNL     1       2.915  14.404  18.101  0.00  0.00    +0.000 C 
ENDBRANCH  30  31
ENDBRANCH   3  30
TORSDOF 6
ENDMDL
MODEL 6
REMARK VINA RESULT:      -7.9      1.294      2.077
REMARK  Name = 
REMARK  6 active torsions:
REMARK  status: ('A' for Active; 'I' for Inactive)
REMARK    1  A    between atoms: C_2  and  C_4
REMARK    2  A    between atoms: C_7  and  C_8
REMARK    3  A    between atoms: C_10  and  C_11
REMARK    4  A    between atoms: C_11  and  C_12
REMARK    5  A    between atoms: C_20  and  C_21
REMARK    6  A    between atoms: C_24  and  C_25
REMARK                            x       y       z     vdW  Elec       q    Type
REMARK                         _______ _______ _______ _____ _____    ______ ____
ROOT
ATOM      1  C   UNL     1       1.250   9.766  19.141  0.00  0.00    +0.000 A 
ATOM      2  C   UNL     1       1.337  10.927  18.403  0.00  0.00    +0.000 A 
ATOM      3  C   UNL     1       0.479  11.888  19.013  0.00  0.00    +0.000 A 
ATOM      4  C   UNL     1      -0.090  11.241  20.104  0.00  0.00    +0.000 A 
ATOM      5  O   UNL     1       0.393   9.962  20.186  0.00  0.00    +0.000 OA
ENDROOT
BRANCH   1   9
ATOM      6  C   UNL     1       3.234   5.982  18.844  0.00  0.00    +0.000 A 
ATOM      7  C   UNL     1       3.318   6.905  17.801  0.00  0.00    +0.000 A 
ATOM      8  C   UNL     1       2.639   8.124  17.894  0.00  0.00    +0.000 A 
ATOM      9  C   UNL     1       1.885   8.451  19.033  0.00  0.00    +0.000 A 
ATOM     10  C   UNL     1       1.791   7.500  20.061  0.00  0.00    +0.000 A 
ATOM     11  C   UNL     1       2.459   6.273  19.969  0.00  0.00    +0.000 A 
BRANCH   6  13
ATOM     12  N   UNL     1       3.419   3.644  18.310  0.00  0.00    +0.000 NA
ATOM     13  C   UNL     1       3.999   4.705  18.767  0.00  0.00    +0.000 C 
ATOM     14  N   UNL     1       5.296   4.659  19.186  0.00  0.00    +0.000 N 
ATOM     15  H   UNL     1       4.088   2.873  18.275  0.00  0.00    +0.000 HD
ATOM     16  H   UNL     1       5.649   3.737  19.414  0.00  0.00    +0.000 HD
ATOM     17  H   UNL     1       5.546   5.338  19.899  0.00  0.00    +0.000 HD
ENDBRANCH   6  13
ENDBRANCH   1   9
BRANCH   4  18
ATOM     18  C   UNL     1      -1.061  11.618  21.133  0.00  0.00    +0.000 A 
ATOM     19  C   UNL     1      -2.229  12.327  20.805  0.00  0.00    +0.000 A 
ATOM     20  C   UNL     1      -3.165  12.688  21.784  0.00  0.00    +0.000 A 
ATOM     21  C   UNL     1      -2.956  12.328  23.115  0.00  0.00    +0.000 A 
ATOM     22  C   UNL     1      -1.792  11.632  23.462  0.00  0.00    +0.000 A 
ATOM     23  C   UNL     1      -0.860  11.281  22.478  0.00  0.00    +0.000 A 
BRANCH  21  24
ATOM     24  C   UNL     1      -3.969  12.680  24.152  0.00  0.00    +0.000 C 
ATOM     25  N   UNL     1      -4.878  11.854  24.560  0.00  0.00    +0.000 NA
ATOM     26  N   UNL     1      -3.986  13.916  24.728  0.00  0.00    +0.000 N 
ATOM     27  H   UNL     1      -4.839  10.969  24.044  0.00  0.00    +0.000 HD
ATOM     28  H   UNL     1      -3.084  14.337  24.912  0.00  0.00    +0.000 HD
ATOM     29  H   UNL     1      -4.592  13.916  25.542  0.00  0.00    +0.000 HD
ENDBRANCH  21  24
ENDBRANCH   4  18
BRANCH   3  30
ATOM     30  C   UNL     1       0.229  13.299  18.590  0.00  0.00    +0.000 C 
BRANCH  30  31
ATOM     31  C   UNL     1       0.836  14.365  19.484  0.00  0.00    +0.000 C 
ATOM     32  O   UNL     1       0.168  14.837  20.409  0.00  0.00    +0.000 OA
ATOM     33  N   UNL     1       2.151  14.744  19.259  0.00  0.00    +0.000 N 
ATOM     34  C   UNL     1       2.835  15.568  20.255  0.00  0.00    +0.000 C 
ATOM     35  C   UNL     1       3.387  16.844  19.631  0.00  0.00    +0.000 C 
ATOM     36  C   UNL     1       4.250  16.527  18.411  0.00  0.00    +0.000 C 
ATOM     37  C   UNL     1       3.481  15.669  17.411  0.00  0.00    +0.000 C 
ATOM     38  C   UNL     1       2.936  14.405  18.072  0.00  0.00    +0.000 C 
ENDBRANCH  30  31
ENDBRANCH   3  30
TORSDOF 6
ENDMDL
MODEL 7
REMARK VINA RESULT:      -7.9      0.870      1.439
REMARK  Name = 
REMARK  6 active torsions:
REMARK  status: ('A' for Active; 'I' for Inactive)
REMARK    1  A    between atoms: C_2  and  C_4
REMARK    2  A    between atoms: C_7  and  C_8
REMARK    3  A    between atoms: C_10  and  C_11
REMARK    4  A    between atoms: C_11  and  C_12
REMARK    5  A    between atoms: C_20  and  C_21
REMARK    6  A    between atoms: C_24  and  C_25
REMARK                            x       y       z     vdW  Elec       q    Type
REMARK                         _______ _______ _______ _____ _____    ______ ____
ROOT
ATOM      1  C   UNL     1       1.782   8.941  19.012  0.00  0.00    +0.000 A 
ATOM      2  C   UNL     1       1.984  10.051  18.219  0.00  0.00    +0.000 A 
ATOM      3  C   UNL     1       1.183  11.107  18.746  0.00  0.00    +0.000 A 
ATOM      4  C   UNL     1       0.529  10.564  19.846  0.00  0.00    +0.000 A 
ATOM      5  O   UNL     1       0.908   9.258  20.012  0.00  0.00    +0.000 OA
ENDROOT
BRANCH   1   9
ATOM      6  C   UNL     1       3.207   4.903  18.944  0.00  0.00    +0.000 A 
ATOM      7  C   UNL     1       2.520   5.389  20.057  0.00  0.00    +0.000 A 
ATOM      8  C   UNL     1       2.088   6.719  20.083  0.00  0.00    +0.000 A 
ATOM      9  C   UNL     1       2.315   7.578  18.995  0.00  0.00    +0.000 A 
ATOM     10  C   UNL     1       3.030   7.080  17.896  0.00  0.00    +0.000 A 
ATOM     11  C   UNL     1       3.475   5.752  17.868  0.00  0.00    +0.000 A 
BRANCH   6  13
ATOM     12  N   UNL     1       2.793   2.585  18.454  0.00  0.00    +0.000 NA
ATOM     13  C   UNL     1       3.622   3.472  18.896  0.00  0.00    +0.000 C 
ATOM     14  N   UNL     1       4.864   3.106  19.326  0.00  0.00    +0.000 N 
ATOM     15  H   UNL     1       3.244   1.669  18.439  0.00  0.00    +0.000 HD
ATOM     16  H   UNL     1       4.970   2.130  19.574  0.00  0.00    +0.000 HD
ATOM     17  H   UNL     1       5.276   3.714  20.028  0.00  0.00    +0.000 HD
ENDBRANCH   6  13
ENDBRANCH   1   9
BRANCH   4  18
ATOM     18  C   UNL     1      -0.444  11.069  20.818  0.00  0.00    +0.000 A 
ATOM     19  C   UNL     1      -0.331  10.765  22.185  0.00  0.00    +0.000 A 
ATOM     20  C   UNL     1      -1.256  11.248  23.121  0.00  0.00    +0.000 A 
ATOM     21  C   UNL     1      -2.308  12.063  22.705  0.00  0.00    +0.000 A 
ATOM     22  C   UNL     1      -2.443  12.367  21.344  0.00  0.00    +0.000 A 
ATOM     23  C   UNL     1      -1.518  11.874  20.416  0.00  0.00    +0.000 A 
BRANCH  21  24
ATOM     24  C   UNL     1      -3.272  12.608  23.704  0.00  0.00    +0.000 C 
ATOM     25  N   UNL     1      -4.185  11.887  24.271  0.00  0.00    +0.000 NA
ATOM     26  N   UNL     1      -3.236  13.921  24.072  0.00  0.00    +0.000 N 
ATOM     27  H   UNL     1      -4.188  10.930  23.904  0.00  0.00    +0.000 HD
ATOM     28  H   UNL     1      -2.318  14.338  24.155  0.00  0.00    +0.000 HD
ATOM     29  H   UNL     1      -3.811  14.071  24.895  0.00  0.00    +0.000 HD
ENDBRANCH  21  24
ENDBRANCH   4  18
BRANCH   3  30
ATOM     30  C   UNL     1       1.059  12.508  18.243  0.00  0.00    +0.000 C 
BRANCH  30  31
ATOM     31  C   UNL     1       2.172  13.452  18.661  0.00  0.00    +0.000 C 
ATOM     32  O   UNL     1       3.293  13.332  18.159  0.00  0.00    +0.000 OA
ATOM     33  N   UNL     1       1.876  14.458  19.568  0.00  0.00    +0.000 N 
ATOM     34  C   UNL     1       2.848  15.527  19.789  0.00  0.00    +0.000 C 
ATOM     35  C   UNL     1       3.215  15.647  21.263  0.00  0.00    +0.000 C 
ATOM     36  C   UNL     1       1.963  15.779  22.128  0.00  0.00    +0.000 C 
ATOM     37  C   UNL     1       0.991  14.635  21.855  0.00  0.00    +0.000 C 
ATOM     38  C   UNL     1       0.654  14.540  20.369  0.00  0.00    +0.000 C 
ENDBRANCH  30  31
ENDBRANCH   3  30
TORSDOF 6
ENDMDL
MODEL 8
REMARK VINA RESULT:      -7.9      2.799      3.528
REMARK  Name = 
REMARK  6 active torsions:
REMARK  status: ('A' for Active; 'I' for Inactive)
REMARK    1  A    between atoms: C_2  and  C_4
REMARK    2  A    between atoms: C_7  and  C_8
REMARK    3  A    between atoms: C_10  and  C_11
REMARK    4  A    between atoms: C_11  and  C_12
REMARK    5  A    between atoms: C_20  and  C_21
REMARK    6  A    between atoms: C_24  and  C_25
REMARK                            x       y       z     vdW  Elec       q    Type
REMARK                         _______ _______ _______ _____ _____    ______ ____
ROOT
ATOM      1  C   UNL     1       1.805   9.254  18.458  0.00  0.00    +0.000 A 
ATOM      2  C   UNL     1       2.231  10.563  18.533  0.00  0.00    +0.000 A 
ATOM      3  C   UNL     1       1.075  11.395  18.476  0.00  0.00    +0.000 A 
ATOM      4  C   UNL     1      -0.004  10.526  18.365  0.00  0.00    +0.000 A 
ATOM      5  O   UNL     1       0.442   9.231  18.371  0.00  0.00    +0.000 OA
ENDROOT
BRANCH   1   9
ATOM      6  C   UNL     1       3.704   5.415  18.479  0.00  0.00    +0.000 A 
ATOM      7  C   UNL     1       2.862   5.790  19.527  0.00  0.00    +0.000 A 
ATOM      8  C   UNL     1       2.273   7.059  19.527  0.00  0.00    +0.000 A 
ATOM      9  C   UNL     1       2.497   7.964  18.476  0.00  0.00    +0.000 A 
ATOM     10  C   UNL     1       3.366   7.579  17.444  0.00  0.00    +0.000 A 
ATOM     11  C   UNL     1       3.967   6.315  17.444  0.00  0.00    +0.000 A 
BRANCH   6  13
ATOM     12  N   UNL     1       3.644   3.089  17.872  0.00  0.00    +0.000 NA
ATOM     13  C   UNL     1       4.290   4.045  18.454  0.00  0.00    +0.000 C 
ATOM     14  N   UNL     1       5.493   3.805  19.052  0.00  0.00    +0.000 N 
ATOM     15  H   UNL     1       4.200   2.232  17.899  0.00  0.00    +0.000 HD
ATOM     16  H   UNL     1       5.679   2.838  19.286  0.00  0.00    +0.000 HD
ATOM     17  H   UNL     1       5.725   4.425  19.822  0.00  0.00    +0.000 HD
ENDBRANCH   6  13
ENDBRANCH   1   9
BRANCH   4  18
ATOM     18  C   UNL     1      -1.454  10.695  18.239  0.00  0.00    +0.000 A 
ATOM     19  C   UNL     1      -2.144  11.645  19.012  0.00  0.00    +0.000 A 
ATOM     20  C   UNL     1      -3.530  11.815  18.894  0.00  0.00    +0.000 A 
ATOM     21  C   UNL     1      -4.253  11.046  17.983  0.00  0.00    +0.000 A 
ATOM     22  C   UNL     1      -3.583  10.087  17.213  0.00  0.00    +0.000 A 
ATOM     23  C   UNL     1      -2.199   9.919  17.342  0.00  0.00    +0.000 A 
BRANCH  21  24
ATOM     24  C   UNL     1      -5.722  11.252  17.830  0.00  0.00    +0.000 C 
ATOM     25  N   UNL     1      -6.234  12.091  16.988  0.00  0.00    +0.000 NA
ATOM     26  N   UNL     1      -6.612  10.553  18.590  0.00  0.00    +0.000 N 
ATOM     27  H   UNL     1      -5.506  12.620  16.496  0.00  0.00    +0.000 HD
ATOM     28  H   UNL     1      -6.377   9.588  18.782  0.00  0.00    +0.000 HD
ATOM     29  H   UNL     1      -7.551  10.661  18.220  0.00  0.00    +0.000 HD
ENDBRANCH  21  24
ENDBRANCH   4  18
BRANCH   3  30
ATOM     30  C   UNL     1       1.011  12.887  18.525  0.00  0.00    +0.000 C 
BRANCH  30  31
ATOM     31  C   UNL     1       1.829  13.538  19.626  0.00  0.00    +0.000 C 
ATOM     32  O   UNL     1       1.495  13.385  20.805  0.00  0.00    +0.000 OA
ATOM     33  N   UNL     1       2.963  14.253  19.269  0.00  0.00    +0.000 N 
ATOM     34  C   UNL     1       3.901  14.667  20.311  0.00  0.00    +0.000 C 
ATOM     35  C   UNL     1       4.133  16.172  20.281  0.00  0.00    +0.000 C 
ATOM     36  C   UNL     1       4.539  16.635  18.883  0.00  0.00    +0.000 C 
ATOM     37  C   UNL     1       3.521  16.176  17.843  0.00  0.00    +0.000 C 
ATOM     38  C   UNL     1       3.307  14.665  17.908  0.00  0.00    +0.000 C 
ENDBRANCH  30  31
ENDBRANCH   3  30
TORSDOF 6
ENDMDL
MODEL 9
REMARK VINA RESULT:      -7.8      2.823      3.455
REMARK  Name = 
REMARK  6 active torsions:
REMARK  status: ('A' for Active; 'I' for Inactive)
REMARK    1  A    between atoms: C_2  and  C_4
REMARK    2  A    between atoms: C_7  and  C_8
REMARK    3  A    between atoms: C_10  and  C_11
REMARK    4  A    between atoms: C_11  and  C_12
REMARK    5  A    between atoms: C_20  and  C_21
REMARK    6  A    between atoms: C_24  and  C_25
REMARK                            x       y       z     vdW  Elec       q    Type
REMARK                         _______ _______ _______ _____ _____    ______ ____
ROOT
ATOM      1  C   UNL     1       1.939   9.162  18.374  0.00  0.00    +0.000 A 
ATOM      2  C   UNL     1       2.385  10.464  18.453  0.00  0.00    +0.000 A 
ATOM      3  C   UNL     1       1.241  11.313  18.406  0.00  0.00    +0.000 A 
ATOM      4  C   UNL     1       0.149  10.461  18.295  0.00  0.00    +0.000 A 
ATOM      5  O   UNL     1       0.575   9.160  18.293  0.00  0.00    +0.000 OA
ENDROOT
BRANCH   1   9
ATOM      6  C   UNL     1       3.784   5.297  18.356  0.00  0.00    +0.000 A 
ATOM      7  C   UNL     1       2.883   5.642  19.364  0.00  0.00    +0.000 A 
ATOM      8  C   UNL     1       2.311   6.919  19.379  0.00  0.00    +0.000 A 
ATOM      9  C   UNL     1       2.612   7.862  18.382  0.00  0.00    +0.000 A 
ATOM     10  C   UNL     1       3.539   7.506  17.391  0.00  0.00    +0.000 A 
ATOM     11  C   UNL     1       4.123   6.233  17.377  0.00  0.00    +0.000 A 
BRANCH   6  13
ATOM     12  N   UNL     1       5.469   3.675  18.916  0.00  0.00    +0.000 NA
ATOM     13  C   UNL     1       4.353   3.920  18.311  0.00  0.00    +0.000 C 
ATOM     14  N   UNL     1       3.704   2.934  17.628  0.00  0.00    +0.000 N 
ATOM     15  H   UNL     1       5.694   2.682  18.833  0.00  0.00    +0.000 HD
ATOM     16  H   UNL     1       4.274   2.140  17.361  0.00  0.00    +0.000 HD
ATOM     17  H   UNL     1       3.124   3.251  16.856  0.00  0.00    +0.000 HD
ENDBRANCH   6  13
ENDBRANCH   1   9
BRANCH   4  18
ATOM     18  C   UNL     1      -1.299  10.652  18.177  0.00  0.00    +0.000 A 
ATOM     19  C   UNL     1      -2.062   9.887  17.279  0.00  0.00    +0.000 A 
ATOM     20  C   UNL     1      -3.447  10.061  17.163  0.00  0.00    +0.000 A 
ATOM     21  C   UNL     1      -4.102  10.999  17.961  0.00  0.00    +0.000 A 
ATOM     22  C   UNL     1      -3.355  11.780  18.853  0.00  0.00    +0.000 A 
ATOM     23  C   UNL     1      -1.970  11.602  18.958  0.00  0.00    +0.000 A 
BRANCH  21  24
ATOM     24  C   UNL     1      -5.582  11.161  17.866  0.00  0.00    +0.000 C 
ATOM     25  N   UNL     1      -6.413  10.499  18.603  0.00  0.00    +0.000 NA
ATOM     26  N   UNL     1      -6.137  12.030  16.974  0.00  0.00    +0.000 N 
ATOM     27  H   UNL     1      -5.927   9.826  19.205  0.00  0.00    +0.000 HD
ATOM     28  H   UNL     1      -5.645  12.902  16.832  0.00  0.00    +0.000 HD
ATOM     29  H   UNL     1      -7.122  12.164  17.182  0.00  0.00    +0.000 HD
ENDBRANCH  21  24
ENDBRANCH   4  18
BRANCH   3  30
ATOM     30  C   UNL     1       1.199  12.806  18.463  0.00  0.00    +0.000 C 
BRANCH  30  31
ATOM     31  C   UNL     1       1.999  13.438  19.588  0.00  0.00    +0.000 C 
ATOM     32  O   UNL     1       1.707  13.183  20.760  0.00  0.00    +0.000 OA
ATOM     33  N   UNL     1       3.072  14.252  19.257  0.00  0.00    +0.000 N 
ATOM     34  C   UNL     1       4.006  14.659  20.305  0.00  0.00    +0.000 C 
ATOM     35  C   UNL     1       4.135  16.176  20.373  0.00  0.00    +0.000 C 
ATOM     36  C   UNL     1       4.472  16.758  19.001  0.00  0.00    +0.000 C 
ATOM     37  C   UNL     1       3.461  16.299  17.954  0.00  0.00    +0.000 C 
ATOM     38  C   UNL     1       3.352  14.777  17.921  0.00  0.00    +0.000 C 
ENDBRANCH  30  31
ENDBRANCH   3  30
TORSDOF 6
ENDMDL
