MODEL 1
REMARK VINA RESULT:      -5.2      0.000      0.000
REMARK  Name = 
REMARK  6 active torsions:
REMARK  status: ('A' for Active; 'I' for Inactive)
REMARK    1  A    between atoms: C_2  and  O_3
REMARK    2  A    between atoms: C_2  and  C_4
REMARK    3  A    between atoms: N_8  and  S_9
REMARK    4  A    between atoms: S_9  and  C_12
REMARK    5  A    between atoms: C_12  and  C_13
REMARK    6  A    between atoms: C_13  and  S_14
REMARK                            x       y       z     vdW  Elec       q    Type
REMARK                         _______ _______ _______ _____ _____    ______ ____
ROOT
ATOM      1  C   UNL     1       3.774   3.950  19.184  0.00  0.00    +0.000 C 
ATOM      2  C   UNL     1       2.601   4.041  18.205  0.00  0.00    +0.000 C 
ATOM      3  C   UNL     1       2.340   5.526  18.108  0.00  0.00    +0.000 C 
ATOM      4  C   UNL     1       3.692   6.188  18.335  0.00  0.00    +0.000 C 
ATOM      5  N   UNL     1       4.645   5.117  18.788  0.00  0.00    +0.000 NA
ENDROOT
BRANCH   5   6
ATOM      6  S   UNL     1       5.928   4.802  17.726  0.00  0.00    +0.000 S 
ATOM      7  O   UNL     1       6.997   4.288  18.555  0.00  0.00    +0.000 OA
ATOM      8  O   UNL     1       5.400   4.054  16.612  0.00  0.00    +0.000 OA
BRANCH   6   9
ATOM      9  C   UNL     1       6.429   6.431  17.169  0.00  0.00    +0.000 C 
BRANCH   9  10
ATOM     10  C   UNL     1       7.631   6.882  17.980  0.00  0.00    +0.000 C 
BRANCH  10  11
ATOM     11  S   UNL     1       7.913   8.665  17.759  0.00  0.00    +0.000 S 
ATOM     12  H   UNL     1       8.566   8.875  18.911  0.00  0.00    +0.000 HD
ENDBRANCH  10  11
ENDBRANCH   9  10
ENDBRANCH   6   9
ENDBRANCH   5   6
BRANCH   1  14
ATOM     13  O   UNL     1       4.857   2.109  20.308  0.00  0.00    +0.000 OA
ATOM     14  C   UNL     1       4.226   2.510  19.336  0.00  0.00    +0.000 C 
BRANCH  14  15
ATOM     15  O   UNL     1       4.057   1.719  18.258  0.00  0.00    +0.000 OA
ATOM     16  H   UNL     1       4.162   0.760  18.456  0.00  0.00    +0.000 HD
ENDBRANCH  14  15
ENDBRANCH   1  14
TORSDOF 6
ENDMDL
MODEL 2
REMARK VINA RESULT:      -5.2      2.922      3.261
REMARK  Name = 
REMARK  6 active torsions:
REMARK  status: ('A' for Active; 'I' for Inactive)
REMARK    1  A    between atoms: C_2  and  O_3
REMARK    2  A    between atoms: C_2  and  C_4
REMARK    3  A    between atoms: N_8  and  S_9
REMARK    4  A    between atoms: S_9  and  C_12
REMARK    5  A    between atoms: C_12  and  C_13
REMARK    6  A    between atoms: C_13  and  S_14
REMARK                            x       y       z     vdW  Elec       q    Type
REMARK                         _______ _______ _______ _____ _____    ______ ____
ROOT
ATOM      1  C   UNL     1       3.058   2.867  20.428  0.00  0.00    +0.000 C 
ATOM      2  C   UNL     1       2.049   2.160  19.519  0.00  0.00    +0.000 C 
ATOM      3  C   UNL     1       0.752   2.877  19.812  0.00  0.00    +0.000 C 
ATOM      4  C   UNL     1       1.153   4.296  20.189  0.00  0.00    +0.000 C 
ATOM      5  N   UNL     1       2.648   4.315  20.339  0.00  0.00    +0.000 NA
ENDROOT
BRANCH   5   6
ATOM      6  S   UNL     1       3.470   5.286  19.217  0.00  0.00    +0.000 S 
ATOM      7  O   UNL     1       4.787   5.494  19.779  0.00  0.00    +0.000 OA
ATOM      8  O   UNL     1       3.281   4.701  17.912  0.00  0.00    +0.000 OA
BRANCH   6   9
ATOM      9  C   UNL     1       2.607   6.855  19.299  0.00  0.00    +0.000 C 
BRANCH   9  10
ATOM     10  C   UNL     1       2.820   7.604  17.995  0.00  0.00    +0.000 C 
BRANCH  10  11
ATOM     11  S   UNL     1       1.835   9.133  17.974  0.00  0.00    +0.000 S 
ATOM     12  H   UNL     1       1.703   9.264  19.302  0.00  0.00    +0.000 HD
ENDBRANCH  10  11
ENDBRANCH   9  10
ENDBRANCH   6   9
ENDBRANCH   5   6
BRANCH   1  14
ATOM     13  O   UNL     1       5.095   1.741  21.069  0.00  0.00    +0.000 OA
ATOM     14  C   UNL     1       4.454   2.317  20.198  0.00  0.00    +0.000 C 
BRANCH  14  15
ATOM     15  O   UNL     1       5.036   2.652  19.029  0.00  0.00    +0.000 OA
ATOM     16  H   UNL     1       5.616   1.944  18.664  0.00  0.00    +0.000 HD
ENDBRANCH  14  15
ENDBRANCH   1  14
TORSDOF 6
ENDMDL
MODEL 3
REMARK VINA RESULT:      -5.2      1.131      1.358
REMARK  Name = 
REMARK  6 active torsions:
REMARK  status: ('A' for Active; 'I' for Inactive)
REMARK    1  A    between atoms: C_2  and  O_3
REMARK    2  A    between atoms: C_2  and  C_4
REMARK    3  A    between atoms: N_8  and  S_9
REMARK    4  A    between atoms: S_9  and  C_12
REMARK    5  A    between atoms: C_12  and  C_13
REMARK    6  A    between atoms: C_13  and  S_14
REMARK                            x       y       z     vdW  Elec       q    Type
REMARK                         _______ _______ _______ _____ _____    ______ ____
ROOT
ATOM      1  C   UNL     1       3.218   2.912  19.222  0.00  0.00    +0.000 C 
ATOM      2  C   UNL     1       2.336   2.613  18.007  0.00  0.00    +0.000 C 
ATOM      3  C   UNL     1       1.501   3.863  17.864  0.00  0.00    +0.000 C 
ATOM      4  C   UNL     1       2.374   4.993  18.392  0.00  0.00    +0.000 C 
ATOM      5  N   UNL     1       3.577   4.365  19.039  0.00  0.00    +0.000 NA
ENDROOT
BRANCH   5   6
ATOM      6  S   UNL     1       5.057   4.709  18.287  0.00  0.00    +0.000 S 
ATOM      7  O   UNL     1       6.047   4.657  19.342  0.00  0.00    +0.000 OA
ATOM      8  O   UNL     1       5.153   3.882  17.110  0.00  0.00    +0.000 OA
BRANCH   6   9
ATOM      9  C   UNL     1       4.898   6.427  17.799  0.00  0.00    +0.000 C 
BRANCH   9  10
ATOM     10  C   UNL     1       5.946   6.739  16.745  0.00  0.00    +0.000 C 
BRANCH  10  11
ATOM     11  S   UNL     1       7.482   7.316  17.530  0.00  0.00    +0.000 S 
ATOM     12  H   UNL     1       7.843   6.143  18.071  0.00  0.00    +0.000 HD
ENDBRANCH  10  11
ENDBRANCH   9  10
ENDBRANCH   6   9
ENDBRANCH   5   6
BRANCH   1  14
ATOM     13  O   UNL     1       4.994   1.767  20.390  0.00  0.00    +0.000 OA
ATOM     14  C   UNL     1       4.193   1.774  19.461  0.00  0.00    +0.000 C 
BRANCH  14  15
ATOM     15  O   UNL     1       4.263   0.841  18.491  0.00  0.00    +0.000 OA
ATOM     16  H   UNL     1       5.184   0.553  18.290  0.00  0.00    +0.000 HD
ENDBRANCH  14  15
ENDBRANCH   1  14
TORSDOF 6
ENDMDL
MODEL 4
REMARK VINA RESULT:      -5.2      2.524      4.744
REMARK  Name = 
REMARK  6 active torsions:
REMARK  status: ('A' for Active; 'I' for Inactive)
REMARK    1  A    between atoms: C_2  and  O_3
REMARK    2  A    between atoms: C_2  and  C_4
REMARK    3  A    between atoms: N_8  and  S_9
REMARK    4  A    between atoms: S_9  and  C_12
REMARK    5  A    between atoms: C_12  and  C_13
REMARK    6  A    between atoms: C_13  and  S_14
REMARK                            x       y       z     vdW  Elec       q    Type
REMARK                         _______ _______ _______ _____ _____    ______ ____
ROOT
ATOM      1  C   UNL     1       6.834   4.864  17.764  0.00  0.00    +0.000 C 
ATOM      2  C   UNL     1       7.074   5.402  16.352  0.00  0.00    +0.000 C 
ATOM      3  C   UNL     1       6.366   4.399  15.470  0.00  0.00    +0.000 C 
ATOM      4  C   UNL     1       5.214   3.868  16.311  0.00  0.00    +0.000 C 
ATOM      5  N   UNL     1       5.407   4.377  17.712  0.00  0.00    +0.000 NA
ENDROOT
BRANCH   5   6
ATOM      6  S   UNL     1       4.205   5.439  18.262  0.00  0.00    +0.000 S 
ATOM      7  O   UNL     1       4.367   5.493  19.699  0.00  0.00    +0.000 OA
ATOM      8  O   UNL     1       4.261   6.625  17.444  0.00  0.00    +0.000 OA
BRANCH   6   9
ATOM      9  C   UNL     1       2.678   4.559  17.935  0.00  0.00    +0.000 C 
BRANCH   9  10
ATOM     10  C   UNL     1       2.514   3.456  18.967  0.00  0.00    +0.000 C 
BRANCH  10  11
ATOM     11  S   UNL     1       1.103   3.814  20.058  0.00  0.00    +0.000 S 
ATOM     12  H   UNL     1       1.348   2.858  20.965  0.00  0.00    +0.000 HD
ENDBRANCH  10  11
ENDBRANCH   9  10
ENDBRANCH   6   9
ENDBRANCH   5   6
BRANCH   1  14
ATOM     13  O   UNL     1       8.018   6.837  18.496  0.00  0.00    +0.000 OA
ATOM     14  C   UNL     1       7.417   5.810  18.797  0.00  0.00    +0.000 C 
BRANCH  14  15
ATOM     15  O   UNL     1       7.401   5.377  20.073  0.00  0.00    +0.000 OA
ATOM     16  H   UNL     1       6.794   4.615  20.220  0.00  0.00    +0.000 HD
ENDBRANCH  14  15
ENDBRANCH   1  14
TORSDOF 6
ENDMDL
MODEL 5
REMARK VINA RESULT:      -5.2      2.391      4.889
REMARK  Name = 
REMARK  6 active torsions:
REMARK  status: ('A' for Active; 'I' for Inactive)
REMARK    1  A    between atoms: C_2  and  O_3
REMARK    2  A    between atoms: C_2  and  C_4
REMARK    3  A    between atoms: N_8  and  S_9
REMARK    4  A    between atoms: S_9  and  C_12
REMARK    5  A    between atoms: C_12  and  C_13
REMARK    6  A    between atoms: C_13  and  S_14
REMARK                            x       y       z     vdW  Elec       q    Type
REMARK                         _______ _______ _______ _____ _____    ______ ____
ROOT
ATOM      1  C   UNL     1       7.290   5.123  17.558  0.00  0.00    +0.000 C 
ATOM      2  C   UNL     1       6.961   6.060  16.393  0.00  0.00    +0.000 C 
ATOM      3  C   UNL     1       6.577   5.113  15.280  0.00  0.00    +0.000 C 
ATOM      4  C   UNL     1       5.976   3.899  15.975  0.00  0.00    +0.000 C 
ATOM      5  N   UNL     1       6.234   4.051  17.448  0.00  0.00    +0.000 NA
ENDROOT
BRANCH   5   6
ATOM      6  S   UNL     1       4.846   4.227  18.406  0.00  0.00    +0.000 S 
ATOM      7  O   UNL     1       5.071   3.393  19.567  0.00  0.00    +0.000 OA
ATOM      8  O   UNL     1       4.571   5.638  18.522  0.00  0.00    +0.000 OA
BRANCH   6   9
ATOM      9  C   UNL     1       3.558   3.445  17.436  0.00  0.00    +0.000 C 
BRANCH   9  10
ATOM     10  C   UNL     1       3.165   2.137  18.100  0.00  0.00    +0.000 C 
BRANCH  10  11
ATOM     11  S   UNL     1       1.554   2.304  18.928  0.00  0.00    +0.000 S 
ATOM     12  H   UNL     1       0.839   1.593  18.045  0.00  0.00    +0.000 HD
ENDBRANCH  10  11
ENDBRANCH   9  10
ENDBRANCH   6   9
ENDBRANCH   5   6
BRANCH   1  14
ATOM     13  O   UNL     1       8.216   6.996  18.768  0.00  0.00    +0.000 OA
ATOM     14  C   UNL     1       7.622   5.923  18.804  0.00  0.00    +0.000 C 
BRANCH  14  15
ATOM     15  O   UNL     1       7.390   5.310  19.981  0.00  0.00    +0.000 OA
ATOM     16  H   UNL     1       6.510   5.525  20.368  0.00  0.00    +0.000 HD
ENDBRANCH  14  15
ENDBRANCH   1  14
TORSDOF 6
ENDMDL
MODEL 6
REMARK VINA RESULT:      -5.1      2.649      3.623
REMARK  Name = 
REMARK  6 active torsions:
REMARK  status: ('A' for Active; 'I' for Inactive)
REMARK    1  A    between atoms: C_2  and  O_3
REMARK    2  A    between atoms: C_2  and  C_4
REMARK    3  A    between atoms: N_8  and  S_9
REMARK    4  A    between atoms: S_9  and  C_12
REMARK    5  A    between atoms: C_12  and  C_13
REMARK    6  A    between atoms: C_13  and  S_14
REMARK                            x       y       z     vdW  Elec       q    Type
REMARK                         _______ _______ _______ _____ _____    ______ ____
ROOT
ATOM      1  C   UNL     1       5.814   6.004  18.267  0.00  0.00    +0.000 C 
ATOM      2  C   UNL     1       4.286   5.943  18.204  0.00  0.00    +0.000 C 
ATOM      3  C   UNL     1       3.948   6.838  17.035  0.00  0.00    +0.000 C 
ATOM      4  C   UNL     1       5.135   6.731  16.089  0.00  0.00    +0.000 C 
ATOM      5  N   UNL     1       6.221   5.986  16.814  0.00  0.00    +0.000 NA
ENDROOT
BRANCH   5   6
ATOM      6  S   UNL     1       6.633   4.484  16.143  0.00  0.00    +0.000 S 
ATOM      7  O   UNL     1       7.964   4.196  16.632  0.00  0.00    +0.000 OA
ATOM      8  O   UNL     1       5.527   3.587  16.368  0.00  0.00    +0.000 OA
BRANCH   6   9
ATOM      9  C   UNL     1       6.777   4.827  14.390  0.00  0.00    +0.000 C 
BRANCH   9  10
ATOM     10  C   UNL     1       5.748   3.999  13.639  0.00  0.00    +0.000 C 
BRANCH  10  11
ATOM     11  S   UNL     1       6.459   3.351  12.096  0.00  0.00    +0.000 S 
ATOM     12  H   UNL     1       5.660   2.281  11.981  0.00  0.00    +0.000 HD
ENDBRANCH  10  11
ENDBRANCH   9  10
ENDBRANCH   6   9
ENDBRANCH   5   6
BRANCH   1  14
ATOM     13  O   UNL     1       7.299   5.362  20.058  0.00  0.00    +0.000 OA
ATOM     14  C   UNL     1       6.337   5.082  19.352  0.00  0.00    +0.000 C 
BRANCH  14  15
ATOM     15  O   UNL     1       5.800   3.846  19.388  0.00  0.00    +0.000 OA
ATOM     16  H   UNL     1       6.181   3.273  20.094  0.00  0.00    +0.000 HD
ENDBRANCH  14  15
ENDBRANCH   1  14
TORSDOF 6
ENDMDL
MODEL 7
REMARK VINA RESULT:      -5.1      2.870      3.417
REMARK  Name = 
REMARK  6 active torsions:
REMARK  status: ('A' for Active; 'I' for Inactive)
REMARK    1  A    between atoms: C_2  and  O_3
REMARK    2  A    between atoms: C_2  and  C_4
REMARK    3  A    between atoms: N_8  and  S_9
REMARK    4  A    between atoms: S_9  and  C_12
REMARK    5  A    between atoms: C_12  and  C_13
REMARK    6  A    between atoms: C_13  and  S_14
REMARK                            x       y       z     vdW  Elec       q    Type
REMARK                         _______ _______ _______ _____ _____    ______ ____
ROOT
ATOM      1  C   UNL     1       2.597   4.518  20.729  0.00  0.00    +0.000 C 
ATOM      2  C   UNL     1       1.525   5.598  20.564  0.00  0.00    +0.000 C 
ATOM      3  C   UNL     1       2.257   6.713  19.855  0.00  0.00    +0.000 C 
ATOM      4  C   UNL     1       3.323   6.024  19.016  0.00  0.00    +0.000 C 
ATOM      5  N   UNL     1       3.351   4.577  19.424  0.00  0.00    +0.000 NA
ENDROOT
BRANCH   5   6
ATOM      6  S   UNL     1       2.894   3.481  18.214  0.00  0.00    +0.000 S 
ATOM      7  O   UNL     1       3.518   2.227  18.575  0.00  0.00    +0.000 OA
ATOM      8  O   UNL     1       1.468   3.598  18.033  0.00  0.00    +0.000 OA
BRANCH   6   9
ATOM      9  C   UNL     1       3.734   4.087  16.751  0.00  0.00    +0.000 C 
BRANCH   9  10
ATOM     10  C   UNL     1       5.227   3.857  16.909  0.00  0.00    +0.000 C 
BRANCH  10  11
ATOM     11  S   UNL     1       6.067   4.030  15.305  0.00  0.00    +0.000 S 
ATOM     12  H   UNL     1       4.969   4.235  14.563  0.00  0.00    +0.000 HD
ENDBRANCH  10  11
ENDBRANCH   9  10
ENDBRANCH   6   9
ENDBRANCH   5   6
BRANCH   1  14
ATOM     13  O   UNL     1       2.656   2.498  22.049  0.00  0.00    +0.000 OA
ATOM     14  C   UNL     1       2.002   3.274  21.361  0.00  0.00    +0.000 C 
BRANCH  14  15
ATOM     15  O   UNL     1       0.747   2.959  20.981  0.00  0.00    +0.000 OA
ATOM     16  H   UNL     1       0.712   2.411  20.163  0.00  0.00    +0.000 HD
ENDBRANCH  14  15
ENDBRANCH   1  14
TORSDOF 6
ENDMDL
MODEL 8
REMARK VINA RESULT:      -5.1      2.304      4.634
REMARK  Name = 
REMARK  6 active torsions:
REMARK  status: ('A' for Active; 'I' for Inactive)
REMARK    1  A    between atoms: C_2  and  O_3
REMARK    2  A    between atoms: C_2  and  C_4
REMARK    3  A    between atoms: N_8  and  S_9
REMARK    4  A    between atoms: S_9  and  C_12
REMARK    5  A    between atoms: C_12  and  C_13
REMARK    6  A    between atoms: C_13  and  S_14
REMARK                            x       y       z     vdW  Elec       q    Type
REMARK                         _______ _______ _______ _____ _____    ______ ____
ROOT
ATOM      1  C   UNL     1       6.788   5.311  17.605  0.00  0.00    +0.000 C 
ATOM      2  C   UNL     1       6.184   6.410  16.727  0.00  0.00    +0.000 C 
ATOM      3  C   UNL     1       5.504   5.639  15.619  0.00  0.00    +0.000 C 
ATOM      4  C   UNL     1       5.083   4.318  16.249  0.00  0.00    +0.000 C 
ATOM      5  N   UNL     1       5.720   4.246  17.608  0.00  0.00    +0.000 NA
ENDROOT
BRANCH   5   6
ATOM      6  S   UNL     1       4.634   4.240  18.911  0.00  0.00    +0.000 S 
ATOM      7  O   UNL     1       5.115   3.212  19.808  0.00  0.00    +0.000 OA
ATOM      8  O   UNL     1       4.458   5.605  19.339  0.00  0.00    +0.000 OA
BRANCH   6   9
ATOM      9  C   UNL     1       3.108   3.638  18.189  0.00  0.00    +0.000 C 
BRANCH   9  10
ATOM     10  C   UNL     1       1.963   4.528  18.643  0.00  0.00    +0.000 C 
BRANCH  10  11
ATOM     11  S   UNL     1       1.172   3.834  20.127  0.00  0.00    +0.000 S 
ATOM     12  H   UNL     1       1.585   2.570  19.960  0.00  0.00    +0.000 HD
ENDBRANCH  10  11
ENDBRANCH   9  10
ENDBRANCH   6   9
ENDBRANCH   5   6
BRANCH   1  14
ATOM     13  O   UNL     1       8.155   6.917  18.779  0.00  0.00    +0.000 OA
ATOM     14  C   UNL     1       7.449   5.916  18.829  0.00  0.00    +0.000 C 
BRANCH  14  15
ATOM     15  O   UNL     1       7.371   5.192  19.963  0.00  0.00    +0.000 OA
ATOM     16  H   UNL     1       8.192   4.683  20.161  0.00  0.00    +0.000 HD
ENDBRANCH  14  15
ENDBRANCH   1  14
TORSDOF 6
ENDMDL
MODEL 9
REMARK VINA RESULT:      -5.1      2.152      2.516
REMARK  Name = 
REMARK  6 active torsions:
REMARK  status: ('A' for Active; 'I' for Inactive)
REMARK    1  A    between atoms: C_2  and  O_3
REMARK    2  A    between atoms: C_2  and  C_4
REMARK    3  A    between atoms: N_8  and  S_9
REMARK    4  A    between atoms: S_9  and  C_12
REMARK    5  A    between atoms: C_12  and  C_13
REMARK    6  A    between atoms: C_13  and  S_14
REMARK                            x       y       z     vdW  Elec       q    Type
REMARK                         _______ _______ _______ _____ _____    ______ ____
ROOT
ATOM      1  C   UNL     1       3.090   2.987  20.334  0.00  0.00    +0.000 C 
ATOM      2  C   UNL     1       1.742   2.556  19.751  0.00  0.00    +0.000 C 
ATOM      3  C   UNL     1       0.784   3.603  20.271  0.00  0.00    +0.000 C 
ATOM      4  C   UNL     1       1.614   4.871  20.413  0.00  0.00    +0.000 C 
ATOM      5  N   UNL     1       3.054   4.490  20.210  0.00  0.00    +0.000 NA
ENDROOT
BRANCH   5   6
ATOM      6  S   UNL     1       3.792   5.174  18.845  0.00  0.00    +0.000 S 
ATOM      7  O   UNL     1       3.591   4.217  17.779  0.00  0.00    +0.000 OA
ATOM      8  O   UNL     1       3.339   6.539  18.741  0.00  0.00    +0.000 OA
BRANCH   6   9
ATOM      9  C   UNL     1       5.538   5.154  19.250  0.00  0.00    +0.000 C 
BRANCH   9  10
ATOM     10  C   UNL     1       6.323   4.707  18.029  0.00  0.00    +0.000 C 
BRANCH  10  11
ATOM     11  S   UNL     1       7.085   6.140  17.207  0.00  0.00    +0.000 S 
ATOM     12  H   UNL     1       8.203   6.180  17.947  0.00  0.00    +0.000 HD
ENDBRANCH  10  11
ENDBRANCH   9  10
ENDBRANCH   6   9
ENDBRANCH   5   6
BRANCH   1  14
ATOM     13  O   UNL     1       5.230   1.878  20.467  0.00  0.00    +0.000 OA
ATOM     14  C   UNL     1       4.197   2.077  19.837  0.00  0.00    +0.000 C 
BRANCH  14  15
ATOM     15  O   UNL     1       4.072   1.629  18.572  0.00  0.00    +0.000 OA
ATOM     16  H   UNL     1       4.894   1.730  18.037  0.00  0.00    +0.000 HD
ENDBRANCH  14  15
ENDBRANCH   1  14
TORSDOF 6
ENDMDL
