MODEL 1
REMARK VINA RESULT:      -8.6      0.000      0.000
REMARK  Name = 
REMARK  2 active torsions:
REMARK  status: ('A' for Active; 'I' for Inactive)
REMARK    1  A    between atoms: O_1  and  C_2
REMARK    2  A    between atoms: C_4  and  C_5
REMARK                            x       y       z     vdW  Elec       q    Type
REMARK                         _______ _______ _______ _____ _____    ______ ____
ROOT
ATOM      1  C   UNL     1       2.940   4.718  19.263  0.00  0.00    +0.000 A 
ATOM      2  C   UNL     1       2.274   5.738  19.926  0.00  0.00    +0.000 A 
ATOM      3  C   UNL     1       2.380   7.032  19.428  0.00  0.00    +0.000 A 
ATOM      4  N   UNL     1       3.160   7.330  18.361  0.00  0.00    +0.000 NA
ATOM      5  C   UNL     1       3.826   6.348  17.737  0.00  0.00    +0.000 A 
ATOM      6  C   UNL     1       4.620   6.671  16.645  0.00  0.00    +0.000 A 
ATOM      7  C   UNL     1       5.304   5.672  15.991  0.00  0.00    +0.000 A 
ATOM      8  C   UNL     1       5.210   4.359  16.378  0.00  0.00    +0.000 A 
ATOM      9  C   UNL     1       4.429   3.983  17.444  0.00  0.00    +0.000 A 
ATOM     10  C   UNL     1       3.737   4.991  18.147  0.00  0.00    +0.000 A 
ATOM     11  O   UNL     1       5.960   3.530  15.607  0.00  0.00    +0.000 OA
ATOM     12  C   UNL     1       6.613   4.486  14.747  0.00  0.00    +0.000 C 
ATOM     13  O   UNL     1       6.134   5.836  14.926  0.00  0.00    +0.000 OA
ENDROOT
BRANCH   3  14
ATOM     14  C   UNL     1       1.634   8.165  20.011  0.00  0.00    +0.000 A 
ATOM     15  C   UNL     1       1.263   9.285  19.218  0.00  0.00    +0.000 A 
ATOM     16  C   UNL     1       0.537  10.358  19.746  0.00  0.00    +0.000 A 
ATOM     17  C   UNL     1       0.176  10.285  21.069  0.00  0.00    +0.000 A 
ATOM     18  C   UNL     1       0.541   9.223  21.863  0.00  0.00    +0.000 A 
ATOM     19  C   UNL     1       1.278   8.165  21.373  0.00  0.00    +0.000 A 
ATOM     20  O   UNL     1       0.070   9.346  23.134  0.00  0.00    +0.000 OA
ATOM     21  C   UNL     1      -0.808  10.477  22.970  0.00  0.00    +0.000 C 
ATOM     22  O   UNL     1      -0.576  11.197  21.742  0.00  0.00    +0.000 OA
ENDBRANCH   3  14
BRANCH   1  23
ATOM     23  O   UNL     1       2.818   3.426  19.708  0.00  0.00    +0.000 OA
ATOM     24  H   UNL     1       3.694   3.085  19.954  0.00  0.00    +0.000 HD
ENDBRANCH   1  23
TORSDOF 2
ENDMDL
MODEL 2
REMARK VINA RESULT:      -8.4      2.247      7.989
REMARK  Name = 
REMARK  2 active torsions:
REMARK  status: ('A' for Active; 'I' for Inactive)
REMARK    1  A    between atoms: O_1  and  C_2
REMARK    2  A    between atoms: C_4  and  C_5
REMARK                            x       y       z     vdW  Elec       q    Type
REMARK                         _______ _______ _______ _____ _____    ______ ____
ROOT
ATOM      1  C   UNL     1       1.666   9.336  18.516  0.00  0.00    +0.000 A 
ATOM      2  C   UNL     1       2.139   8.033  18.476  0.00  0.00    +0.000 A 
ATOM      3  C   UNL     1       1.962   7.229  19.596  0.00  0.00    +0.000 A 
ATOM      4  N   UNL     1       1.403   7.698  20.738  0.00  0.00    +0.000 NA
ATOM      5  C   UNL     1       0.970   8.967  20.786  0.00  0.00    +0.000 A 
ATOM      6  C   UNL     1       0.398   9.431  21.963  0.00  0.00    +0.000 A 
ATOM      7  C   UNL     1      -0.056  10.729  22.024  0.00  0.00    +0.000 A 
ATOM      8  C   UNL     1       0.026  11.574  20.946  0.00  0.00    +0.000 A 
ATOM      9  C   UNL     1       0.570  11.162  19.755  0.00  0.00    +0.000 A 
ATOM     10  C   UNL     1       1.066   9.844  19.673  0.00  0.00    +0.000 A 
ATOM     11  O   UNL     1      -0.475  12.809  21.210  0.00  0.00    +0.000 OA
ATOM     12  C   UNL     1      -0.794  12.672  22.610  0.00  0.00    +0.000 C 
ATOM     13  O   UNL     1      -0.614  11.330  23.108  0.00  0.00    +0.000 OA
ENDROOT
BRANCH   3  14
ATOM     14  C   UNL     1       2.348   5.804  19.614  0.00  0.00    +0.000 A 
ATOM     15  C   UNL     1       2.176   5.011  20.781  0.00  0.00    +0.000 A 
ATOM     16  C   UNL     1       2.515   3.654  20.809  0.00  0.00    +0.000 A 
ATOM     17  C   UNL     1       3.012   3.102  19.654  0.00  0.00    +0.000 A 
ATOM     18  C   UNL     1       3.209   3.853  18.518  0.00  0.00    +0.000 A 
ATOM     19  C   UNL     1       2.906   5.198  18.472  0.00  0.00    +0.000 A 
ATOM     20  O   UNL     1       3.695   3.108  17.488  0.00  0.00    +0.000 OA
ATOM     21  C   UNL     1       3.560   1.786  18.046  0.00  0.00    +0.000 C 
ATOM     22  O   UNL     1       3.342   1.795  19.472  0.00  0.00    +0.000 OA
ENDBRANCH   3  14
BRANCH   1  23
ATOM     23  O   UNL     1       1.789  10.138  17.410  0.00  0.00    +0.000 OA
ATOM     24  H   UNL     1       1.437  11.022  17.611  0.00  0.00    +0.000 HD
ENDBRANCH   1  23
TORSDOF 2
ENDMDL
MODEL 3
REMARK VINA RESULT:      -8.4      2.382      7.958
REMARK  Name = 
REMARK  2 active torsions:
REMARK  status: ('A' for Active; 'I' for Inactive)
REMARK    1  A    between atoms: O_1  and  C_2
REMARK    2  A    between atoms: C_4  and  C_5
REMARK                            x       y       z     vdW  Elec       q    Type
REMARK                         _______ _______ _______ _____ _____    ______ ____
ROOT
ATOM      1  C   UNL     1       1.668   9.404  18.447  0.00  0.00    +0.000 A 
ATOM      2  C   UNL     1       2.319   8.198  18.239  0.00  0.00    +0.000 A 
ATOM      3  C   UNL     1       2.297   7.249  19.257  0.00  0.00    +0.000 A 
ATOM      4  N   UNL     1       1.716   7.495  20.456  0.00  0.00    +0.000 NA
ATOM      5  C   UNL     1       1.111   8.673  20.666  0.00  0.00    +0.000 A 
ATOM      6  C   UNL     1       0.521   8.907  21.901  0.00  0.00    +0.000 A 
ATOM      7  C   UNL     1      -0.110  10.110  22.128  0.00  0.00    +0.000 A 
ATOM      8  C   UNL     1      -0.186  11.079  21.160  0.00  0.00    +0.000 A 
ATOM      9  C   UNL     1       0.369  10.894  19.918  0.00  0.00    +0.000 A 
ATOM     10  C   UNL     1       1.043   9.680  19.668  0.00  0.00    +0.000 A 
ATOM     11  O   UNL     1      -0.847  12.189  21.581  0.00  0.00    +0.000 OA
ATOM     12  C   UNL     1      -1.095  11.843  22.959  0.00  0.00    +0.000 C 
ATOM     13  O   UNL     1      -0.710  10.492  23.286  0.00  0.00    +0.000 OA
ENDROOT
BRANCH   3  14
ATOM     14  C   UNL     1       2.881   5.904  19.093  0.00  0.00    +0.000 A 
ATOM     15  C   UNL     1       4.227   5.638  19.464  0.00  0.00    +0.000 A 
ATOM     16  C   UNL     1       4.792   4.364  19.338  0.00  0.00    +0.000 A 
ATOM     17  C   UNL     1       3.987   3.362  18.852  0.00  0.00    +0.000 A 
ATOM     18  C   UNL     1       2.688   3.598  18.466  0.00  0.00    +0.000 A 
ATOM     19  C   UNL     1       2.116   4.850  18.558  0.00  0.00    +0.000 A 
ATOM     20  O   UNL     1       2.069   2.468  18.029  0.00  0.00    +0.000 OA
ATOM     21  C   UNL     1       3.051   1.481  18.402  0.00  0.00    +0.000 C 
ATOM     22  O   UNL     1       4.337   2.055  18.713  0.00  0.00    +0.000 OA
ENDBRANCH   3  14
BRANCH   1  23
ATOM     23  O   UNL     1       1.639  10.341  17.444  0.00  0.00    +0.000 OA
ATOM     24  H   UNL     1       1.410  11.208  17.820  0.00  0.00    +0.000 HD
ENDBRANCH   1  23
TORSDOF 2
ENDMDL
MODEL 4
REMARK VINA RESULT:      -8.4      0.791      1.578
REMARK  Name = 
REMARK  2 active torsions:
REMARK  status: ('A' for Active; 'I' for Inactive)
REMARK    1  A    between atoms: O_1  and  C_2
REMARK    2  A    between atoms: C_4  and  C_5
REMARK                            x       y       z     vdW  Elec       q    Type
REMARK                         _______ _______ _______ _____ _____    ______ ____
ROOT
ATOM      1  C   UNL     1       2.875   4.637  18.913  0.00  0.00    +0.000 A 
ATOM      2  C   UNL     1       2.226   5.649  19.602  0.00  0.00    +0.000 A 
ATOM      3  C   UNL     1       2.424   6.964  19.192  0.00  0.00    +0.000 A 
ATOM      4  N   UNL     1       3.275   7.282  18.187  0.00  0.00    +0.000 NA
ATOM      5  C   UNL     1       3.924   6.305  17.538  0.00  0.00    +0.000 A 
ATOM      6  C   UNL     1       4.792   6.649  16.511  0.00  0.00    +0.000 A 
ATOM      7  C   UNL     1       5.460   5.655  15.832  0.00  0.00    +0.000 A 
ATOM      8  C   UNL     1       5.279   4.329  16.132  0.00  0.00    +0.000 A 
ATOM      9  C   UNL     1       4.423   3.932  17.130  0.00  0.00    +0.000 A 
ATOM     10  C   UNL     1       3.745   4.933  17.858  0.00  0.00    +0.000 A 
ATOM     11  O   UNL     1       6.028   3.508  15.350  0.00  0.00    +0.000 OA
ATOM     12  C   UNL     1       6.774   4.477  14.587  0.00  0.00    +0.000 C 
ATOM     13  O   UNL     1       6.354   5.837  14.824  0.00  0.00    +0.000 OA
ENDROOT
BRANCH   3  14
ATOM     14  C   UNL     1       1.705   8.098  19.804  0.00  0.00    +0.000 A 
ATOM     15  C   UNL     1       1.346   8.084  21.179  0.00  0.00    +0.000 A 
ATOM     16  C   UNL     1       0.685   9.159  21.783  0.00  0.00    +0.000 A 
ATOM     17  C   UNL     1       0.403  10.249  20.996  0.00  0.00    +0.000 A 
ATOM     18  C   UNL     1       0.719  10.278  19.657  0.00  0.00    +0.000 A 
ATOM     19  C   UNL     1       1.349   9.222  19.034  0.00  0.00    +0.000 A 
ATOM     20  O   UNL     1       0.364  11.454  19.072  0.00  0.00    +0.000 OA
ATOM     21  C   UNL     1       0.007  12.221  20.239  0.00  0.00    +0.000 C 
ATOM     22  O   UNL     1      -0.180  11.405  21.414  0.00  0.00    +0.000 OA
ENDBRANCH   3  14
BRANCH   1  23
ATOM     23  O   UNL     1       2.664   3.329  19.269  0.00  0.00    +0.000 OA
ATOM     24  H   UNL     1       1.769   3.061  18.999  0.00  0.00    +0.000 HD
ENDBRANCH   1  23
TORSDOF 2
ENDMDL
MODEL 5
REMARK VINA RESULT:      -8.4      1.278      8.111
REMARK  Name = 
REMARK  2 active torsions:
REMARK  status: ('A' for Active; 'I' for Inactive)
REMARK    1  A    between atoms: O_1  and  C_2
REMARK    2  A    between atoms: C_4  and  C_5
REMARK                            x       y       z     vdW  Elec       q    Type
REMARK                         _______ _______ _______ _____ _____    ______ ____
ROOT
ATOM      1  C   UNL     1       1.937   9.736  18.089  0.00  0.00    +0.000 A 
ATOM      2  C   UNL     1       2.736   8.762  17.510  0.00  0.00    +0.000 A 
ATOM      3  C   UNL     1       2.903   7.556  18.182  0.00  0.00    +0.000 A 
ATOM      4  N   UNL     1       2.362   7.333  19.405  0.00  0.00    +0.000 NA
ATOM      5  C   UNL     1       1.612   8.286  19.977  0.00  0.00    +0.000 A 
ATOM      6  C   UNL     1       1.065   8.041  21.229  0.00  0.00    +0.000 A 
ATOM      7  C   UNL     1       0.288   9.008  21.825  0.00  0.00    +0.000 A 
ATOM      8  C   UNL     1       0.024  10.204  21.207  0.00  0.00    +0.000 A 
ATOM      9  C   UNL     1       0.529  10.493  19.964  0.00  0.00    +0.000 A 
ATOM     10  C   UNL     1       1.350   9.529  19.341  0.00  0.00    +0.000 A 
ATOM     11  O   UNL     1      -0.760  11.020  21.959  0.00  0.00    +0.000 OA
ATOM     12  C   UNL     1      -0.880  10.237  23.164  0.00  0.00    +0.000 C 
ATOM     13  O   UNL     1      -0.293   8.923  23.051  0.00  0.00    +0.000 OA
ENDROOT
BRANCH   3  14
ATOM     14  C   UNL     1       3.657   6.428  17.602  0.00  0.00    +0.000 A 
ATOM     15  C   UNL     1       3.313   5.082  17.904  0.00  0.00    +0.000 A 
ATOM     16  C   UNL     1       4.002   3.999  17.347  0.00  0.00    +0.000 A 
ATOM     17  C   UNL     1       5.025   4.282  16.476  0.00  0.00    +0.000 A 
ATOM     18  C   UNL     1       5.392   5.575  16.185  0.00  0.00    +0.000 A 
ATOM     19  C   UNL     1       4.745   6.659  16.740  0.00  0.00    +0.000 A 
ATOM     20  O   UNL     1       6.418   5.629  15.291  0.00  0.00    +0.000 OA
ATOM     21  C   UNL     1       6.484   4.244  14.899  0.00  0.00    +0.000 C 
ATOM     22  O   UNL     1       5.768   3.369  15.795  0.00  0.00    +0.000 OA
ENDBRANCH   3  14
BRANCH   1  23
ATOM     23  O   UNL     1       1.722  10.919  17.428  0.00  0.00    +0.000 OA
ATOM     24  H   UNL     1       2.461  11.526  17.603  0.00  0.00    +0.000 HD
ENDBRANCH   1  23
TORSDOF 2
ENDMDL
MODEL 6
REMARK VINA RESULT:      -8.3      2.116      7.867
REMARK  Name = 
REMARK  2 active torsions:
REMARK  status: ('A' for Active; 'I' for Inactive)
REMARK    1  A    between atoms: O_1  and  C_2
REMARK    2  A    between atoms: C_4  and  C_5
REMARK                            x       y       z     vdW  Elec       q    Type
REMARK                         _______ _______ _______ _____ _____    ______ ____
ROOT
ATOM      1  C   UNL     1       1.640   9.474  18.500  0.00  0.00    +0.000 A 
ATOM      2  C   UNL     1       2.264   8.251  18.308  0.00  0.00    +0.000 A 
ATOM      3  C   UNL     1       2.205   7.309  19.330  0.00  0.00    +0.000 A 
ATOM      4  N   UNL     1       1.614   7.576  20.520  0.00  0.00    +0.000 NA
ATOM      5  C   UNL     1       1.034   8.769  20.716  0.00  0.00    +0.000 A 
ATOM      6  C   UNL     1       0.434   9.024  21.941  0.00  0.00    +0.000 A 
ATOM      7  C   UNL     1      -0.171  10.243  22.152  0.00  0.00    +0.000 A 
ATOM      8  C   UNL     1      -0.210  11.209  21.178  0.00  0.00    +0.000 A 
ATOM      9  C   UNL     1       0.358  11.003  19.945  0.00  0.00    +0.000 A 
ATOM     10  C   UNL     1       1.005   9.772  19.711  0.00  0.00    +0.000 A 
ATOM     11  O   UNL     1      -0.850  12.336  21.584  0.00  0.00    +0.000 OA
ATOM     12  C   UNL     1      -1.124  12.005  22.960  0.00  0.00    +0.000 C 
ATOM     13  O   UNL     1      -0.777  10.646  23.301  0.00  0.00    +0.000 OA
ENDROOT
BRANCH   3  14
ATOM     14  C   UNL     1       2.758   5.949  19.182  0.00  0.00    +0.000 A 
ATOM     15  C   UNL     1       3.390   5.540  17.976  0.00  0.00    +0.000 A 
ATOM     16  C   UNL     1       3.941   4.263  17.825  0.00  0.00    +0.000 A 
ATOM     17  C   UNL     1       3.862   3.410  18.899  0.00  0.00    +0.000 A 
ATOM     18  C   UNL     1       3.236   3.773  20.068  0.00  0.00    +0.000 A 
ATOM     19  C   UNL     1       2.665   5.017  20.234  0.00  0.00    +0.000 A 
ATOM     20  O   UNL     1       3.285   2.786  21.004  0.00  0.00    +0.000 OA
ATOM     21  C   UNL     1       4.199   1.875  20.364  0.00  0.00    +0.000 C 
ATOM     22  O   UNL     1       4.386   2.157  18.961  0.00  0.00    +0.000 OA
ENDBRANCH   3  14
BRANCH   1  23
ATOM     23  O   UNL     1       1.647  10.405  17.493  0.00  0.00    +0.000 OA
ATOM     24  H   UNL     1       0.896  11.012  17.609  0.00  0.00    +0.000 HD
ENDBRANCH   1  23
TORSDOF 2
ENDMDL
MODEL 7
REMARK VINA RESULT:      -8.0      2.197      3.674
REMARK  Name = 
REMARK  2 active torsions:
REMARK  status: ('A' for Active; 'I' for Inactive)
REMARK    1  A    between atoms: O_1  and  C_2
REMARK    2  A    between atoms: C_4  and  C_5
REMARK                            x       y       z     vdW  Elec       q    Type
REMARK                         _______ _______ _______ _____ _____    ______ ____
ROOT
ATOM      1  C   UNL     1       2.456   7.861  18.297  0.00  0.00    +0.000 A 
ATOM      2  C   UNL     1       1.726   8.821  18.981  0.00  0.00    +0.000 A 
ATOM      3  C   UNL     1       1.247   8.510  20.250  0.00  0.00    +0.000 A 
ATOM      4  N   UNL     1       1.419   7.285  20.803  0.00  0.00    +0.000 NA
ATOM      5  C   UNL     1       2.102   6.348  20.130  0.00  0.00    +0.000 A 
ATOM      6  C   UNL     1       2.269   5.099  20.712  0.00  0.00    +0.000 A 
ATOM      7  C   UNL     1       2.973   4.129  20.034  0.00  0.00    +0.000 A 
ATOM      8  C   UNL     1       3.530   4.369  18.803  0.00  0.00    +0.000 A 
ATOM      9  C   UNL     1       3.405   5.590  18.188  0.00  0.00    +0.000 A 
ATOM     10  C   UNL     1       2.667   6.593  18.850  0.00  0.00    +0.000 A 
ATOM     11  O   UNL     1       4.181   3.286  18.304  0.00  0.00    +0.000 OA
ATOM     12  C   UNL     1       3.888   2.307  19.321  0.00  0.00    +0.000 C 
ATOM     13  O   UNL     1       3.199   2.859  20.463  0.00  0.00    +0.000 OA
ENDROOT
BRANCH   3  14
ATOM     14  C   UNL     1       0.542   9.497  21.090  0.00  0.00    +0.000 A 
ATOM     15  C   UNL     1      -0.086   9.112  22.306  0.00  0.00    +0.000 A 
ATOM     16  C   UNL     1      -0.741  10.037  23.127  0.00  0.00    +0.000 A 
ATOM     17  C   UNL     1      -0.743  11.349  22.722  0.00  0.00    +0.000 A 
ATOM     18  C   UNL     1      -0.162  11.744  21.540  0.00  0.00    +0.000 A 
ATOM     19  C   UNL     1       0.467  10.849  20.701  0.00  0.00    +0.000 A 
ATOM     20  O   UNL     1      -0.268  13.087  21.339  0.00  0.00    +0.000 OA
ATOM     21  C   UNL     1      -0.771  13.496  22.626  0.00  0.00    +0.000 C 
ATOM     22  O   UNL     1      -1.275  12.394  23.411  0.00  0.00    +0.000 OA
ENDBRANCH   3  14
BRANCH   1  23
ATOM     23  O   UNL     1       2.976   8.155  17.062  0.00  0.00    +0.000 OA
ATOM     24  H   UNL     1       3.676   8.823  17.158  0.00  0.00    +0.000 HD
ENDBRANCH   1  23
TORSDOF 2
ENDMDL
MODEL 8
REMARK VINA RESULT:      -7.7      1.540      7.724
REMARK  Name = 
REMARK  2 active torsions:
REMARK  status: ('A' for Active; 'I' for Inactive)
REMARK    1  A    between atoms: O_1  and  C_2
REMARK    2  A    between atoms: C_4  and  C_5
REMARK                            x       y       z     vdW  Elec       q    Type
REMARK                         _______ _______ _______ _____ _____    ______ ____
ROOT
ATOM      1  C   UNL     1       1.933   7.042  20.251  0.00  0.00    +0.000 A 
ATOM      2  C   UNL     1       2.651   6.147  19.471  0.00  0.00    +0.000 A 
ATOM      3  C   UNL     1       3.108   6.571  18.228  0.00  0.00    +0.000 A 
ATOM      4  N   UNL     1       2.820   7.800  17.736  0.00  0.00    +0.000 NA
ATOM      5  C   UNL     1       2.103   8.656  18.479  0.00  0.00    +0.000 A 
ATOM      6  C   UNL     1       1.818   9.911  17.959  0.00  0.00    +0.000 A 
ATOM      7  C   UNL     1       1.088  10.801  18.714  0.00  0.00    +0.000 A 
ATOM      8  C   UNL     1       0.647  10.487  19.975  0.00  0.00    +0.000 A 
ATOM      9  C   UNL     1       0.911   9.265  20.541  0.00  0.00    +0.000 A 
ATOM     10  C   UNL     1       1.636   8.325  19.779  0.00  0.00    +0.000 A 
ATOM     11  O   UNL     1      -0.055  11.498  20.551  0.00  0.00    +0.000 OA
ATOM     12  C   UNL     1      -0.086  12.450  19.468  0.00  0.00    +0.000 C 
ATOM     13  O   UNL     1       0.712  12.051  18.334  0.00  0.00    +0.000 OA
ENDROOT
BRANCH   3  14
ATOM     14  C   UNL     1       3.958   5.722  17.369  0.00  0.00    +0.000 A 
ATOM     15  C   UNL     1       3.864   4.304  17.415  0.00  0.00    +0.000 A 
ATOM     16  C   UNL     1       4.644   3.484  16.593  0.00  0.00    +0.000 A 
ATOM     17  C   UNL     1       5.504   4.102  15.718  0.00  0.00    +0.000 A 
ATOM     18  C   UNL     1       5.629   5.470  15.670  0.00  0.00    +0.000 A 
ATOM     19  C   UNL     1       4.890   6.300  16.486  0.00  0.00    +0.000 A 
ATOM     20  O   UNL     1       6.525   5.871  14.726  0.00  0.00    +0.000 OA
ATOM     21  C   UNL     1       6.760   4.618  14.053  0.00  0.00    +0.000 C 
ATOM     22  O   UNL     1       6.297   3.478  14.806  0.00  0.00    +0.000 OA
ENDBRANCH   3  14
BRANCH   1  23
ATOM     23  O   UNL     1       1.506   6.664  21.499  0.00  0.00    +0.000 OA
ATOM     24  H   UNL     1       1.079   5.793  21.444  0.00  0.00    +0.000 HD
ENDBRANCH   1  23
TORSDOF 2
ENDMDL
MODEL 9
REMARK VINA RESULT:      -7.6      1.847      8.123
REMARK  Name = 
REMARK  2 active torsions:
REMARK  status: ('A' for Active; 'I' for Inactive)
REMARK    1  A    between atoms: O_1  and  C_2
REMARK    2  A    between atoms: C_4  and  C_5
REMARK                            x       y       z     vdW  Elec       q    Type
REMARK                         _______ _______ _______ _____ _____    ______ ____
ROOT
ATOM      1  C   UNL     1      -0.120  10.038  18.218  0.00  0.00    +0.000 A 
ATOM      2  C   UNL     1       0.831   9.089  17.875  0.00  0.00    +0.000 A 
ATOM      3  C   UNL     1       1.561   8.485  18.893  0.00  0.00    +0.000 A 
ATOM      4  N   UNL     1       1.415   8.841  20.192  0.00  0.00    +0.000 NA
ATOM      5  C   UNL     1       0.515   9.779  20.520  0.00  0.00    +0.000 A 
ATOM      6  C   UNL     1       0.378  10.132  21.856  0.00  0.00    +0.000 A 
ATOM      7  C   UNL     1      -0.547  11.089  22.208  0.00  0.00    +0.000 A 
ATOM      8  C   UNL     1      -1.351  11.694  21.275  0.00  0.00    +0.000 A 
ATOM      9  C   UNL     1      -1.265  11.374  19.943  0.00  0.00    +0.000 A 
ATOM     10  C   UNL     1      -0.308  10.414  19.552  0.00  0.00    +0.000 A 
ATOM     11  O   UNL     1      -2.193  12.607  21.824  0.00  0.00    +0.000 OA
ATOM     12  C   UNL     1      -1.760  12.577  23.199  0.00  0.00    +0.000 C 
ATOM     13  O   UNL     1      -0.779  11.552  23.465  0.00  0.00    +0.000 OA
ENDROOT
BRANCH   3  14
ATOM     14  C   UNL     1       2.527   7.399  18.633  0.00  0.00    +0.000 A 
ATOM     15  C   UNL     1       3.512   7.521  17.615  0.00  0.00    +0.000 A 
ATOM     16  C   UNL     1       4.450   6.512  17.369  0.00  0.00    +0.000 A 
ATOM     17  C   UNL     1       4.397   5.393  18.164  0.00  0.00    +0.000 A 
ATOM     18  C   UNL     1       3.440   5.241  19.140  0.00  0.00    +0.000 A 
ATOM     19  C   UNL     1       2.489   6.210  19.385  0.00  0.00    +0.000 A 
ATOM     20  O   UNL     1       3.577   4.068  19.815  0.00  0.00    +0.000 OA
ATOM     21  C   UNL     1       4.849   3.627  19.302  0.00  0.00    +0.000 C 
ATOM     22  O   UNL     1       5.255   4.339  18.114  0.00  0.00    +0.000 OA
ENDBRANCH   3  14
BRANCH   1  23
ATOM     23  O   UNL     1      -0.884  10.619  17.237  0.00  0.00    +0.000 OA
ATOM     24  H   UNL     1      -1.416  11.335  17.624  0.00  0.00    +0.000 HD
ENDBRANCH   1  23
TORSDOF 2
ENDMDL
