MODEL 1
REMARK VINA RESULT:      -7.3      0.000      0.000
REMARK  Name = 
REMARK  9 active torsions:
REMARK  status: ('A' for Active; 'I' for Inactive)
REMARK    1  A    between atoms: C_1  and  O_2
REMARK    2  A    between atoms: O_2  and  C_3
REMARK    3  A    between atoms: C_6  and  C_7
REMARK    4  A    between atoms: C_8  and  C_9
REMARK    5  A    between atoms: C_9  and  C_11
REMARK    6  A    between atoms: C_20  and  O_21
REMARK    7  A    between atoms: O_21  and  C_22
REMARK    8  A    between atoms: C_23  and  O_24
REMARK    9  A    between atoms: O_24  and  C_25
REMARK                            x       y       z     vdW  Elec       q    Type
REMARK                         _______ _______ _______ _____ _____    ______ ____
ROOT
ATOM      1  C   UNL     1       2.895   7.939  17.759  0.00  0.00    +0.000 C 
ATOM      2  C   UNL     1       1.790   8.486  18.287  0.00  0.00    +0.000 C 
ENDROOT
BRANCH   1   6
ATOM      3  C   UNL     1       3.553   3.697  17.651  0.00  0.00    +0.000 A 
ATOM      4  C   UNL     1       2.429   4.251  18.288  0.00  0.00    +0.000 A 
ATOM      5  C   UNL     1       2.235   5.631  18.327  0.00  0.00    +0.000 A 
ATOM      6  C   UNL     1       3.184   6.484  17.778  0.00  0.00    +0.000 A 
ATOM      7  C   UNL     1       4.375   5.951  17.221  0.00  0.00    +0.000 A 
ATOM      8  C   UNL     1       4.579   4.541  17.180  0.00  0.00    +0.000 A 
BRANCH   3  10
ATOM      9  C   UNL     1       3.633   1.595  18.729  0.00  0.00    +0.000 C 
ATOM     10  O   UNL     1       3.644   2.334  17.502  0.00  0.00    +0.000 OA
ENDBRANCH   3  10
BRANCH   7  11
ATOM     11  O   UNL     1       5.224   6.921  16.735  0.00  0.00    +0.000 OA
ATOM     12  C   UNL     1       6.483   7.148  17.347  0.00  0.00    +0.000 C 
ENDBRANCH   7  11
BRANCH   8  13
ATOM     13  O   UNL     1       5.784   4.137  16.675  0.00  0.00    +0.000 OA
ATOM     14  C   UNL     1       6.005   3.870  15.304  0.00  0.00    +0.000 C 
ENDBRANCH   8  13
ENDBRANCH   1   6
BRANCH   2  15
ATOM     15  C   UNL     1       1.562   9.970  18.213  0.00  0.00    +0.000 C 
ATOM     16  O   UNL     1       2.464  10.745  17.941  0.00  0.00    +0.000 OA
BRANCH  15  17
ATOM     17  C   UNL     1       0.159  10.451  18.426  0.00  0.00    +0.000 A 
ATOM     18  C   UNL     1      -0.855   9.901  17.621  0.00  0.00    +0.000 A 
ATOM     19  C   UNL     1      -2.173  10.328  17.745  0.00  0.00    +0.000 A 
ATOM     20  F   UNL     1      -3.101   9.772  16.953  0.00  0.00    +0.000 F 
ATOM     21  C   UNL     1      -2.520  11.313  18.664  0.00  0.00    +0.000 A 
ATOM     22 CL   UNL     1      -4.152  11.832  18.817  0.00  0.00    +0.000 Cl
ATOM     23  C   UNL     1      -1.530  11.886  19.458  0.00  0.00    +0.000 A 
ATOM     24  C   UNL     1      -0.191  11.468  19.336  0.00  0.00    +0.000 A 
ATOM     25 CL   UNL     1       0.946  12.254  20.369  0.00  0.00    +0.000 Cl
ENDBRANCH  15  17
ENDBRANCH   2  15
TORSDOF 6
ENDMDL
MODEL 2
REMARK VINA RESULT:      -7.3      1.546      2.677
REMARK  Name = 
REMARK  9 active torsions:
REMARK  status: ('A' for Active; 'I' for Inactive)
REMARK    1  A    between atoms: C_1  and  O_2
REMARK    2  A    between atoms: O_2  and  C_3
REMARK    3  A    between atoms: C_6  and  C_7
REMARK    4  A    between atoms: C_8  and  C_9
REMARK    5  A    between atoms: C_9  and  C_11
REMARK    6  A    between atoms: C_20  and  O_21
REMARK    7  A    between atoms: O_21  and  C_22
REMARK    8  A    between atoms: C_23  and  O_24
REMARK    9  A    between atoms: O_24  and  C_25
REMARK                            x       y       z     vdW  Elec       q    Type
REMARK                         _______ _______ _______ _____ _____    ______ ____
ROOT
ATOM      1  C   UNL     1       2.031   7.919  19.035  0.00  0.00    +0.000 C 
ATOM      2  C   UNL     1       1.513   9.006  18.444  0.00  0.00    +0.000 C 
ENDROOT
BRANCH   1   6
ATOM      3  C   UNL     1       4.678   5.129  17.124  0.00  0.00    +0.000 A 
ATOM      4  C   UNL     1       4.669   6.492  16.778  0.00  0.00    +0.000 A 
ATOM      5  C   UNL     1       3.795   7.383  17.396  0.00  0.00    +0.000 A 
ATOM      6  C   UNL     1       2.878   6.924  18.334  0.00  0.00    +0.000 A 
ATOM      7  C   UNL     1       2.801   5.538  18.625  0.00  0.00    +0.000 A 
ATOM      8  C   UNL     1       3.691   4.622  17.994  0.00  0.00    +0.000 A 
BRANCH   3  10
ATOM      9  C   UNL     1       6.990   4.748  16.819  0.00  0.00    +0.000 C 
ATOM     10  O   UNL     1       5.645   4.304  16.605  0.00  0.00    +0.000 OA
ENDBRANCH   3  10
BRANCH   7  11
ATOM     11  O   UNL     1       1.833   5.236  19.559  0.00  0.00    +0.000 OA
ATOM     12  C   UNL     1       2.196   4.746  20.839  0.00  0.00    +0.000 C 
ENDBRANCH   7  11
BRANCH   8  13
ATOM     13  O   UNL     1       3.493   3.304  18.302  0.00  0.00    +0.000 OA
ATOM     14  C   UNL     1       2.630   2.454  17.571  0.00  0.00    +0.000 C 
ENDBRANCH   8  13
ENDBRANCH   1   6
BRANCH   2  15
ATOM     15  C   UNL     1       0.676   9.977  19.229  0.00  0.00    +0.000 C 
ATOM     16  O   UNL     1       1.079  10.482  20.262  0.00  0.00    +0.000 OA
BRANCH  15  17
ATOM     17  C   UNL     1      -0.657  10.345  18.649  0.00  0.00    +0.000 A 
ATOM     18  C   UNL     1      -1.068   9.688  17.476  0.00  0.00    +0.000 A 
ATOM     19  C   UNL     1      -2.278  10.006  16.868  0.00  0.00    +0.000 A 
ATOM     20  F   UNL     1      -2.622   9.350  15.750  0.00  0.00    +0.000 F 
ATOM     21  C   UNL     1      -3.108  10.986  17.402  0.00  0.00    +0.000 A 
ATOM     22 CL   UNL     1      -4.606  11.371  16.650  0.00  0.00    +0.000 Cl
ATOM     23  C   UNL     1      -2.713  11.664  18.552  0.00  0.00    +0.000 A 
ATOM     24  C   UNL     1      -1.486  11.356  19.172  0.00  0.00    +0.000 A 
ATOM     25 CL   UNL     1      -1.102  12.266  20.587  0.00  0.00    +0.000 Cl
ENDBRANCH  15  17
ENDBRANCH   2  15
TORSDOF 6
ENDMDL
MODEL 3
REMARK VINA RESULT:      -7.1      4.427      8.416
REMARK  Name = 
REMARK  9 active torsions:
REMARK  status: ('A' for Active; 'I' for Inactive)
REMARK    1  A    between atoms: C_1  and  O_2
REMARK    2  A    between atoms: O_2  and  C_3
REMARK    3  A    between atoms: C_6  and  C_7
REMARK    4  A    between atoms: C_8  and  C_9
REMARK    5  A    between atoms: C_9  and  C_11
REMARK    6  A    between atoms: C_20  and  O_21
REMARK    7  A    between atoms: O_21  and  C_22
REMARK    8  A    between atoms: C_23  and  O_24
REMARK    9  A    between atoms: O_24  and  C_25
REMARK                            x       y       z     vdW  Elec       q    Type
REMARK                         _______ _______ _______ _____ _____    ______ ____
ROOT
ATOM      1  C   UNL     1       3.196   6.194  18.042  0.00  0.00    +0.000 C 
ATOM      2  C   UNL     1       4.161   5.546  18.711  0.00  0.00    +0.000 C 
ENDROOT
BRANCH   1   6
ATOM      3  C   UNL     1       0.993   9.627  19.382  0.00  0.00    +0.000 A 
ATOM      4  C   UNL     1       1.663   9.619  18.146  0.00  0.00    +0.000 A 
ATOM      5  C   UNL     1       2.385   8.502  17.730  0.00  0.00    +0.000 A 
ATOM      6  C   UNL     1       2.497   7.394  18.560  0.00  0.00    +0.000 A 
ATOM      7  C   UNL     1       1.914   7.420  19.853  0.00  0.00    +0.000 A 
ATOM      8  C   UNL     1       1.176   8.560  20.285  0.00  0.00    +0.000 A 
BRANCH   3  10
ATOM      9  C   UNL     1       0.500  11.915  19.050  0.00  0.00    +0.000 C 
ATOM     10  O   UNL     1       0.172  10.682  19.701  0.00  0.00    +0.000 OA
ENDBRANCH   3  10
BRANCH   7  11
ATOM     11  O   UNL     1       2.125   6.258  20.563  0.00  0.00    +0.000 OA
ATOM     12  C   UNL     1       1.161   5.218  20.544  0.00  0.00    +0.000 C 
ENDBRANCH   7  11
BRANCH   8  13
ATOM     13  O   UNL     1       0.706   8.504  21.568  0.00  0.00    +0.000 OA
ATOM     14  C   UNL     1       1.216   9.300  22.620  0.00  0.00    +0.000 C 
ENDBRANCH   8  13
ENDBRANCH   1   6
BRANCH   2  15
ATOM     15  C   UNL     1       4.834   4.344  18.109  0.00  0.00    +0.000 C 
ATOM     16  O   UNL     1       4.737   3.236  18.610  0.00  0.00    +0.000 OA
BRANCH  15  17
ATOM     17  C   UNL     1       5.578   4.556  16.826  0.00  0.00    +0.000 A 
ATOM     18  C   UNL     1       4.949   4.170  15.629  0.00  0.00    +0.000 A 
ATOM     19  C   UNL     1       5.598   4.309  14.405  0.00  0.00    +0.000 A 
ATOM     20  F   UNL     1       4.953   3.926  13.295  0.00  0.00    +0.000 F 
ATOM     21  C   UNL     1       6.887   4.827  14.338  0.00  0.00    +0.000 A 
ATOM     22 CL   UNL     1       7.682   5.003  12.823  0.00  0.00    +0.000 Cl
ATOM     23  C   UNL     1       7.538   5.197  15.512  0.00  0.00    +0.000 A 
ATOM     24  C   UNL     1       6.894   5.054  16.757  0.00  0.00    +0.000 A 
ATOM     25 CL   UNL     1       7.802   5.541  18.141  0.00  0.00    +0.000 Cl
ENDBRANCH  15  17
ENDBRANCH   2  15
TORSDOF 6
ENDMDL
MODEL 4
REMARK VINA RESULT:      -7.0      2.608      3.947
REMARK  Name = 
REMARK  9 active torsions:
REMARK  status: ('A' for Active; 'I' for Inactive)
REMARK    1  A    between atoms: C_1  and  O_2
REMARK    2  A    between atoms: O_2  and  C_3
REMARK    3  A    between atoms: C_6  and  C_7
REMARK    4  A    between atoms: C_8  and  C_9
REMARK    5  A    between atoms: C_9  and  C_11
REMARK    6  A    between atoms: C_20  and  O_21
REMARK    7  A    between atoms: O_21  and  C_22
REMARK    8  A    between atoms: C_23  and  O_24
REMARK    9  A    between atoms: O_24  and  C_25
REMARK                            x       y       z     vdW  Elec       q    Type
REMARK                         _______ _______ _______ _____ _____    ______ ____
ROOT
ATOM      1  C   UNL     1       2.129   7.833  18.316  0.00  0.00    +0.000 C 
ATOM      2  C   UNL     1       2.052   9.038  17.732  0.00  0.00    +0.000 C 
ENDROOT
BRANCH   1   6
ATOM      3  C   UNL     1       5.288   5.038  17.509  0.00  0.00    +0.000 A 
ATOM      4  C   UNL     1       5.275   6.320  16.933  0.00  0.00    +0.000 A 
ATOM      5  C   UNL     1       4.236   7.212  17.193  0.00  0.00    +0.000 A 
ATOM      6  C   UNL     1       3.166   6.824  17.989  0.00  0.00    +0.000 A 
ATOM      7  C   UNL     1       3.108   5.501  18.497  0.00  0.00    +0.000 A 
ATOM      8  C   UNL     1       4.167   4.584  18.233  0.00  0.00    +0.000 A 
BRANCH   3  10
ATOM      9  C   UNL     1       7.608   4.782  17.875  0.00  0.00    +0.000 C 
ATOM     10  O   UNL     1       6.392   4.236  17.352  0.00  0.00    +0.000 OA
ENDBRANCH   3  10
BRANCH   7  11
ATOM     11  O   UNL     1       1.980   5.262  19.252  0.00  0.00    +0.000 OA
ATOM     12  C   UNL     1       2.070   5.133  20.661  0.00  0.00    +0.000 C 
ENDBRANCH   7  11
BRANCH   8  13
ATOM     13  O   UNL     1       3.984   3.320  18.721  0.00  0.00    +0.000 OA
ATOM     14  C   UNL     1       3.408   2.269  17.969  0.00  0.00    +0.000 C 
ENDBRANCH   8  13
ENDBRANCH   1   6
BRANCH   2  15
ATOM     15  C   UNL     1       0.979  10.013  18.130  0.00  0.00    +0.000 C 
ATOM     16  O   UNL     1      -0.204   9.771  17.957  0.00  0.00    +0.000 OA
BRANCH  15  17
ATOM     17  C   UNL     1       1.426  11.272  18.810  0.00  0.00    +0.000 A 
ATOM     18  C   UNL     1       2.299  12.123  18.109  0.00  0.00    +0.000 A 
ATOM     19  C   UNL     1       2.777  13.291  18.696  0.00  0.00    +0.000 A 
ATOM     20  F   UNL     1       3.607  14.067  17.984  0.00  0.00    +0.000 F 
ATOM     21  C   UNL     1       2.410  13.641  19.990  0.00  0.00    +0.000 A 
ATOM     22 CL   UNL     1       2.999  15.089  20.707  0.00  0.00    +0.000 Cl
ATOM     23  C   UNL     1       1.562  12.803  20.711  0.00  0.00    +0.000 A 
ATOM     24  C   UNL     1       1.078  11.614  20.131  0.00  0.00    +0.000 A 
ATOM     25 CL   UNL     1       0.040  10.656  21.122  0.00  0.00    +0.000 Cl
ENDBRANCH  15  17
ENDBRANCH   2  15
TORSDOF 6
ENDMDL
MODEL 5
REMARK VINA RESULT:      -7.0      4.374      8.900
REMARK  Name = 
REMARK  9 active torsions:
REMARK  status: ('A' for Active; 'I' for Inactive)
REMARK    1  A    between atoms: C_1  and  O_2
REMARK    2  A    between atoms: O_2  and  C_3
REMARK    3  A    between atoms: C_6  and  C_7
REMARK    4  A    between atoms: C_8  and  C_9
REMARK    5  A    between atoms: C_9  and  C_11
REMARK    6  A    between atoms: C_20  and  O_21
REMARK    7  A    between atoms: O_21  and  C_22
REMARK    8  A    between atoms: C_23  and  O_24
REMARK    9  A    between atoms: O_24  and  C_25
REMARK                            x       y       z     vdW  Elec       q    Type
REMARK                         _______ _______ _______ _____ _____    ______ ____
ROOT
ATOM      1  C   UNL     1       1.502   8.243  20.427  0.00  0.00    +0.000 C 
ATOM      2  C   UNL     1       2.041   7.492  19.456  0.00  0.00    +0.000 C 
ENDROOT
BRANCH   1   6
ATOM      3  C   UNL     1      -0.158  12.145  19.749  0.00  0.00    +0.000 A 
ATOM      4  C   UNL     1       0.216  11.309  18.683  0.00  0.00    +0.000 A 
ATOM      5  C   UNL     1       0.766  10.050  18.918  0.00  0.00    +0.000 A 
ATOM      6  C   UNL     1       1.002   9.624  20.219  0.00  0.00    +0.000 A 
ATOM      7  C   UNL     1       0.727  10.492  21.307  0.00  0.00    +0.000 A 
ATOM      8  C   UNL     1       0.166  11.780  21.072  0.00  0.00    +0.000 A 
BRANCH   3  10
ATOM      9  C   UNL     1      -0.121  14.240  18.655  0.00  0.00    +0.000 C 
ATOM     10  O   UNL     1      -0.829  13.316  19.490  0.00  0.00    +0.000 OA
ENDBRANCH   3  10
BRANCH   7  11
ATOM     11  O   UNL     1       1.030   9.935  22.531  0.00  0.00    +0.000 OA
ATOM     12  C   UNL     1       0.002   9.430  23.366  0.00  0.00    +0.000 C 
ENDBRANCH   7  11
BRANCH   8  13
ATOM     13  O   UNL     1      -0.006  12.557  22.184  0.00  0.00    +0.000 OA
ATOM     14  C   UNL     1      -1.258  12.753  22.813  0.00  0.00    +0.000 C 
ENDBRANCH   8  13
ENDBRANCH   1   6
BRANCH   2  15
ATOM     15  C   UNL     1       2.510   6.092  19.744  0.00  0.00    +0.000 C 
ATOM     16  O   UNL     1       2.193   5.507  20.766  0.00  0.00    +0.000 OA
BRANCH  15  17
ATOM     17  C   UNL     1       3.337   5.424  18.688  0.00  0.00    +0.000 A 
ATOM     18  C   UNL     1       4.612   5.953  18.418  0.00  0.00    +0.000 A 
ATOM     19  C   UNL     1       5.418   5.400  17.427  0.00  0.00    +0.000 A 
ATOM     20  F   UNL     1       6.624   5.943  17.210  0.00  0.00    +0.000 F 
ATOM     21  C   UNL     1       4.979   4.316  16.675  0.00  0.00    +0.000 A 
ATOM     22 CL   UNL     1       5.981   3.633  15.456  0.00  0.00    +0.000 Cl
ATOM     23  C   UNL     1       3.712   3.787  16.911  0.00  0.00    +0.000 A 
ATOM     24  C   UNL     1       2.885   4.343  17.907  0.00  0.00    +0.000 A 
ATOM     25 CL   UNL     1       1.336   3.608  18.103  0.00  0.00    +0.000 Cl
ENDBRANCH  15  17
ENDBRANCH   2  15
TORSDOF 6
ENDMDL
MODEL 6
REMARK VINA RESULT:      -7.0      2.491      3.527
REMARK  Name = 
REMARK  9 active torsions:
REMARK  status: ('A' for Active; 'I' for Inactive)
REMARK    1  A    between atoms: C_1  and  O_2
REMARK    2  A    between atoms: O_2  and  C_3
REMARK    3  A    between atoms: C_6  and  C_7
REMARK    4  A    between atoms: C_8  and  C_9
REMARK    5  A    between atoms: C_9  and  C_11
REMARK    6  A    between atoms: C_20  and  O_21
REMARK    7  A    between atoms: O_21  and  C_22
REMARK    8  A    between atoms: C_23  and  O_24
REMARK    9  A    between atoms: O_24  and  C_25
REMARK                            x       y       z     vdW  Elec       q    Type
REMARK                         _______ _______ _______ _____ _____    ______ ____
ROOT
ATOM      1  C   UNL     1       2.059   7.573  17.924  0.00  0.00    +0.000 C 
ATOM      2  C   UNL     1       1.898   8.707  18.622  0.00  0.00    +0.000 C 
ENDROOT
BRANCH   1   6
ATOM      3  C   UNL     1       5.611   5.208  18.400  0.00  0.00    +0.000 A 
ATOM      4  C   UNL     1       5.592   6.350  17.582  0.00  0.00    +0.000 A 
ATOM      5  C   UNL     1       4.429   7.101  17.426  0.00  0.00    +0.000 A 
ATOM      6  C   UNL     1       3.250   6.697  18.040  0.00  0.00    +0.000 A 
ATOM      7  C   UNL     1       3.222   5.491  18.788  0.00  0.00    +0.000 A 
ATOM      8  C   UNL     1       4.408   4.719  18.949  0.00  0.00    +0.000 A 
BRANCH   3  10
ATOM      9  C   UNL     1       7.696   4.511  17.532  0.00  0.00    +0.000 C 
ATOM     10  O   UNL     1       6.804   4.573  18.651  0.00  0.00    +0.000 OA
ENDBRANCH   3  10
BRANCH   7  11
ATOM     11  O   UNL     1       1.980   5.216  19.319  0.00  0.00    +0.000 OA
ATOM     12  C   UNL     1       1.738   5.381  20.706  0.00  0.00    +0.000 C 
ENDBRANCH   7  11
BRANCH   8  13
ATOM     13  O   UNL     1       4.257   3.548  19.639  0.00  0.00    +0.000 OA
ATOM     14  C   UNL     1       3.721   2.370  19.067  0.00  0.00    +0.000 C 
ENDBRANCH   8  13
ENDBRANCH   1   6
BRANCH   2  15
ATOM     15  C   UNL     1       0.652   9.533  18.459  0.00  0.00    +0.000 C 
ATOM     16  O   UNL     1       0.058   9.596  17.396  0.00  0.00    +0.000 OA
BRANCH  15  17
ATOM     17  C   UNL     1       0.136  10.229  19.682  0.00  0.00    +0.000 A 
ATOM     18  C   UNL     1       0.048   9.486  20.873  0.00  0.00    +0.000 A 
ATOM     19  C   UNL     1      -0.453  10.062  22.036  0.00  0.00    +0.000 A 
ATOM     20  F   UNL     1      -0.515   9.310  23.144  0.00  0.00    +0.000 F 
ATOM     21  C   UNL     1      -0.887  11.383  22.048  0.00  0.00    +0.000 A 
ATOM     22 CL   UNL     1      -1.500  12.092  23.490  0.00  0.00    +0.000 Cl
ATOM     23  C   UNL     1      -0.828  12.133  20.875  0.00  0.00    +0.000 A 
ATOM     24  C   UNL     1      -0.330  11.558  19.690  0.00  0.00    +0.000 A 
ATOM     25 CL   UNL     1      -0.311  12.582  18.300  0.00  0.00    +0.000 Cl
ENDBRANCH  15  17
ENDBRANCH   2  15
TORSDOF 6
ENDMDL
MODEL 7
REMARK VINA RESULT:      -7.0      1.330      1.488
REMARK  Name = 
REMARK  9 active torsions:
REMARK  status: ('A' for Active; 'I' for Inactive)
REMARK    1  A    between atoms: C_1  and  O_2
REMARK    2  A    between atoms: O_2  and  C_3
REMARK    3  A    between atoms: C_6  and  C_7
REMARK    4  A    between atoms: C_8  and  C_9
REMARK    5  A    between atoms: C_9  and  C_11
REMARK    6  A    between atoms: C_20  and  O_21
REMARK    7  A    between atoms: O_21  and  C_22
REMARK    8  A    between atoms: C_23  and  O_24
REMARK    9  A    between atoms: O_24  and  C_25
REMARK                            x       y       z     vdW  Elec       q    Type
REMARK                         _______ _______ _______ _____ _____    ______ ____
ROOT
ATOM      1  C   UNL     1       2.145   8.274  18.535  0.00  0.00    +0.000 C 
ATOM      2  C   UNL     1       1.321   9.069  19.233  0.00  0.00    +0.000 C 
ENDROOT
BRANCH   1   6
ATOM      3  C   UNL     1       3.137   4.283  19.773  0.00  0.00    +0.000 A 
ATOM      4  C   UNL     1       2.250   5.084  20.513  0.00  0.00    +0.000 A 
ATOM      5  C   UNL     1       1.948   6.383  20.107  0.00  0.00    +0.000 A 
ATOM      6  C   UNL     1       2.564   6.924  18.985  0.00  0.00    +0.000 A 
ATOM      7  C   UNL     1       3.538   6.170  18.283  0.00  0.00    +0.000 A 
ATOM      8  C   UNL     1       3.852   4.842  18.694  0.00  0.00    +0.000 A 
BRANCH   3  10
ATOM      9  C   UNL     1       2.411   2.056  19.455  0.00  0.00    +0.000 C 
ATOM     10  O   UNL     1       3.303   2.963  20.114  0.00  0.00    +0.000 OA
ENDBRANCH   3  10
BRANCH   7  11
ATOM     11  O   UNL     1       4.071   6.847  17.207  0.00  0.00    +0.000 OA
ATOM     12  C   UNL     1       5.463   7.111  17.141  0.00  0.00    +0.000 C 
ENDBRANCH   7  11
BRANCH   8  13
ATOM     13  O   UNL     1       4.845   4.226  17.984  0.00  0.00    +0.000 OA
ATOM     14  C   UNL     1       4.619   3.519  16.780  0.00  0.00    +0.000 C 
ENDBRANCH   8  13
ENDBRANCH   1   6
BRANCH   2  15
ATOM     15  C   UNL     1       0.930  10.420  18.700  0.00  0.00    +0.000 C 
ATOM     16  O   UNL     1       1.765  11.258  18.402  0.00  0.00    +0.000 OA
BRANCH  15  17
ATOM     17  C   UNL     1      -0.533  10.669  18.490  0.00  0.00    +0.000 A 
ATOM     18  C   UNL     1      -1.188   9.932  17.488  0.00  0.00    +0.000 A 
ATOM     19  C   UNL     1      -2.539  10.138  17.221  0.00  0.00    +0.000 A 
ATOM     20  F   UNL     1      -3.115   9.409  16.254  0.00  0.00    +0.000 F 
ATOM     21  C   UNL     1      -3.270  11.082  17.933  0.00  0.00    +0.000 A 
ATOM     22 CL   UNL     1      -4.939  11.328  17.602  0.00  0.00    +0.000 Cl
ATOM     23  C   UNL     1      -2.637  11.838  18.917  0.00  0.00    +0.000 A 
ATOM     24  C   UNL     1      -1.269  11.643  19.191  0.00  0.00    +0.000 A 
ATOM     25 CL   UNL     1      -0.595  12.642  20.427  0.00  0.00    +0.000 Cl
ENDBRANCH  15  17
ENDBRANCH   2  15
TORSDOF 6
ENDMDL
MODEL 8
REMARK VINA RESULT:      -6.9      4.150      8.285
REMARK  Name = 
REMARK  9 active torsions:
REMARK  status: ('A' for Active; 'I' for Inactive)
REMARK    1  A    between atoms: C_1  and  O_2
REMARK    2  A    between atoms: O_2  and  C_3
REMARK    3  A    between atoms: C_6  and  C_7
REMARK    4  A    between atoms: C_8  and  C_9
REMARK    5  A    between atoms: C_9  and  C_11
REMARK    6  A    between atoms: C_20  and  O_21
REMARK    7  A    between atoms: O_21  and  C_22
REMARK    8  A    between atoms: C_23  and  O_24
REMARK    9  A    between atoms: O_24  and  C_25
REMARK                            x       y       z     vdW  Elec       q    Type
REMARK                         _______ _______ _______ _____ _____    ______ ____
ROOT
ATOM      1  C   UNL     1       1.752   7.500  20.878  0.00  0.00    +0.000 C 
ATOM      2  C   UNL     1       1.286   6.245  20.793  0.00  0.00    +0.000 C 
ENDROOT
BRANCH   1   6
ATOM      3  C   UNL     1      -0.589  11.067  21.363  0.00  0.00    +0.000 A 
ATOM      4  C   UNL     1      -0.360  10.186  22.434  0.00  0.00    +0.000 A 
ATOM      5  C   UNL     1       0.390   9.025  22.259  0.00  0.00    +0.000 A 
ATOM      6  C   UNL     1       0.882   8.695  21.002  0.00  0.00    +0.000 A 
ATOM      7  C   UNL     1       0.577   9.517  19.887  0.00  0.00    +0.000 A 
ATOM      8  C   UNL     1      -0.191  10.705  20.060  0.00  0.00    +0.000 A 
BRANCH   3  10
ATOM      9  C   UNL     1      -2.177  12.254  22.650  0.00  0.00    +0.000 C 
ATOM     10  O   UNL     1      -1.206  12.272  21.597  0.00  0.00    +0.000 OA
ENDBRANCH   3  10
BRANCH   7  11
ATOM     11  O   UNL     1       1.118   9.050  18.709  0.00  0.00    +0.000 OA
ATOM     12  C   UNL     1       2.096   9.808  18.016  0.00  0.00    +0.000 C 
ENDBRANCH   7  11
BRANCH   8  13
ATOM     13  O   UNL     1      -0.475  11.393  18.913  0.00  0.00    +0.000 OA
ATOM     14  C   UNL     1      -1.695  11.264  18.208  0.00  0.00    +0.000 C 
ENDBRANCH   8  13
ENDBRANCH   1   6
BRANCH   2  15
ATOM     15  C   UNL     1       2.236   5.084  20.686  0.00  0.00    +0.000 C 
ATOM     16  O   UNL     1       2.360   4.271  21.586  0.00  0.00    +0.000 OA
BRANCH  15  17
ATOM     17  C   UNL     1       2.979   4.934  19.393  0.00  0.00    +0.000 A 
ATOM     18  C   UNL     1       4.146   5.698  19.212  0.00  0.00    +0.000 A 
ATOM     19  C   UNL     1       4.864   5.631  18.022  0.00  0.00    +0.000 A 
ATOM     20  F   UNL     1       5.969   6.381  17.902  0.00  0.00    +0.000 F 
ATOM     21  C   UNL     1       4.443   4.812  16.981  0.00  0.00    +0.000 A 
ATOM     22 CL   UNL     1       5.338   4.728  15.515  0.00  0.00    +0.000 Cl
ATOM     23  C   UNL     1       3.279   4.061  17.129  0.00  0.00    +0.000 A 
ATOM     24  C   UNL     1       2.539   4.127  18.326  0.00  0.00    +0.000 A 
ATOM     25 CL   UNL     1       1.114   3.156  18.390  0.00  0.00    +0.000 Cl
ENDBRANCH  15  17
ENDBRANCH   2  15
TORSDOF 6
ENDMDL
MODEL 9
REMARK VINA RESULT:      -6.9      2.586      3.626
REMARK  Name = 
REMARK  9 active torsions:
REMARK  status: ('A' for Active; 'I' for Inactive)
REMARK    1  A    between atoms: C_1  and  O_2
REMARK    2  A    between atoms: O_2  and  C_3
REMARK    3  A    between atoms: C_6  and  C_7
REMARK    4  A    between atoms: C_8  and  C_9
REMARK    5  A    between atoms: C_9  and  C_11
REMARK    6  A    between atoms: C_20  and  O_21
REMARK    7  A    between atoms: O_21  and  C_22
REMARK    8  A    between atoms: C_23  and  O_24
REMARK    9  A    between atoms: O_24  and  C_25
REMARK                            x       y       z     vdW  Elec       q    Type
REMARK                         _______ _______ _______ _____ _____    ______ ____
ROOT
ATOM      1  C   UNL     1       2.031   7.697  17.951  0.00  0.00    +0.000 C 
ATOM      2  C   UNL     1       1.846   8.789  18.707  0.00  0.00    +0.000 C 
ENDROOT
BRANCH   1   6
ATOM      3  C   UNL     1       5.547   5.280  18.435  0.00  0.00    +0.000 A 
ATOM      4  C   UNL     1       5.545   6.419  17.612  0.00  0.00    +0.000 A 
ATOM      5  C   UNL     1       4.393   7.187  17.454  0.00  0.00    +0.000 A 
ATOM      6  C   UNL     1       3.209   6.803  18.070  0.00  0.00    +0.000 A 
ATOM      7  C   UNL     1       3.162   5.601  18.823  0.00  0.00    +0.000 A 
ATOM      8  C   UNL     1       4.337   4.812  18.987  0.00  0.00    +0.000 A 
BRANCH   3  10
ATOM      9  C   UNL     1       7.625   4.557  17.572  0.00  0.00    +0.000 C 
ATOM     10  O   UNL     1       6.730   4.627  18.688  0.00  0.00    +0.000 OA
ENDBRANCH   3  10
BRANCH   7  11
ATOM     11  O   UNL     1       1.917   5.347  19.356  0.00  0.00    +0.000 OA
ATOM     12  C   UNL     1       1.704   5.423  20.755  0.00  0.00    +0.000 C 
ENDBRANCH   7  11
BRANCH   8  13
ATOM     13  O   UNL     1       4.168   3.646  19.681  0.00  0.00    +0.000 OA
ATOM     14  C   UNL     1       3.878   2.406  19.064  0.00  0.00    +0.000 C 
ENDBRANCH   8  13
ENDBRANCH   1   6
BRANCH   2  15
ATOM     15  C   UNL     1       0.615   9.637  18.536  0.00  0.00    +0.000 C 
ATOM     16  O   UNL     1      -0.093   9.546  17.547  0.00  0.00    +0.000 OA
BRANCH  15  17
ATOM     17  C   UNL     1       0.262  10.555  19.666  0.00  0.00    +0.000 A 
ATOM     18  C   UNL     1       0.382  11.940  19.451  0.00  0.00    +0.000 A 
ATOM     19  C   UNL     1       0.102  12.846  20.469  0.00  0.00    +0.000 A 
ATOM     20  F   UNL     1       0.232  14.155  20.211  0.00  0.00    +0.000 F 
ATOM     21  C   UNL     1      -0.297  12.404  21.726  0.00  0.00    +0.000 A 
ATOM     22 CL   UNL     1      -0.648  13.529  22.979  0.00  0.00    +0.000 Cl
ATOM     23  C   UNL     1      -0.404  11.037  21.969  0.00  0.00    +0.000 A 
ATOM     24  C   UNL     1      -0.115  10.110  20.948  0.00  0.00    +0.000 A 
ATOM     25 CL   UNL     1      -0.277   8.444  21.369  0.00  0.00    +0.000 Cl
ENDBRANCH  15  17
ENDBRANCH   2  15
TORSDOF 6
ENDMDL
