MODEL 1
REMARK VINA RESULT:      -8.8      0.000      0.000
REMARK  Name = 
REMARK  6 active torsions:
REMARK  status: ('A' for Active; 'I' for Inactive)
REMARK    1  A    between atoms: C_2  and  C_4
REMARK    2  A    between atoms: C_10  and  N_11
REMARK    3  A    between atoms: C_12  and  C_14
REMARK    4  A    between atoms: C_18  and  N_19
REMARK    5  A    between atoms: N_19  and  S_20
REMARK    6  A    between atoms: S_20  and  C_23
REMARK                            x       y       z     vdW  Elec       q    Type
REMARK                         _______ _______ _______ _____ _____    ______ ____
ROOT
ATOM      1  N   UNL     1       2.429   7.174  19.427  0.00  0.00    +0.000 N 
ATOM      2  C   UNL     1       1.643   7.847  20.338  0.00  0.00    +0.000 C 
ATOM      3  O   UNL     1       1.396   7.424  21.461  0.00  0.00    +0.000 OA
ATOM      4  H   UNL     1       2.811   7.702  18.654  0.00  0.00    +0.000 HD
ENDROOT
BRANCH   1  11
ATOM      5  C   UNL     1       3.875   3.074  19.225  0.00  0.00    +0.000 C 
ATOM      6  C   UNL     1       3.464   2.964  17.734  0.00  0.00    +0.000 C 
ATOM      7  C   UNL     1       2.836   4.276  17.242  0.00  0.00    +0.000 C 
ATOM      8  C   UNL     1       3.862   5.410  17.396  0.00  0.00    +0.000 C 
ATOM      9  C   UNL     1       4.266   5.564  18.873  0.00  0.00    +0.000 C 
ATOM     10  C   UNL     1       4.890   4.237  19.361  0.00  0.00    +0.000 C 
ATOM     11  C   UNL     1       3.018   5.875  19.735  0.00  0.00    +0.000 C 
ATOM     12  C   UNL     1       1.984   4.737  19.569  0.00  0.00    +0.000 C 
ATOM     13  C   UNL     1       1.591   4.573  18.089  0.00  0.00    +0.000 C 
ATOM     14  C   UNL     1       2.615   3.417  20.058  0.00  0.00    +0.000 C 
BRANCH   5  16
ATOM     15  N   UNL     1       4.386   0.695  18.822  0.00  0.00    +0.000 N 
ATOM     16  C   UNL     1       4.484   1.746  19.684  0.00  0.00    +0.000 C 
ATOM     17  O   UNL     1       5.051   1.589  20.763  0.00  0.00    +0.000 OA
ATOM     18  H   UNL     1       4.791  -0.183  19.114  0.00  0.00    +0.000 HD
ATOM     19  H   UNL     1       3.930   0.744  17.921  0.00  0.00    +0.000 HD
ENDBRANCH   5  16
ENDBRANCH   1  11
BRANCH   2  20
ATOM     20  C   UNL     1       1.082   9.152  19.891  0.00  0.00    +0.000 A 
ATOM     21  C   UNL     1       1.447   9.636  18.628  0.00  0.00    +0.000 A 
ATOM     22  C   UNL     1       1.007  10.889  18.202  0.00  0.00    +0.000 A 
ATOM     23  C   UNL     1       0.202  11.661  19.038  0.00  0.00    +0.000 A 
ATOM     24  C   UNL     1      -0.157  11.184  20.298  0.00  0.00    +0.000 A 
ATOM     25  C   UNL     1       0.277   9.933  20.733  0.00  0.00    +0.000 A 
BRANCH  24  26
ATOM     26  N   UNL     1      -0.942  12.009  21.141  0.00  0.00    +0.000 N 
ATOM     27  H   UNL     1      -0.973  11.823  22.143  0.00  0.00    +0.000 HD
BRANCH  26  28
ATOM     28  S   UNL     1      -2.291  12.804  20.533  0.00  0.00    +0.000 S 
ATOM     29  O   UNL     1      -1.890  14.157  20.217  0.00  0.00    +0.000 OA
ATOM     30  O   UNL     1      -2.897  11.961  19.522  0.00  0.00    +0.000 OA
BRANCH  28  31
ATOM     31  C   UNL     1      -3.413  12.894  21.906  0.00  0.00    +0.000 A 
ATOM     32  C   UNL     1      -2.983  12.421  23.156  0.00  0.00    +0.000 A 
ATOM     33  C   UNL     1      -3.871  12.374  24.232  0.00  0.00    +0.000 A 
ATOM     34  C   UNL     1      -5.188  12.795  24.066  0.00  0.00    +0.000 A 
ATOM     35  C   UNL     1      -5.612  13.282  22.829  0.00  0.00    +0.000 A 
ATOM     36  C   UNL     1      -4.729  13.336  21.743  0.00  0.00    +0.000 A 
ATOM     37 CL   UNL     1      -5.349  14.003  20.276  0.00  0.00    +0.000 Cl
ENDBRANCH  28  31
ENDBRANCH  26  28
ENDBRANCH  24  26
ENDBRANCH   2  20
TORSDOF 6
ENDMDL
MODEL 2
REMARK VINA RESULT:      -8.8      1.758      1.977
REMARK  Name = 
REMARK  6 active torsions:
REMARK  status: ('A' for Active; 'I' for Inactive)
REMARK    1  A    between atoms: C_2  and  C_4
REMARK    2  A    between atoms: C_10  and  N_11
REMARK    3  A    between atoms: C_12  and  C_14
REMARK    4  A    between atoms: C_18  and  N_19
REMARK    5  A    between atoms: N_19  and  S_20
REMARK    6  A    between atoms: S_20  and  C_23
REMARK                            x       y       z     vdW  Elec       q    Type
REMARK                         _______ _______ _______ _____ _____    ______ ____
ROOT
ATOM      1  N   UNL     1       2.282   7.218  19.553  0.00  0.00    +0.000 N 
ATOM      2  C   UNL     1       1.609   7.906  20.541  0.00  0.00    +0.000 C 
ATOM      3  O   UNL     1       1.476   7.489  21.685  0.00  0.00    +0.000 OA
ATOM      4  H   UNL     1       2.588   7.738  18.742  0.00  0.00    +0.000 HD
ENDROOT
BRANCH   1  11
ATOM      5  C   UNL     1       3.898   3.200  19.124  0.00  0.00    +0.000 C 
ATOM      6  C   UNL     1       3.679   3.237  17.589  0.00  0.00    +0.000 C 
ATOM      7  C   UNL     1       3.067   4.577  17.156  0.00  0.00    +0.000 C 
ATOM      8  C   UNL     1       4.022   5.714  17.553  0.00  0.00    +0.000 C 
ATOM      9  C   UNL     1       4.233   5.722  19.078  0.00  0.00    +0.000 C 
ATOM     10  C   UNL     1       4.842   4.367  19.504  0.00  0.00    +0.000 C 
ATOM     11  C   UNL     1       2.878   5.909  19.801  0.00  0.00    +0.000 C 
ATOM     12  C   UNL     1       1.916   4.770  19.391  0.00  0.00    +0.000 C 
ATOM     13  C   UNL     1       1.716   4.752  17.864  0.00  0.00    +0.000 C 
ATOM     14  C   UNL     1       2.532   3.422  19.820  0.00  0.00    +0.000 C 
BRANCH   5  16
ATOM     15  N   UNL     1       4.297   0.812  18.657  0.00  0.00    +0.000 N 
ATOM     16  C   UNL     1       4.496   1.847  19.520  0.00  0.00    +0.000 C 
ATOM     17  O   UNL     1       5.138   1.657  20.550  0.00  0.00    +0.000 OA
ATOM     18  H   UNL     1       4.694  -0.083  18.907  0.00  0.00    +0.000 HD
ATOM     19  H   UNL     1       3.776   0.887  17.795  0.00  0.00    +0.000 HD
ENDBRANCH   5  16
ENDBRANCH   1  11
BRANCH   2  20
ATOM     20  C   UNL     1       1.027   9.220  20.152  0.00  0.00    +0.000 A 
ATOM     21  C   UNL     1       1.016   9.569  18.794  0.00  0.00    +0.000 A 
ATOM     22  C   UNL     1       0.552  10.822  18.395  0.00  0.00    +0.000 A 
ATOM     23  C   UNL     1       0.097  11.729  19.350  0.00  0.00    +0.000 A 
ATOM     24  C   UNL     1       0.112  11.387  20.702  0.00  0.00    +0.000 A 
ATOM     25  C   UNL     1       0.574  10.137  21.112  0.00  0.00    +0.000 A 
BRANCH  24  26
ATOM     26  N   UNL     1      -0.317  12.345  21.653  0.00  0.00    +0.000 N 
ATOM     27  H   UNL     1       0.373  12.883  22.175  0.00  0.00    +0.000 HD
BRANCH  26  28
ATOM     28  S   UNL     1      -1.800  12.170  22.424  0.00  0.00    +0.000 S 
ATOM     29  O   UNL     1      -2.827  12.257  21.411  0.00  0.00    +0.000 OA
ATOM     30  O   UNL     1      -1.723  11.016  23.297  0.00  0.00    +0.000 OA
BRANCH  28  31
ATOM     31  C   UNL     1      -1.944  13.614  23.446  0.00  0.00    +0.000 A 
ATOM     32  C   UNL     1      -0.924  14.577  23.396  0.00  0.00    +0.000 A 
ATOM     33  C   UNL     1      -0.948  15.670  24.264  0.00  0.00    +0.000 A 
ATOM     34  C   UNL     1      -1.984  15.806  25.184  0.00  0.00    +0.000 A 
ATOM     35  C   UNL     1      -3.008  14.858  25.224  0.00  0.00    +0.000 A 
ATOM     36  C   UNL     1      -2.996  13.759  24.356  0.00  0.00    +0.000 A 
ATOM     37 CL   UNL     1      -4.339  12.678  24.461  0.00  0.00    +0.000 Cl
ENDBRANCH  28  31
ENDBRANCH  26  28
ENDBRANCH  24  26
ENDBRANCH   2  20
TORSDOF 6
ENDMDL
MODEL 3
REMARK VINA RESULT:      -8.8      1.242      1.415
REMARK  Name = 
REMARK  6 active torsions:
REMARK  status: ('A' for Active; 'I' for Inactive)
REMARK    1  A    between atoms: C_2  and  C_4
REMARK    2  A    between atoms: C_10  and  N_11
REMARK    3  A    between atoms: C_12  and  C_14
REMARK    4  A    between atoms: C_18  and  N_19
REMARK    5  A    between atoms: N_19  and  S_20
REMARK    6  A    between atoms: S_20  and  C_23
REMARK                            x       y       z     vdW  Elec       q    Type
REMARK                         _______ _______ _______ _____ _____    ______ ____
ROOT
ATOM      1  N   UNL     1       2.337   7.080  19.396  0.00  0.00    +0.000 N 
ATOM      2  C   UNL     1       1.659   7.813  20.347  0.00  0.00    +0.000 C 
ATOM      3  O   UNL     1       1.540   7.460  21.514  0.00  0.00    +0.000 OA
ATOM      4  H   UNL     1       2.630   7.557  18.554  0.00  0.00    +0.000 HD
ENDROOT
BRANCH   1  11
ATOM      5  C   UNL     1       3.881   3.015  19.224  0.00  0.00    +0.000 C 
ATOM      6  C   UNL     1       3.479   2.886  17.732  0.00  0.00    +0.000 C 
ATOM      7  C   UNL     1       2.822   4.180  17.230  0.00  0.00    +0.000 C 
ATOM      8  C   UNL     1       3.820   5.339  17.381  0.00  0.00    +0.000 C 
ATOM      9  C   UNL     1       4.214   5.511  18.858  0.00  0.00    +0.000 C 
ATOM     10  C   UNL     1       4.868   4.202  19.356  0.00  0.00    +0.000 C 
ATOM     11  C   UNL     1       2.956   5.797  19.714  0.00  0.00    +0.000 C 
ATOM     12  C   UNL     1       1.949   4.634  19.551  0.00  0.00    +0.000 C 
ATOM     13  C   UNL     1       1.566   4.452  18.071  0.00  0.00    +0.000 C 
ATOM     14  C   UNL     1       2.610   3.333  20.050  0.00  0.00    +0.000 C 
BRANCH   5  16
ATOM     15  N   UNL     1       4.425   0.639  18.850  0.00  0.00    +0.000 N 
ATOM     16  C   UNL     1       4.521   1.705  19.693  0.00  0.00    +0.000 C 
ATOM     17  O   UNL     1       5.108   1.574  20.764  0.00  0.00    +0.000 OA
ATOM     18  H   UNL     1       4.849  -0.229  19.148  0.00  0.00    +0.000 HD
ATOM     19  H   UNL     1       3.953   0.665  17.956  0.00  0.00    +0.000 HD
ENDBRANCH   5  16
ENDBRANCH   1  11
BRANCH   2  20
ATOM     20  C   UNL     1       1.053   9.092  19.887  0.00  0.00    +0.000 A 
ATOM     21  C   UNL     1       1.593   9.717  18.755  0.00  0.00    +0.000 A 
ATOM     22  C   UNL     1       1.106  10.955  18.337  0.00  0.00    +0.000 A 
ATOM     23  C   UNL     1       0.079  11.572  19.049  0.00  0.00    +0.000 A 
ATOM     24  C   UNL     1      -0.455  10.956  20.180  0.00  0.00    +0.000 A 
ATOM     25  C   UNL     1       0.024   9.718  20.606  0.00  0.00    +0.000 A 
BRANCH  24  26
ATOM     26  N   UNL     1      -1.469  11.627  20.907  0.00  0.00    +0.000 N 
ATOM     27  H   UNL     1      -2.188  12.149  20.407  0.00  0.00    +0.000 HD
BRANCH  26  28
ATOM     28  S   UNL     1      -1.181  12.157  22.475  0.00  0.00    +0.000 S 
ATOM     29  O   UNL     1      -1.006  10.984  23.302  0.00  0.00    +0.000 OA
ATOM     30  O   UNL     1      -0.159  13.182  22.426  0.00  0.00    +0.000 OA
BRANCH  28  31
ATOM     31  C   UNL     1      -2.700  12.929  22.971  0.00  0.00    +0.000 A 
ATOM     32  C   UNL     1      -3.454  12.332  23.993  0.00  0.00    +0.000 A 
ATOM     33  C   UNL     1      -4.705  12.847  24.335  0.00  0.00    +0.000 A 
ATOM     34  C   UNL     1      -5.209  13.957  23.660  0.00  0.00    +0.000 A 
ATOM     35  C   UNL     1      -4.453  14.563  22.656  0.00  0.00    +0.000 A 
ATOM     36  C   UNL     1      -3.195  14.055  22.306  0.00  0.00    +0.000 A 
ATOM     37 CL   UNL     1      -2.328  14.914  21.084  0.00  0.00    +0.000 Cl
ENDBRANCH  28  31
ENDBRANCH  26  28
ENDBRANCH  24  26
ENDBRANCH   2  20
TORSDOF 6
ENDMDL
MODEL 4
REMARK VINA RESULT:      -8.7      2.789      3.718
REMARK  Name = 
REMARK  6 active torsions:
REMARK  status: ('A' for Active; 'I' for Inactive)
REMARK    1  A    between atoms: C_2  and  C_4
REMARK    2  A    between atoms: C_10  and  N_11
REMARK    3  A    between atoms: C_12  and  C_14
REMARK    4  A    between atoms: C_18  and  N_19
REMARK    5  A    between atoms: N_19  and  S_20
REMARK    6  A    between atoms: S_20  and  C_23
REMARK                            x       y       z     vdW  Elec       q    Type
REMARK                         _______ _______ _______ _____ _____    ______ ____
ROOT
ATOM      1  N   UNL     1       3.026   6.993  18.383  0.00  0.00    +0.000 N 
ATOM      2  C   UNL     1       2.321   8.174  18.276  0.00  0.00    +0.000 C 
ATOM      3  O   UNL     1       2.297   8.857  17.259  0.00  0.00    +0.000 OA
ATOM      4  H   UNL     1       2.773   6.361  19.131  0.00  0.00    +0.000 HD
ENDROOT
BRANCH   1  11
ATOM      5  C   UNL     1       6.060   5.011  15.975  0.00  0.00    +0.000 C 
ATOM      6  C   UNL     1       6.762   4.463  17.245  0.00  0.00    +0.000 C 
ATOM      7  C   UNL     1       6.021   4.909  18.514  0.00  0.00    +0.000 C 
ATOM      8  C   UNL     1       4.582   4.374  18.467  0.00  0.00    +0.000 C 
ATOM      9  C   UNL     1       3.849   4.927  17.232  0.00  0.00    +0.000 C 
ATOM     10  C   UNL     1       4.605   4.479  15.961  0.00  0.00    +0.000 C 
ATOM     11  C   UNL     1       3.825   6.474  17.278  0.00  0.00    +0.000 C 
ATOM     12  C   UNL     1       5.275   7.009  17.336  0.00  0.00    +0.000 C 
ATOM     13  C   UNL     1       6.012   6.443  18.563  0.00  0.00    +0.000 C 
ATOM     14  C   UNL     1       6.021   6.557  16.064  0.00  0.00    +0.000 C 
BRANCH   5  16
ATOM     15  N   UNL     1       6.375   3.439  14.100  0.00  0.00    +0.000 N 
ATOM     16  C   UNL     1       6.831   4.557  14.732  0.00  0.00    +0.000 C 
ATOM     17  O   UNL     1       7.814   5.143  14.284  0.00  0.00    +0.000 OA
ATOM     18  H   UNL     1       6.874   3.136  13.276  0.00  0.00    +0.000 HD
ATOM     19  H   UNL     1       5.579   2.900  14.412  0.00  0.00    +0.000 HD
ENDBRANCH   5  16
ENDBRANCH   1  11
BRANCH   2  20
ATOM     20  C   UNL     1       1.566   8.605  19.485  0.00  0.00    +0.000 A 
ATOM     21  C   UNL     1       1.652   7.818  20.641  0.00  0.00    +0.000 A 
ATOM     22  C   UNL     1       0.900   8.142  21.769  0.00  0.00    +0.000 A 
ATOM     23  C   UNL     1       0.060   9.254  21.746  0.00  0.00    +0.000 A 
ATOM     24  C   UNL     1      -0.033  10.036  20.594  0.00  0.00    +0.000 A 
ATOM     25  C   UNL     1       0.715   9.720  19.461  0.00  0.00    +0.000 A 
BRANCH  24  26
ATOM     26  N   UNL     1      -0.927  11.135  20.586  0.00  0.00    +0.000 N 
ATOM     27  H   UNL     1      -1.701  11.152  19.923  0.00  0.00    +0.000 HD
BRANCH  26  28
ATOM     28  S   UNL     1      -0.415  12.648  21.105  0.00  0.00    +0.000 S 
ATOM     29  O   UNL     1       0.921  12.495  21.635  0.00  0.00    +0.000 OA
ATOM     30  O   UNL     1      -0.683  13.604  20.050  0.00  0.00    +0.000 OA
BRANCH  28  31
ATOM     31  C   UNL     1      -1.481  13.036  22.471  0.00  0.00    +0.000 A 
ATOM     32  C   UNL     1      -2.510  12.138  22.794  0.00  0.00    +0.000 A 
ATOM     33  C   UNL     1      -3.436  12.460  23.789  0.00  0.00    +0.000 A 
ATOM     34  C   UNL     1      -3.339  13.675  24.462  0.00  0.00    +0.000 A 
ATOM     35  C   UNL     1      -2.306  14.561  24.154  0.00  0.00    +0.000 A 
ATOM     36  C   UNL     1      -1.371  14.248  23.159  0.00  0.00    +0.000 A 
ATOM     37 CL   UNL     1      -0.108  15.396  22.897  0.00  0.00    +0.000 Cl
ENDBRANCH  28  31
ENDBRANCH  26  28
ENDBRANCH  24  26
ENDBRANCH   2  20
TORSDOF 6
ENDMDL
MODEL 5
REMARK VINA RESULT:      -8.7      3.757      4.415
REMARK  Name = 
REMARK  6 active torsions:
REMARK  status: ('A' for Active; 'I' for Inactive)
REMARK    1  A    between atoms: C_2  and  C_4
REMARK    2  A    between atoms: C_10  and  N_11
REMARK    3  A    between atoms: C_12  and  C_14
REMARK    4  A    between atoms: C_18  and  N_19
REMARK    5  A    between atoms: N_19  and  S_20
REMARK    6  A    between atoms: S_20  and  C_23
REMARK                            x       y       z     vdW  Elec       q    Type
REMARK                         _______ _______ _______ _____ _____    ______ ____
ROOT
ATOM      1  N   UNL     1       1.920   7.068  19.452  0.00  0.00    +0.000 N 
ATOM      2  C   UNL     1       2.211   8.109  18.596  0.00  0.00    +0.000 C 
ATOM      3  O   UNL     1       3.165   8.105  17.826  0.00  0.00    +0.000 OA
ATOM      4  H   UNL     1       0.985   7.022  19.836  0.00  0.00    +0.000 HD
ENDROOT
BRANCH   1  11
ATOM      5  C   UNL     1       3.380   2.969  19.412  0.00  0.00    +0.000 C 
ATOM      6  C   UNL     1       1.974   2.434  19.034  0.00  0.00    +0.000 C 
ATOM      7  C   UNL     1       0.968   3.586  18.903  0.00  0.00    +0.000 C 
ATOM      8  C   UNL     1       1.449   4.548  17.805  0.00  0.00    +0.000 C 
ATOM      9  C   UNL     1       2.830   5.120  18.169  0.00  0.00    +0.000 C 
ATOM     10  C   UNL     1       3.834   3.953  18.305  0.00  0.00    +0.000 C 
ATOM     11  C   UNL     1       2.754   5.873  19.519  0.00  0.00    +0.000 C 
ATOM     12  C   UNL     1       2.259   4.905  20.619  0.00  0.00    +0.000 C 
ATOM     13  C   UNL     1       0.884   4.321  20.248  0.00  0.00    +0.000 C 
ATOM     14  C   UNL     1       3.267   3.744  20.748  0.00  0.00    +0.000 C 
BRANCH   5  16
ATOM     15  N   UNL     1       4.280   0.825  18.590  0.00  0.00    +0.000 N 
ATOM     16  C   UNL     1       4.352   1.794  19.546  0.00  0.00    +0.000 C 
ATOM     17  O   UNL     1       5.180   1.689  20.448  0.00  0.00    +0.000 OA
ATOM     18  H   UNL     1       4.922   0.049  18.667  0.00  0.00    +0.000 HD
ATOM     19  H   UNL     1       3.623   0.837  17.822  0.00  0.00    +0.000 HD
ENDBRANCH   5  16
ENDBRANCH   1  11
BRANCH   2  20
ATOM     20  C   UNL     1       1.294   9.281  18.643  0.00  0.00    +0.000 A 
ATOM     21  C   UNL     1       0.097   9.220  17.916  0.00  0.00    +0.000 A 
ATOM     22  C   UNL     1      -0.753  10.325  17.870  0.00  0.00    +0.000 A 
ATOM     23  C   UNL     1      -0.409  11.492  18.549  0.00  0.00    +0.000 A 
ATOM     24  C   UNL     1       0.785  11.558  19.267  0.00  0.00    +0.000 A 
ATOM     25  C   UNL     1       1.641  10.459  19.320  0.00  0.00    +0.000 A 
BRANCH  24  26
ATOM     26  N   UNL     1       1.126  12.772  19.912  0.00  0.00    +0.000 N 
ATOM     27  H   UNL     1       0.423  13.270  20.457  0.00  0.00    +0.000 HD
BRANCH  26  28
ATOM     28  S   UNL     1       2.356  13.741  19.302  0.00  0.00    +0.000 S 
ATOM     29  O   UNL     1       3.256  14.036  20.394  0.00  0.00    +0.000 OA
ATOM     30  O   UNL     1       2.851  13.131  18.084  0.00  0.00    +0.000 OA
BRANCH  28  31
ATOM     31  C   UNL     1       1.550  15.259  18.858  0.00  0.00    +0.000 A 
ATOM     32  C   UNL     1       0.158  15.350  19.017  0.00  0.00    +0.000 A 
ATOM     33  C   UNL     1      -0.524  16.486  18.577  0.00  0.00    +0.000 A 
ATOM     34  C   UNL     1       0.175  17.530  17.978  0.00  0.00    +0.000 A 
ATOM     35  C   UNL     1       1.561  17.448  17.836  0.00  0.00    +0.000 A 
ATOM     36  C   UNL     1       2.257  16.314  18.275  0.00  0.00    +0.000 A 
ATOM     37 CL   UNL     1       3.974  16.343  18.093  0.00  0.00    +0.000 Cl
ENDBRANCH  28  31
ENDBRANCH  26  28
ENDBRANCH  24  26
ENDBRANCH   2  20
TORSDOF 6
ENDMDL
MODEL 6
REMARK VINA RESULT:      -8.7      1.441      1.689
REMARK  Name = 
REMARK  6 active torsions:
REMARK  status: ('A' for Active; 'I' for Inactive)
REMARK    1  A    between atoms: C_2  and  C_4
REMARK    2  A    between atoms: C_10  and  N_11
REMARK    3  A    between atoms: C_12  and  C_14
REMARK    4  A    between atoms: C_18  and  N_19
REMARK    5  A    between atoms: N_19  and  S_20
REMARK    6  A    between atoms: S_20  and  C_23
REMARK                            x       y       z     vdW  Elec       q    Type
REMARK                         _______ _______ _______ _____ _____    ______ ____
ROOT
ATOM      1  N   UNL     1       2.348   7.004  19.300  0.00  0.00    +0.000 N 
ATOM      2  C   UNL     1       1.754   7.833  20.228  0.00  0.00    +0.000 C 
ATOM      3  O   UNL     1       1.748   7.607  21.432  0.00  0.00    +0.000 OA
ATOM      4  H   UNL     1       2.555   7.390  18.389  0.00  0.00    +0.000 HD
ENDROOT
BRANCH   1  11
ATOM      5  C   UNL     1       3.928   2.951  19.409  0.00  0.00    +0.000 C 
ATOM      6  C   UNL     1       3.405   2.670  17.976  0.00  0.00    +0.000 C 
ATOM      7  C   UNL     1       2.692   3.903  17.403  0.00  0.00    +0.000 C 
ATOM      8  C   UNL     1       3.683   5.076  17.353  0.00  0.00    +0.000 C 
ATOM      9  C   UNL     1       4.195   5.399  18.768  0.00  0.00    +0.000 C 
ATOM     10  C   UNL     1       4.905   4.151  19.339  0.00  0.00    +0.000 C 
ATOM     11  C   UNL     1       3.009   5.764  19.692  0.00  0.00    +0.000 C 
ATOM     12  C   UNL     1       2.008   4.585  19.731  0.00  0.00    +0.000 C 
ATOM     13  C   UNL     1       1.507   4.252  18.314  0.00  0.00    +0.000 C 
ATOM     14  C   UNL     1       2.725   3.344  20.302  0.00  0.00    +0.000 C 
BRANCH   5  16
ATOM     15  N   UNL     1       4.581   0.585  19.167  0.00  0.00    +0.000 N 
ATOM     16  C   UNL     1       4.621   1.698  19.952  0.00  0.00    +0.000 C 
ATOM     17  O   UNL     1       5.204   1.652  21.032  0.00  0.00    +0.000 OA
ATOM     18  H   UNL     1       5.041  -0.244  19.514  0.00  0.00    +0.000 HD
ATOM     19  H   UNL     1       4.117   0.543  18.270  0.00  0.00    +0.000 HD
ENDBRANCH   5  16
ENDBRANCH   1  11
BRANCH   2  20
ATOM     20  C   UNL     1       1.093   9.056  19.695  0.00  0.00    +0.000 A 
ATOM     21  C   UNL     1       1.494   9.538  18.441  0.00  0.00    +0.000 A 
ATOM     22  C   UNL     1       0.957  10.723  17.939  0.00  0.00    +0.000 A 
ATOM     23  C   UNL     1       0.018  11.430  18.689  0.00  0.00    +0.000 A 
ATOM     24  C   UNL     1      -0.378  10.957  19.939  0.00  0.00    +0.000 A 
ATOM     25  C   UNL     1       0.153   9.773  20.449  0.00  0.00    +0.000 A 
BRANCH  24  26
ATOM     26  N   UNL     1      -1.303  11.718  20.695  0.00  0.00    +0.000 N 
ATOM     27  H   UNL     1      -2.299  11.652  20.490  0.00  0.00    +0.000 HD
BRANCH  26  28
ATOM     28  S   UNL     1      -0.829  13.163  21.410  0.00  0.00    +0.000 S 
ATOM     29  O   UNL     1       0.515  12.978  21.911  0.00  0.00    +0.000 OA
ATOM     30  O   UNL     1      -1.129  14.243  20.491  0.00  0.00    +0.000 OA
BRANCH  28  31
ATOM     31  C   UNL     1      -1.897  13.336  22.817  0.00  0.00    +0.000 A 
ATOM     32  C   UNL     1      -2.885  12.363  23.033  0.00  0.00    +0.000 A 
ATOM     33  C   UNL     1      -3.812  12.522  24.064  0.00  0.00    +0.000 A 
ATOM     34  C   UNL     1      -3.760  13.650  24.880  0.00  0.00    +0.000 A 
ATOM     35  C   UNL     1      -2.767  14.610  24.677  0.00  0.00    +0.000 A 
ATOM     36  C   UNL     1      -1.830  14.459  23.647  0.00  0.00    +0.000 A 
ATOM     37 CL   UNL     1      -0.618  15.683  23.521  0.00  0.00    +0.000 Cl
ENDBRANCH  28  31
ENDBRANCH  26  28
ENDBRANCH  24  26
ENDBRANCH   2  20
TORSDOF 6
ENDMDL
MODEL 7
REMARK VINA RESULT:      -8.6      1.566      1.882
REMARK  Name = 
REMARK  6 active torsions:
REMARK  status: ('A' for Active; 'I' for Inactive)
REMARK    1  A    between atoms: C_2  and  C_4
REMARK    2  A    between atoms: C_10  and  N_11
REMARK    3  A    between atoms: C_12  and  C_14
REMARK    4  A    between atoms: C_18  and  N_19
REMARK    5  A    between atoms: N_19  and  S_20
REMARK    6  A    between atoms: S_20  and  C_23
REMARK                            x       y       z     vdW  Elec       q    Type
REMARK                         _______ _______ _______ _____ _____    ______ ____
ROOT
ATOM      1  N   UNL     1       2.181   6.934  19.641  0.00  0.00    +0.000 N 
ATOM      2  C   UNL     1       2.440   7.937  18.731  0.00  0.00    +0.000 C 
ATOM      3  O   UNL     1       3.300   7.856  17.862  0.00  0.00    +0.000 OA
ATOM      4  H   UNL     1       1.294   6.956  20.126  0.00  0.00    +0.000 HD
ENDROOT
BRANCH   1  11
ATOM      5  C   UNL     1       3.402   2.768  19.339  0.00  0.00    +0.000 C 
ATOM      6  C   UNL     1       1.986   2.350  18.866  0.00  0.00    +0.000 C 
ATOM      7  C   UNL     1       1.054   3.567  18.786  0.00  0.00    +0.000 C 
ATOM      8  C   UNL     1       1.637   4.578  17.786  0.00  0.00    +0.000 C 
ATOM      9  C   UNL     1       3.032   5.036  18.247  0.00  0.00    +0.000 C 
ATOM     10  C   UNL     1       3.960   3.803  18.330  0.00  0.00    +0.000 C 
ATOM     11  C   UNL     1       2.942   5.689  19.647  0.00  0.00    +0.000 C 
ATOM     12  C   UNL     1       2.344   4.672  20.649  0.00  0.00    +0.000 C 
ATOM     13  C   UNL     1       0.955   4.202  20.181  0.00  0.00    +0.000 C 
ATOM     14  C   UNL     1       3.277   3.446  20.726  0.00  0.00    +0.000 C 
BRANCH   5  16
ATOM     15  N   UNL     1       4.123   0.581  18.456  0.00  0.00    +0.000 N 
ATOM     16  C   UNL     1       4.299   1.529  19.418  0.00  0.00    +0.000 C 
ATOM     17  O   UNL     1       5.153   1.356  20.285  0.00  0.00    +0.000 OA
ATOM     18  H   UNL     1       4.714  -0.237  18.496  0.00  0.00    +0.000 HD
ATOM     19  H   UNL     1       3.438   0.648  17.715  0.00  0.00    +0.000 HD
ENDBRANCH   5  16
ENDBRANCH   1  11
BRANCH   2  20
ATOM     20  C   UNL     1       1.609   9.167  18.847  0.00  0.00    +0.000 A 
ATOM     21  C   UNL     1       1.919  10.261  18.028  0.00  0.00    +0.000 A 
ATOM     22  C   UNL     1       1.216  11.458  18.160  0.00  0.00    +0.000 A 
ATOM     23  C   UNL     1       0.202  11.565  19.110  0.00  0.00    +0.000 A 
ATOM     24  C   UNL     1      -0.104  10.480  19.931  0.00  0.00    +0.000 A 
ATOM     25  C   UNL     1       0.593   9.279  19.807  0.00  0.00    +0.000 A 
BRANCH  24  26
ATOM     26  N   UNL     1      -1.111  10.633  20.916  0.00  0.00    +0.000 N 
ATOM     27  H   UNL     1      -2.092  10.558  20.650  0.00  0.00    +0.000 HD
BRANCH  26  28
ATOM     28  S   UNL     1      -0.825  11.562  22.286  0.00  0.00    +0.000 S 
ATOM     29  O   UNL     1      -0.468  10.656  23.355  0.00  0.00    +0.000 OA
ATOM     30  O   UNL     1       0.058  12.651  21.919  0.00  0.00    +0.000 OA
BRANCH  28  31
ATOM     31  C   UNL     1      -2.406  12.259  22.691  0.00  0.00    +0.000 A 
ATOM     32  C   UNL     1      -2.908  12.075  23.989  0.00  0.00    +0.000 A 
ATOM     33  C   UNL     1      -4.193  12.513  24.313  0.00  0.00    +0.000 A 
ATOM     34  C   UNL     1      -4.982  13.132  23.346  0.00  0.00    +0.000 A 
ATOM     35  C   UNL     1      -4.478  13.331  22.060  0.00  0.00    +0.000 A 
ATOM     36  C   UNL     1      -3.188  12.898  21.724  0.00  0.00    +0.000 A 
ATOM     37 CL   UNL     1      -2.652  13.241  20.119  0.00  0.00    +0.000 Cl
ENDBRANCH  28  31
ENDBRANCH  26  28
ENDBRANCH  24  26
ENDBRANCH   2  20
TORSDOF 6
ENDMDL
MODEL 8
REMARK VINA RESULT:      -8.5      2.759      3.386
REMARK  Name = 
REMARK  6 active torsions:
REMARK  status: ('A' for Active; 'I' for Inactive)
REMARK    1  A    between atoms: C_2  and  C_4
REMARK    2  A    between atoms: C_10  and  N_11
REMARK    3  A    between atoms: C_12  and  C_14
REMARK    4  A    between atoms: C_18  and  N_19
REMARK    5  A    between atoms: N_19  and  S_20
REMARK    6  A    between atoms: S_20  and  C_23
REMARK                            x       y       z     vdW  Elec       q    Type
REMARK                         _______ _______ _______ _____ _____    ______ ____
ROOT
ATOM      1  N   UNL     1       2.415   7.255  19.345  0.00  0.00    +0.000 N 
ATOM      2  C   UNL     1       1.678   7.969  20.266  0.00  0.00    +0.000 C 
ATOM      3  O   UNL     1       1.468   7.584  21.410  0.00  0.00    +0.000 OA
ATOM      4  H   UNL     1       2.775   7.753  18.542  0.00  0.00    +0.000 HD
ENDROOT
BRANCH   1  11
ATOM      5  C   UNL     1       3.917   3.175  19.165  0.00  0.00    +0.000 C 
ATOM      6  C   UNL     1       3.621   3.095  17.645  0.00  0.00    +0.000 C 
ATOM      7  C   UNL     1       3.019   4.412  17.135  0.00  0.00    +0.000 C 
ATOM      8  C   UNL     1       4.017   5.551  17.392  0.00  0.00    +0.000 C 
ATOM      9  C   UNL     1       4.306   5.675  18.898  0.00  0.00    +0.000 C 
ATOM     10  C   UNL     1       4.906   4.343  19.403  0.00  0.00    +0.000 C 
ATOM     11  C   UNL     1       2.994   5.955  19.669  0.00  0.00    +0.000 C 
ATOM     12  C   UNL     1       1.987   4.812  19.400  0.00  0.00    +0.000 C 
ATOM     13  C   UNL     1       1.709   4.678  17.892  0.00  0.00    +0.000 C 
ATOM     14  C   UNL     1       2.593   3.487  19.907  0.00  0.00    +0.000 C 
BRANCH   5  16
ATOM     15  N   UNL     1       4.329   0.768  18.821  0.00  0.00    +0.000 N 
ATOM     16  C   UNL     1       4.504   1.842  19.640  0.00  0.00    +0.000 C 
ATOM     17  O   UNL     1       5.117   1.701  20.696  0.00  0.00    +0.000 OA
ATOM     18  H   UNL     1       4.719  -0.114  19.123  0.00  0.00    +0.000 HD
ATOM     19  H   UNL     1       3.832   0.802  17.942  0.00  0.00    +0.000 HD
ENDBRANCH   5  16
ENDBRANCH   1  11
BRANCH   2  20
ATOM     20  C   UNL     1       1.123   9.271  19.802  0.00  0.00    +0.000 A 
ATOM     21  C   UNL     1       1.058   9.515  18.423  0.00  0.00    +0.000 A 
ATOM     22  C   UNL     1       0.619  10.750  17.948  0.00  0.00    +0.000 A 
ATOM     23  C   UNL     1       0.241  11.744  18.849  0.00  0.00    +0.000 A 
ATOM     24  C   UNL     1       0.311  11.507  20.222  0.00  0.00    +0.000 A 
ATOM     25  C   UNL     1       0.749  10.275  20.707  0.00  0.00    +0.000 A 
BRANCH  24  26
ATOM     26  N   UNL     1      -0.039  12.550  21.113  0.00  0.00    +0.000 N 
ATOM     27  H   UNL     1      -1.021  12.782  21.259  0.00  0.00    +0.000 HD
BRANCH  26  28
ATOM     28  S   UNL     1       1.029  13.814  21.402  0.00  0.00    +0.000 S 
ATOM     29  O   UNL     1       0.653  14.419  22.660  0.00  0.00    +0.000 OA
ATOM     30  O   UNL     1       2.377  13.324  21.195  0.00  0.00    +0.000 OA
BRANCH  28  31
ATOM     31  C   UNL     1       0.680  14.995  20.124  0.00  0.00    +0.000 A 
ATOM     32  C   UNL     1       1.741  15.459  19.331  0.00  0.00    +0.000 A 
ATOM     33  C   UNL     1       1.525  16.468  18.391  0.00  0.00    +0.000 A 
ATOM     34  C   UNL     1       0.254  17.018  18.239  0.00  0.00    +0.000 A 
ATOM     35  C   UNL     1      -0.805  16.545  19.015  0.00  0.00    +0.000 A 
ATOM     36  C   UNL     1      -0.601  15.532  19.960  0.00  0.00    +0.000 A 
ATOM     37 CL   UNL     1      -1.993  14.992  20.827  0.00  0.00    +0.000 Cl
ENDBRANCH  28  31
ENDBRANCH  26  28
ENDBRANCH  24  26
ENDBRANCH   2  20
TORSDOF 6
ENDMDL
MODEL 9
REMARK VINA RESULT:      -8.5      7.773     11.491
REMARK  Name = 
REMARK  6 active torsions:
REMARK  status: ('A' for Active; 'I' for Inactive)
REMARK    1  A    between atoms: C_2  and  C_4
REMARK    2  A    between atoms: C_10  and  N_11
REMARK    3  A    between atoms: C_12  and  C_14
REMARK    4  A    between atoms: C_18  and  N_19
REMARK    5  A    between atoms: N_19  and  S_20
REMARK    6  A    between atoms: S_20  and  C_23
REMARK                            x       y       z     vdW  Elec       q    Type
REMARK                         _______ _______ _______ _____ _____    ______ ____
ROOT
ATOM      1  N   UNL     1       9.146   9.960  18.405  0.00  0.00    +0.000 N 
ATOM      2  C   UNL     1       8.040   9.377  17.823  0.00  0.00    +0.000 C 
ATOM      3  O   UNL     1       7.195  10.006  17.197  0.00  0.00    +0.000 OA
ATOM      4  H   UNL     1       9.921   9.359  18.649  0.00  0.00    +0.000 HD
ENDROOT
BRANCH   1  11
ATOM      5  C   UNL     1      10.735  13.977  18.927  0.00  0.00    +0.000 C 
ATOM      6  C   UNL     1      11.878  13.447  19.831  0.00  0.00    +0.000 C 
ATOM      7  C   UNL     1      11.784  11.923  19.994  0.00  0.00    +0.000 C 
ATOM      8  C   UNL     1      11.893  11.264  18.610  0.00  0.00    +0.000 C 
ATOM      9  C   UNL     1      10.751  11.749  17.700  0.00  0.00    +0.000 C 
ATOM     10  C   UNL     1      10.850  13.283  17.547  0.00  0.00    +0.000 C 
ATOM     11  C   UNL     1       9.382  11.398  18.332  0.00  0.00    +0.000 C 
ATOM     12  C   UNL     1       9.280  12.054  19.730  0.00  0.00    +0.000 C 
ATOM     13  C   UNL     1      10.431  11.581  20.636  0.00  0.00    +0.000 C 
ATOM     14  C   UNL     1       9.381  13.585  19.567  0.00  0.00    +0.000 C 
BRANCH   5  16
ATOM     15  N   UNL     1      10.336  16.061  17.670  0.00  0.00    +0.000 N 
ATOM     16  C   UNL     1      10.854  15.499  18.797  0.00  0.00    +0.000 C 
ATOM     17  O   UNL     1      11.376  16.220  19.645  0.00  0.00    +0.000 OA
ATOM     18  H   UNL     1      10.405  17.065  17.578  0.00  0.00    +0.000 HD
ATOM     19  H   UNL     1       9.899  15.535  16.926  0.00  0.00    +0.000 HD
ENDBRANCH   5  16
ENDBRANCH   1  11
BRANCH   2  20
ATOM     20  C   UNL     1       7.904   7.904  17.991  0.00  0.00    +0.000 A 
ATOM     21  C   UNL     1       8.307   7.331  19.205  0.00  0.00    +0.000 A 
ATOM     22  C   UNL     1       8.269   5.948  19.376  0.00  0.00    +0.000 A 
ATOM     23  C   UNL     1       7.828   5.133  18.334  0.00  0.00    +0.000 A 
ATOM     24  C   UNL     1       7.433   5.700  17.123  0.00  0.00    +0.000 A 
ATOM     25  C   UNL     1       7.467   7.082  16.942  0.00  0.00    +0.000 A 
BRANCH  24  26
ATOM     26  N   UNL     1       7.029   4.844  16.069  0.00  0.00    +0.000 N 
ATOM     27  H   UNL     1       7.729   4.456  15.437  0.00  0.00    +0.000 HD
BRANCH  26  28
ATOM     28  S   UNL     1       5.487   4.972  15.414  0.00  0.00    +0.000 S 
ATOM     29  O   UNL     1       5.260   6.368  15.113  0.00  0.00    +0.000 OA
ATOM     30  O   UNL     1       5.348   3.965  14.381  0.00  0.00    +0.000 OA
BRANCH  28  31
ATOM     31  C   UNL     1       4.399   4.536  16.746  0.00  0.00    +0.000 A 
ATOM     32  C   UNL     1       4.121   3.178  16.968  0.00  0.00    +0.000 A 
ATOM     33  C   UNL     1       3.185   2.803  17.934  0.00  0.00    +0.000 A 
ATOM     34  C   UNL     1       2.524   3.776  18.678  0.00  0.00    +0.000 A 
ATOM     35  C   UNL     1       2.812   5.126  18.471  0.00  0.00    +0.000 A 
ATOM     36  C   UNL     1       3.751   5.515  17.506  0.00  0.00    +0.000 A 
ATOM     37 CL   UNL     1       4.063   7.207  17.371  0.00  0.00    +0.000 Cl
ENDBRANCH  28  31
ENDBRANCH  26  28
ENDBRANCH  24  26
ENDBRANCH   2  20
TORSDOF 6
ENDMDL
