MODEL 1
REMARK VINA RESULT:      -7.2      0.000      0.000
REMARK  Name = 
REMARK  12 active torsions:
REMARK  status: ('A' for Active; 'I' for Inactive)
REMARK    1  A    between atoms: C_1  and  O_2
REMARK    2  A    between atoms: O_2  and  C_3
REMARK    3  A    between atoms: C_6  and  C_7
REMARK    4  A    between atoms: C_9  and  C_10
REMARK    5  A    between atoms: C_12  and  O_13
REMARK    6  A    between atoms: O_13  and  C_14
REMARK    7  A    between atoms: C_15  and  O_16
REMARK    8  A    between atoms: O_16  and  C_17
REMARK    9  A    between atoms: C_18  and  O_19
REMARK   10  A    between atoms: O_19  and  C_20
REMARK   11  A    between atoms: C_25  and  O_26
REMARK   12  A    between atoms: O_26  and  C_27
REMARK                            x       y       z     vdW  Elec       q    Type
REMARK                         _______ _______ _______ _____ _____    ______ ____
ROOT
ATOM      1  C   UNL     1       1.596   9.449  18.933  0.00  0.00    +0.000 A 
ATOM      2  N   UNL     1       1.873   8.227  19.328  0.00  0.00    +0.000 NA
ATOM      3  C   UNL     1       2.486   7.683  18.221  0.00  0.00    +0.000 A 
ATOM      4  N   UNL     1       2.589   8.527  17.182  0.00  0.00    +0.000 NA
ATOM      5  O   UNL     1       1.997   9.697  17.652  0.00  0.00    +0.000 OA
ENDROOT
BRANCH   1   9
ATOM      6  C   UNL     1      -0.592  12.467  21.022  0.00  0.00    +0.000 A 
ATOM      7  C   UNL     1      -0.199  12.671  19.690  0.00  0.00    +0.000 A 
ATOM      8  C   UNL     1       0.524  11.698  18.998  0.00  0.00    +0.000 A 
ATOM      9  C   UNL     1       0.902  10.515  19.635  0.00  0.00    +0.000 A 
ATOM     10  C   UNL     1       0.581  10.355  20.991  0.00  0.00    +0.000 A 
ATOM     11  C   UNL     1      -0.153  11.320  21.697  0.00  0.00    +0.000 A 
BRANCH   6  13
ATOM     12  C   UNL     1      -0.661  14.498  22.225  0.00  0.00    +0.000 C 
ATOM     13  O   UNL     1      -1.368  13.390  21.669  0.00  0.00    +0.000 OA
ENDBRANCH   6  13
BRANCH  11  14
ATOM     14  O   UNL     1      -0.358  10.955  23.001  0.00  0.00    +0.000 OA
ATOM     15  C   UNL     1      -0.205   9.593  23.368  0.00  0.00    +0.000 C 
ENDBRANCH  11  14
ENDBRANCH   1   9
BRANCH   3  16
ATOM     16  C   UNL     1       2.957   6.306  18.209  0.00  0.00    +0.000 A 
ATOM     17  C   UNL     1       2.049   5.265  17.999  0.00  0.00    +0.000 A 
ATOM     18  C   UNL     1       2.479   3.937  17.971  0.00  0.00    +0.000 A 
ATOM     19  C   UNL     1       3.840   3.633  18.197  0.00  0.00    +0.000 A 
ATOM     20  C   UNL     1       4.760   4.674  18.432  0.00  0.00    +0.000 A 
ATOM     21  C   UNL     1       4.308   6.001  18.414  0.00  0.00    +0.000 A 
BRANCH  18  22
ATOM     22  O   UNL     1       1.626   2.878  17.751  0.00  0.00    +0.000 OA
ATOM     23  C   UNL     1       0.722   2.567  18.808  0.00  0.00    +0.000 C 
ENDBRANCH  18  22
BRANCH  19  24
ATOM     24  O   UNL     1       4.136   2.288  18.231  0.00  0.00    +0.000 OA
ATOM     25  C   UNL     1       4.262   1.691  19.515  0.00  0.00    +0.000 C 
ENDBRANCH  19  24
BRANCH  20  26
ATOM     26  O   UNL     1       6.061   4.339  18.703  0.00  0.00    +0.000 OA
ATOM     27  C   UNL     1       7.056   4.672  17.743  0.00  0.00    +0.000 C 
ENDBRANCH  20  26
ENDBRANCH   3  16
TORSDOF 7
ENDMDL
MODEL 2
REMARK VINA RESULT:      -7.2      1.740      2.483
REMARK  Name = 
REMARK  12 active torsions:
REMARK  status: ('A' for Active; 'I' for Inactive)
REMARK    1  A    between atoms: C_1  and  O_2
REMARK    2  A    between atoms: O_2  and  C_3
REMARK    3  A    between atoms: C_6  and  C_7
REMARK    4  A    between atoms: C_9  and  C_10
REMARK    5  A    between atoms: C_12  and  O_13
REMARK    6  A    between atoms: O_13  and  C_14
REMARK    7  A    between atoms: C_15  and  O_16
REMARK    8  A    between atoms: O_16  and  C_17
REMARK    9  A    between atoms: C_18  and  O_19
REMARK   10  A    between atoms: O_19  and  C_20
REMARK   11  A    between atoms: C_25  and  O_26
REMARK   12  A    between atoms: O_26  and  C_27
REMARK                            x       y       z     vdW  Elec       q    Type
REMARK                         _______ _______ _______ _____ _____    ______ ____
ROOT
ATOM      1  C   UNL     1       1.037   8.939  20.479  0.00  0.00    +0.000 A 
ATOM      2  N   UNL     1       1.431   7.724  20.785  0.00  0.00    +0.000 NA
ATOM      3  C   UNL     1       2.145   7.347  19.670  0.00  0.00    +0.000 A 
ATOM      4  N   UNL     1       2.195   8.284  18.710  0.00  0.00    +0.000 NA
ATOM      5  O   UNL     1       1.459   9.339  19.244  0.00  0.00    +0.000 OA
ENDROOT
BRANCH   1   9
ATOM      6  C   UNL     1      -1.277  11.774  22.686  0.00  0.00    +0.000 A 
ATOM      7  C   UNL     1      -0.978  10.520  23.239  0.00  0.00    +0.000 A 
ATOM      8  C   UNL     1      -0.231   9.579  22.527  0.00  0.00    +0.000 A 
ATOM      9  C   UNL     1       0.202   9.860  21.230  0.00  0.00    +0.000 A 
ATOM     10  C   UNL     1      -0.174  11.081  20.651  0.00  0.00    +0.000 A 
ATOM     11  C   UNL     1      -0.917  12.039  21.358  0.00  0.00    +0.000 A 
BRANCH   6  13
ATOM     12  C   UNL     1      -3.363  12.606  23.415  0.00  0.00    +0.000 C 
ATOM     13  O   UNL     1      -1.941  12.720  23.419  0.00  0.00    +0.000 OA
ENDBRANCH   6  13
BRANCH  11  14
ATOM     14  O   UNL     1      -1.163  13.155  20.604  0.00  0.00    +0.000 OA
ATOM     15  C   UNL     1      -0.960  13.098  19.200  0.00  0.00    +0.000 C 
ENDBRANCH  11  14
ENDBRANCH   1   9
BRANCH   3  16
ATOM     16  C   UNL     1       2.765   6.034  19.569  0.00  0.00    +0.000 A 
ATOM     17  C   UNL     1       2.434   5.038  20.493  0.00  0.00    +0.000 A 
ATOM     18  C   UNL     1       3.007   3.767  20.408  0.00  0.00    +0.000 A 
ATOM     19  C   UNL     1       3.961   3.491  19.404  0.00  0.00    +0.000 A 
ATOM     20  C   UNL     1       4.317   4.495  18.481  0.00  0.00    +0.000 A 
ATOM     21  C   UNL     1       3.696   5.749  18.563  0.00  0.00    +0.000 A 
BRANCH  18  22
ATOM     22  O   UNL     1       2.701   2.749  21.284  0.00  0.00    +0.000 OA
ATOM     23  C   UNL     1       1.323   2.587  21.604  0.00  0.00    +0.000 C 
ENDBRANCH  18  22
BRANCH  19  24
ATOM     24  O   UNL     1       4.521   2.234  19.467  0.00  0.00    +0.000 OA
ATOM     25  C   UNL     1       3.929   1.226  18.659  0.00  0.00    +0.000 C 
ENDBRANCH  19  24
BRANCH  20  26
ATOM     26  O   UNL     1       5.287   4.208  17.556  0.00  0.00    +0.000 OA
ATOM     27  C   UNL     1       4.916   4.166  16.183  0.00  0.00    +0.000 C 
ENDBRANCH  20  26
ENDBRANCH   3  16
TORSDOF 7
ENDMDL
MODEL 3
REMARK VINA RESULT:      -7.2      2.312      8.944
REMARK  Name = 
REMARK  12 active torsions:
REMARK  status: ('A' for Active; 'I' for Inactive)
REMARK    1  A    between atoms: C_1  and  O_2
REMARK    2  A    between atoms: O_2  and  C_3
REMARK    3  A    between atoms: C_6  and  C_7
REMARK    4  A    between atoms: C_9  and  C_10
REMARK    5  A    between atoms: C_12  and  O_13
REMARK    6  A    between atoms: O_13  and  C_14
REMARK    7  A    between atoms: C_15  and  O_16
REMARK    8  A    between atoms: O_16  and  C_17
REMARK    9  A    between atoms: C_18  and  O_19
REMARK   10  A    between atoms: O_19  and  C_20
REMARK   11  A    between atoms: C_25  and  O_26
REMARK   12  A    between atoms: O_26  and  C_27
REMARK                            x       y       z     vdW  Elec       q    Type
REMARK                         _______ _______ _______ _____ _____    ______ ____
ROOT
ATOM      1  C   UNL     1       3.154   6.912  18.628  0.00  0.00    +0.000 A 
ATOM      2  N   UNL     1       2.562   8.051  18.352  0.00  0.00    +0.000 NA
ATOM      3  C   UNL     1       1.743   8.239  19.443  0.00  0.00    +0.000 A 
ATOM      4  N   UNL     1       1.822   7.261  20.360  0.00  0.00    +0.000 NA
ATOM      5  O   UNL     1       2.755   6.380  19.820  0.00  0.00    +0.000 OA
ENDROOT
BRANCH   1   9
ATOM      6  C   UNL     1       5.946   4.797  16.179  0.00  0.00    +0.000 A 
ATOM      7  C   UNL     1       4.714   4.215  16.513  0.00  0.00    +0.000 A 
ATOM      8  C   UNL     1       3.795   4.889  17.319  0.00  0.00    +0.000 A 
ATOM      9  C   UNL     1       4.105   6.147  17.840  0.00  0.00    +0.000 A 
ATOM     10  C   UNL     1       5.373   6.685  17.573  0.00  0.00    +0.000 A 
ATOM     11  C   UNL     1       6.303   6.023  16.758  0.00  0.00    +0.000 A 
BRANCH   6  13
ATOM     12  C   UNL     1       6.519   4.329  13.937  0.00  0.00    +0.000 C 
ATOM     13  O   UNL     1       6.808   4.165  15.325  0.00  0.00    +0.000 OA
ENDBRANCH   6  13
BRANCH  11  14
ATOM     14  O   UNL     1       7.467   6.732  16.627  0.00  0.00    +0.000 OA
ATOM     15  C   UNL     1       7.696   7.845  17.478  0.00  0.00    +0.000 C 
ENDBRANCH  11  14
ENDBRANCH   1   9
BRANCH   3  16
ATOM     16  C   UNL     1       0.872   9.400  19.553  0.00  0.00    +0.000 A 
ATOM     17  C   UNL     1       0.133   9.819  18.444  0.00  0.00    +0.000 A 
ATOM     18  C   UNL     1      -0.719  10.922  18.529  0.00  0.00    +0.000 A 
ATOM     19  C   UNL     1      -0.808  11.650  19.736  0.00  0.00    +0.000 A 
ATOM     20  C   UNL     1      -0.050  11.249  20.854  0.00  0.00    +0.000 A 
ATOM     21  C   UNL     1       0.765  10.113  20.753  0.00  0.00    +0.000 A 
BRANCH  18  22
ATOM     22  O   UNL     1      -1.479  11.364  17.469  0.00  0.00    +0.000 OA
ATOM     23  C   UNL     1      -2.307  10.390  16.839  0.00  0.00    +0.000 C 
ENDBRANCH  18  22
BRANCH  19  24
ATOM     24  O   UNL     1      -1.613  12.768  19.680  0.00  0.00    +0.000 OA
ATOM     25  C   UNL     1      -2.962  12.608  20.096  0.00  0.00    +0.000 C 
ENDBRANCH  19  24
BRANCH  20  26
ATOM     26  O   UNL     1      -0.120  12.012  21.990  0.00  0.00    +0.000 OA
ATOM     27  C   UNL     1      -1.050  11.634  22.998  0.00  0.00    +0.000 C 
ENDBRANCH  20  26
ENDBRANCH   3  16
TORSDOF 7
ENDMDL
MODEL 4
REMARK VINA RESULT:      -7.1      2.050      9.025
REMARK  Name = 
REMARK  12 active torsions:
REMARK  status: ('A' for Active; 'I' for Inactive)
REMARK    1  A    between atoms: C_1  and  O_2
REMARK    2  A    between atoms: O_2  and  C_3
REMARK    3  A    between atoms: C_6  and  C_7
REMARK    4  A    between atoms: C_9  and  C_10
REMARK    5  A    between atoms: C_12  and  O_13
REMARK    6  A    between atoms: O_13  and  C_14
REMARK    7  A    between atoms: C_15  and  O_16
REMARK    8  A    between atoms: O_16  and  C_17
REMARK    9  A    between atoms: C_18  and  O_19
REMARK   10  A    between atoms: O_19  and  C_20
REMARK   11  A    between atoms: C_25  and  O_26
REMARK   12  A    between atoms: O_26  and  C_27
REMARK                            x       y       z     vdW  Elec       q    Type
REMARK                         _______ _______ _______ _____ _____    ______ ____
ROOT
ATOM      1  C   UNL     1       2.781   7.085  18.601  0.00  0.00    +0.000 A 
ATOM      2  N   UNL     1       2.190   8.226  18.333  0.00  0.00    +0.000 NA
ATOM      3  C   UNL     1       1.552   8.523  19.517  0.00  0.00    +0.000 A 
ATOM      4  N   UNL     1       1.737   7.609  20.482  0.00  0.00    +0.000 NA
ATOM      5  O   UNL     1       2.549   6.653  19.876  0.00  0.00    +0.000 OA
ENDROOT
BRANCH   1   9
ATOM      6  C   UNL     1       5.208   4.493  16.224  0.00  0.00    +0.000 A 
ATOM      7  C   UNL     1       5.293   5.885  16.066  0.00  0.00    +0.000 A 
ATOM      8  C   UNL     1       4.499   6.744  16.829  0.00  0.00    +0.000 A 
ATOM      9  C   UNL     1       3.577   6.228  17.741  0.00  0.00    +0.000 A 
ATOM     10  C   UNL     1       3.437   4.835  17.831  0.00  0.00    +0.000 A 
ATOM     11  C   UNL     1       4.234   3.959  17.078  0.00  0.00    +0.000 A 
BRANCH   6  13
ATOM     12  C   UNL     1       6.148   3.927  14.134  0.00  0.00    +0.000 C 
ATOM     13  O   UNL     1       6.044   3.660  15.531  0.00  0.00    +0.000 OA
ENDBRANCH   6  13
BRANCH  11  14
ATOM     14  O   UNL     1       3.933   2.647  17.330  0.00  0.00    +0.000 OA
ATOM     15  C   UNL     1       2.951   2.340  18.308  0.00  0.00    +0.000 C 
ENDBRANCH  11  14
ENDBRANCH   1   9
BRANCH   3  16
ATOM     16  C   UNL     1       0.744   9.725  19.668  0.00  0.00    +0.000 A 
ATOM     17  C   UNL     1       0.087  10.263  18.558  0.00  0.00    +0.000 A 
ATOM     18  C   UNL     1      -0.703  11.407  18.681  0.00  0.00    +0.000 A 
ATOM     19  C   UNL     1      -0.812  12.056  19.931  0.00  0.00    +0.000 A 
ATOM     20  C   UNL     1      -0.135  11.534  21.052  0.00  0.00    +0.000 A 
ATOM     21  C   UNL     1       0.618  10.360  20.909  0.00  0.00    +0.000 A 
BRANCH  18  22
ATOM     22  O   UNL     1      -1.383  11.965  17.621  0.00  0.00    +0.000 OA
ATOM     23  C   UNL     1      -2.434  11.182  17.065  0.00  0.00    +0.000 C 
ENDBRANCH  18  22
BRANCH  19  24
ATOM     24  O   UNL     1      -1.547  13.221  19.918  0.00  0.00    +0.000 OA
ATOM     25  C   UNL     1      -0.818  14.438  19.824  0.00  0.00    +0.000 C 
ENDBRANCH  19  24
BRANCH  20  26
ATOM     26  O   UNL     1      -0.218  12.221  22.235  0.00  0.00    +0.000 OA
ATOM     27  C   UNL     1      -1.342  11.983  23.074  0.00  0.00    +0.000 C 
ENDBRANCH  20  26
ENDBRANCH   3  16
TORSDOF 7
ENDMDL
MODEL 5
REMARK VINA RESULT:      -7.1      2.189      9.043
REMARK  Name = 
REMARK  12 active torsions:
REMARK  status: ('A' for Active; 'I' for Inactive)
REMARK    1  A    between atoms: C_1  and  O_2
REMARK    2  A    between atoms: O_2  and  C_3
REMARK    3  A    between atoms: C_6  and  C_7
REMARK    4  A    between atoms: C_9  and  C_10
REMARK    5  A    between atoms: C_12  and  O_13
REMARK    6  A    between atoms: O_13  and  C_14
REMARK    7  A    between atoms: C_15  and  O_16
REMARK    8  A    between atoms: O_16  and  C_17
REMARK    9  A    between atoms: C_18  and  O_19
REMARK   10  A    between atoms: O_19  and  C_20
REMARK   11  A    between atoms: C_25  and  O_26
REMARK   12  A    between atoms: O_26  and  C_27
REMARK                            x       y       z     vdW  Elec       q    Type
REMARK                         _______ _______ _______ _____ _____    ______ ____
ROOT
ATOM      1  C   UNL     1       2.935   6.855  18.750  0.00  0.00    +0.000 A 
ATOM      2  N   UNL     1       2.389   8.014  18.460  0.00  0.00    +0.000 NA
ATOM      3  C   UNL     1       1.619   8.272  19.572  0.00  0.00    +0.000 A 
ATOM      4  N   UNL     1       1.682   7.319  20.515  0.00  0.00    +0.000 NA
ATOM      5  O   UNL     1       2.552   6.377  19.971  0.00  0.00    +0.000 OA
ENDROOT
BRANCH   1   9
ATOM      6  C   UNL     1       5.524   4.531  16.269  0.00  0.00    +0.000 A 
ATOM      7  C   UNL     1       4.308   3.996  16.721  0.00  0.00    +0.000 A 
ATOM      8  C   UNL     1       3.456   4.739  17.540  0.00  0.00    +0.000 A 
ATOM      9  C   UNL     1       3.819   6.022  17.954  0.00  0.00    +0.000 A 
ATOM     10  C   UNL     1       5.075   6.517  17.569  0.00  0.00    +0.000 A 
ATOM     11  C   UNL     1       5.938   5.784  16.740  0.00  0.00    +0.000 A 
BRANCH   6  13
ATOM     12  C   UNL     1       6.049   4.043  14.020  0.00  0.00    +0.000 C 
ATOM     13  O   UNL     1       6.317   3.828  15.404  0.00  0.00    +0.000 OA
ENDBRANCH   6  13
BRANCH  11  14
ATOM     14  O   UNL     1       7.101   6.461  16.487  0.00  0.00    +0.000 OA
ATOM     15  C   UNL     1       7.525   7.467  17.393  0.00  0.00    +0.000 C 
ENDBRANCH  11  14
ENDBRANCH   1   9
BRANCH   3  16
ATOM     16  C   UNL     1       0.809   9.478  19.676  0.00  0.00    +0.000 A 
ATOM     17  C   UNL     1       0.641  10.094  20.919  0.00  0.00    +0.000 A 
ATOM     18  C   UNL     1      -0.122  11.258  21.042  0.00  0.00    +0.000 A 
ATOM     19  C   UNL     1      -0.764  11.801  19.907  0.00  0.00    +0.000 A 
ATOM     20  C   UNL     1      -0.618  11.174  18.653  0.00  0.00    +0.000 A 
ATOM     21  C   UNL     1       0.186  10.030  18.551  0.00  0.00    +0.000 A 
BRANCH  18  22
ATOM     22  O   UNL     1      -0.303  11.911  22.240  0.00  0.00    +0.000 OA
ATOM     23  C   UNL     1      -1.181  11.284  23.172  0.00  0.00    +0.000 C 
ENDBRANCH  18  22
BRANCH  19  24
ATOM     24  O   UNL     1      -1.557  12.899  20.159  0.00  0.00    +0.000 OA
ATOM     25  C   UNL     1      -2.954  12.667  20.282  0.00  0.00    +0.000 C 
ENDBRANCH  19  24
BRANCH  20  26
ATOM     26  O   UNL     1      -1.301  11.696  17.586  0.00  0.00    +0.000 OA
ATOM     27  C   UNL     1      -2.324  10.907  16.990  0.00  0.00    +0.000 C 
ENDBRANCH  20  26
ENDBRANCH   3  16
TORSDOF 7
ENDMDL
MODEL 6
REMARK VINA RESULT:      -7.1      2.056      9.064
REMARK  Name = 
REMARK  12 active torsions:
REMARK  status: ('A' for Active; 'I' for Inactive)
REMARK    1  A    between atoms: C_1  and  O_2
REMARK    2  A    between atoms: O_2  and  C_3
REMARK    3  A    between atoms: C_6  and  C_7
REMARK    4  A    between atoms: C_9  and  C_10
REMARK    5  A    between atoms: C_12  and  O_13
REMARK    6  A    between atoms: O_13  and  C_14
REMARK    7  A    between atoms: C_15  and  O_16
REMARK    8  A    between atoms: O_16  and  C_17
REMARK    9  A    between atoms: C_18  and  O_19
REMARK   10  A    between atoms: O_19  and  C_20
REMARK   11  A    between atoms: C_25  and  O_26
REMARK   12  A    between atoms: O_26  and  C_27
REMARK                            x       y       z     vdW  Elec       q    Type
REMARK                         _______ _______ _______ _____ _____    ______ ____
ROOT
ATOM      1  C   UNL     1       2.613   7.209  18.706  0.00  0.00    +0.000 A 
ATOM      2  N   UNL     1       1.937   8.286  18.378  0.00  0.00    +0.000 NA
ATOM      3  C   UNL     1       1.361   8.658  19.572  0.00  0.00    +0.000 A 
ATOM      4  N   UNL     1       1.664   7.851  20.601  0.00  0.00    +0.000 NA
ATOM      5  O   UNL     1       2.492   6.888  20.028  0.00  0.00    +0.000 OA
ENDROOT
BRANCH   1   9
ATOM      6  C   UNL     1       4.996   4.505  16.411  0.00  0.00    +0.000 A 
ATOM      7  C   UNL     1       5.237   5.885  16.353  0.00  0.00    +0.000 A 
ATOM      8  C   UNL     1       4.461   6.782  17.089  0.00  0.00    +0.000 A 
ATOM      9  C   UNL     1       3.402   6.319  17.873  0.00  0.00    +0.000 A 
ATOM     10  C   UNL     1       3.113   4.947  17.859  0.00  0.00    +0.000 A 
ATOM     11  C   UNL     1       3.889   4.032  17.131  0.00  0.00    +0.000 A 
BRANCH   6  13
ATOM     12  C   UNL     1       6.491   4.160  14.617  0.00  0.00    +0.000 C 
ATOM     13  O   UNL     1       5.809   3.625  15.750  0.00  0.00    +0.000 OA
ENDBRANCH   6  13
BRANCH  11  14
ATOM     14  O   UNL     1       3.433   2.749  17.268  0.00  0.00    +0.000 OA
ATOM     15  C   UNL     1       3.612   2.082  18.508  0.00  0.00    +0.000 C 
ENDBRANCH  11  14
ENDBRANCH   1   9
BRANCH   3  16
ATOM     16  C   UNL     1       0.493   9.823  19.670  0.00  0.00    +0.000 A 
ATOM     17  C   UNL     1       0.264  10.413  20.917  0.00  0.00    +0.000 A 
ATOM     18  C   UNL     1      -0.555  11.538  21.034  0.00  0.00    +0.000 A 
ATOM     19  C   UNL     1      -1.193  12.066  19.890  0.00  0.00    +0.000 A 
ATOM     20  C   UNL     1      -0.986  11.465  18.632  0.00  0.00    +0.000 A 
ATOM     21  C   UNL     1      -0.126  10.361  18.536  0.00  0.00    +0.000 A 
BRANCH  18  22
ATOM     22  O   UNL     1      -0.798  12.164  22.236  0.00  0.00    +0.000 OA
ATOM     23  C   UNL     1      -1.536  11.417  23.198  0.00  0.00    +0.000 C 
ENDBRANCH  18  22
BRANCH  19  24
ATOM     24  O   UNL     1      -2.043  13.123  20.136  0.00  0.00    +0.000 OA
ATOM     25  C   UNL     1      -3.427  12.821  20.243  0.00  0.00    +0.000 C 
ENDBRANCH  19  24
BRANCH  20  26
ATOM     26  O   UNL     1      -1.665  11.970  17.554  0.00  0.00    +0.000 OA
ATOM     27  C   UNL     1      -2.602  11.127  16.894  0.00  0.00    +0.000 C 
ENDBRANCH  20  26
ENDBRANCH   3  16
TORSDOF 7
ENDMDL
MODEL 7
REMARK VINA RESULT:      -7.1      1.765      3.161
REMARK  Name = 
REMARK  12 active torsions:
REMARK  status: ('A' for Active; 'I' for Inactive)
REMARK    1  A    between atoms: C_1  and  O_2
REMARK    2  A    between atoms: O_2  and  C_3
REMARK    3  A    between atoms: C_6  and  C_7
REMARK    4  A    between atoms: C_9  and  C_10
REMARK    5  A    between atoms: C_12  and  O_13
REMARK    6  A    between atoms: O_13  and  C_14
REMARK    7  A    between atoms: C_15  and  O_16
REMARK    8  A    between atoms: O_16  and  C_17
REMARK    9  A    between atoms: C_18  and  O_19
REMARK   10  A    between atoms: O_19  and  C_20
REMARK   11  A    between atoms: C_25  and  O_26
REMARK   12  A    between atoms: O_26  and  C_27
REMARK                            x       y       z     vdW  Elec       q    Type
REMARK                         _______ _______ _______ _____ _____    ______ ____
ROOT
ATOM      1  C   UNL     1       0.883   9.097  20.446  0.00  0.00    +0.000 A 
ATOM      2  N   UNL     1       1.268   7.879  20.751  0.00  0.00    +0.000 NA
ATOM      3  C   UNL     1       2.006   7.511  19.648  0.00  0.00    +0.000 A 
ATOM      4  N   UNL     1       2.080   8.456  18.698  0.00  0.00    +0.000 NA
ATOM      5  O   UNL     1       1.334   9.508  19.224  0.00  0.00    +0.000 OA
ENDROOT
BRANCH   1   9
ATOM      6  C   UNL     1      -1.482  11.924  22.609  0.00  0.00    +0.000 A 
ATOM      7  C   UNL     1      -1.100  10.714  23.209  0.00  0.00    +0.000 A 
ATOM      8  C   UNL     1      -0.336   9.776  22.512  0.00  0.00    +0.000 A 
ATOM      9  C   UNL     1       0.033  10.013  21.186  0.00  0.00    +0.000 A 
ATOM     10  C   UNL     1      -0.425  11.186  20.566  0.00  0.00    +0.000 A 
ATOM     11  C   UNL     1      -1.186  12.141  21.256  0.00  0.00    +0.000 A 
BRANCH   6  13
ATOM     12  C   UNL     1      -3.478  12.499  23.730  0.00  0.00    +0.000 C 
ATOM     13  O   UNL     1      -2.163  12.872  23.323  0.00  0.00    +0.000 OA
ENDBRANCH   6  13
BRANCH  11  14
ATOM     14  O   UNL     1      -1.516  13.205  20.461  0.00  0.00    +0.000 OA
ATOM     15  C   UNL     1      -0.657  14.334  20.429  0.00  0.00    +0.000 C 
ENDBRANCH  11  14
ENDBRANCH   1   9
BRANCH   3  16
ATOM     16  C   UNL     1       2.627   6.197  19.549  0.00  0.00    +0.000 A 
ATOM     17  C   UNL     1       3.455   5.902  18.463  0.00  0.00    +0.000 A 
ATOM     18  C   UNL     1       4.071   4.653  18.354  0.00  0.00    +0.000 A 
ATOM     19  C   UNL     1       3.825   3.660  19.327  0.00  0.00    +0.000 A 
ATOM     20  C   UNL     1       2.973   3.941  20.414  0.00  0.00    +0.000 A 
ATOM     21  C   UNL     1       2.401   5.216  20.522  0.00  0.00    +0.000 A 
BRANCH  18  22
ATOM     22  O   UNL     1       4.908   4.321  17.312  0.00  0.00    +0.000 OA
ATOM     23  C   UNL     1       6.229   4.852  17.372  0.00  0.00    +0.000 C 
ENDBRANCH  18  22
BRANCH  19  24
ATOM     24  O   UNL     1       4.415   2.441  19.074  0.00  0.00    +0.000 OA
ATOM     25  C   UNL     1       3.608   1.456  18.442  0.00  0.00    +0.000 C 
ENDBRANCH  19  24
BRANCH  20  26
ATOM     26  O   UNL     1       2.714   2.935  21.309  0.00  0.00    +0.000 OA
ATOM     27  C   UNL     1       1.356   2.630  21.603  0.00  0.00    +0.000 C 
ENDBRANCH  20  26
ENDBRANCH   3  16
TORSDOF 7
ENDMDL
MODEL 8
REMARK VINA RESULT:      -7.0      1.638      3.377
REMARK  Name = 
REMARK  12 active torsions:
REMARK  status: ('A' for Active; 'I' for Inactive)
REMARK    1  A    between atoms: C_1  and  O_2
REMARK    2  A    between atoms: O_2  and  C_3
REMARK    3  A    between atoms: C_6  and  C_7
REMARK    4  A    between atoms: C_9  and  C_10
REMARK    5  A    between atoms: C_12  and  O_13
REMARK    6  A    between atoms: O_13  and  C_14
REMARK    7  A    between atoms: C_15  and  O_16
REMARK    8  A    between atoms: O_16  and  C_17
REMARK    9  A    between atoms: C_18  and  O_19
REMARK   10  A    between atoms: O_19  and  C_20
REMARK   11  A    between atoms: C_25  and  O_26
REMARK   12  A    between atoms: O_26  and  C_27
REMARK                            x       y       z     vdW  Elec       q    Type
REMARK                         _______ _______ _______ _____ _____    ______ ____
ROOT
ATOM      1  C   UNL     1       1.063   9.351  19.494  0.00  0.00    +0.000 A 
ATOM      2  N   UNL     1       1.885   8.331  19.578  0.00  0.00    +0.000 NA
ATOM      3  C   UNL     1       2.264   8.139  18.268  0.00  0.00    +0.000 A 
ATOM      4  N   UNL     1       1.704   9.001  17.405  0.00  0.00    +0.000 NA
ATOM      5  O   UNL     1       0.906   9.804  18.216  0.00  0.00    +0.000 OA
ENDROOT
BRANCH   1   9
ATOM      6  C   UNL     1      -1.078  11.412  22.565  0.00  0.00    +0.000 A 
ATOM      7  C   UNL     1      -0.648  10.092  22.766  0.00  0.00    +0.000 A 
ATOM      8  C   UNL     1       0.044   9.402  21.769  0.00  0.00    +0.000 A 
ATOM      9  C   UNL     1       0.289  10.006  20.534  0.00  0.00    +0.000 A 
ATOM     10  C   UNL     1      -0.219  11.295  20.310  0.00  0.00    +0.000 A 
ATOM     11  C   UNL     1      -0.909  12.003  21.305  0.00  0.00    +0.000 A 
BRANCH   6  13
ATOM     12  C   UNL     1      -3.112  12.132  23.525  0.00  0.00    +0.000 C 
ATOM     13  O   UNL     1      -1.686  12.109  23.573  0.00  0.00    +0.000 OA
ENDBRANCH   6  13
BRANCH  11  14
ATOM     14  O   UNL     1      -1.307  13.240  20.872  0.00  0.00    +0.000 OA
ATOM     15  C   UNL     1      -0.906  13.681  19.584  0.00  0.00    +0.000 C 
ENDBRANCH  11  14
ENDBRANCH   1   9
BRANCH   3  16
ATOM     16  C   UNL     1       3.182   7.075  17.887  0.00  0.00    +0.000 A 
ATOM     17  C   UNL     1       4.452   7.396  17.403  0.00  0.00    +0.000 A 
ATOM     18  C   UNL     1       5.354   6.392  17.043  0.00  0.00    +0.000 A 
ATOM     19  C   UNL     1       4.969   5.036  17.130  0.00  0.00    +0.000 A 
ATOM     20  C   UNL     1       3.682   4.703  17.597  0.00  0.00    +0.000 A 
ATOM     21  C   UNL     1       2.811   5.729  17.991  0.00  0.00    +0.000 A 
BRANCH  18  22
ATOM     22  O   UNL     1       6.622   6.658  16.576  0.00  0.00    +0.000 OA
ATOM     23  C   UNL     1       7.537   7.210  17.519  0.00  0.00    +0.000 C 
ENDBRANCH  18  22
BRANCH  19  24
ATOM     24  O   UNL     1       5.906   4.137  16.670  0.00  0.00    +0.000 OA
ATOM     25  C   UNL     1       5.858   3.812  15.287  0.00  0.00    +0.000 C 
ENDBRANCH  19  24
BRANCH  20  26
ATOM     26  O   UNL     1       3.324   3.380  17.615  0.00  0.00    +0.000 OA
ATOM     27  C   UNL     1       3.682   2.601  18.750  0.00  0.00    +0.000 C 
ENDBRANCH  20  26
ENDBRANCH   3  16
TORSDOF 7
ENDMDL
MODEL 9
REMARK VINA RESULT:      -7.0      2.021      2.958
REMARK  Name = 
REMARK  12 active torsions:
REMARK  status: ('A' for Active; 'I' for Inactive)
REMARK    1  A    between atoms: C_1  and  O_2
REMARK    2  A    between atoms: O_2  and  C_3
REMARK    3  A    between atoms: C_6  and  C_7
REMARK    4  A    between atoms: C_9  and  C_10
REMARK    5  A    between atoms: C_12  and  O_13
REMARK    6  A    between atoms: O_13  and  C_14
REMARK    7  A    between atoms: C_15  and  O_16
REMARK    8  A    between atoms: O_16  and  C_17
REMARK    9  A    between atoms: C_18  and  O_19
REMARK   10  A    between atoms: O_19  and  C_20
REMARK   11  A    between atoms: C_25  and  O_26
REMARK   12  A    between atoms: O_26  and  C_27
REMARK                            x       y       z     vdW  Elec       q    Type
REMARK                         _______ _______ _______ _____ _____    ______ ____
ROOT
ATOM      1  C   UNL     1       1.252   7.950  20.670  0.00  0.00    +0.000 A 
ATOM      2  N   UNL     1       2.079   7.843  19.656  0.00  0.00    +0.000 NA
ATOM      3  C   UNL     1       2.389   6.501  19.658  0.00  0.00    +0.000 A 
ATOM      4  N   UNL     1       1.782   5.801  20.629  0.00  0.00    +0.000 NA
ATOM      5  O   UNL     1       1.029   6.760  21.303  0.00  0.00    +0.000 OA
ENDROOT
BRANCH   1   9
ATOM      6  C   UNL     1      -0.481  11.495  22.310  0.00  0.00    +0.000 A 
ATOM      7  C   UNL     1      -0.695  10.252  22.925  0.00  0.00    +0.000 A 
ATOM      8  C   UNL     1      -0.144   9.084  22.396  0.00  0.00    +0.000 A 
ATOM      9  C   UNL     1       0.604   9.129  21.218  0.00  0.00    +0.000 A 
ATOM     10  C   UNL     1       0.742  10.362  20.562  0.00  0.00    +0.000 A 
ATOM     11  C   UNL     1       0.201  11.545  21.086  0.00  0.00    +0.000 A 
BRANCH   6  13
ATOM     12  C   UNL     1      -2.376  12.799  22.842  0.00  0.00    +0.000 C 
ATOM     13  O   UNL     1      -0.958  12.646  22.876  0.00  0.00    +0.000 OA
ENDBRANCH   6  13
BRANCH  11  14
ATOM     14  O   UNL     1       0.463  12.626  20.288  0.00  0.00    +0.000 OA
ATOM     15  C   UNL     1       1.649  12.637  19.509  0.00  0.00    +0.000 C 
ENDBRANCH  11  14
ENDBRANCH   1   9
BRANCH   3  16
ATOM     16  C   UNL     1       3.309   5.928  18.686  0.00  0.00    +0.000 A 
ATOM     17  C   UNL     1       3.254   4.561  18.401  0.00  0.00    +0.000 A 
ATOM     18  C   UNL     1       4.119   3.992  17.464  0.00  0.00    +0.000 A 
ATOM     19  C   UNL     1       5.088   4.795  16.822  0.00  0.00    +0.000 A 
ATOM     20  C   UNL     1       5.166   6.170  17.119  0.00  0.00    +0.000 A 
ATOM     21  C   UNL     1       4.259   6.724  18.034  0.00  0.00    +0.000 A 
BRANCH  18  22
ATOM     22  O   UNL     1       4.092   2.655  17.137  0.00  0.00    +0.000 OA
ATOM     23  C   UNL     1       3.487   1.786  18.090  0.00  0.00    +0.000 C 
ENDBRANCH  18  22
BRANCH  19  24
ATOM     24  O   UNL     1       5.941   4.113  15.982  0.00  0.00    +0.000 OA
ATOM     25  C   UNL     1       5.723   4.265  14.585  0.00  0.00    +0.000 C 
ENDBRANCH  19  24
BRANCH  20  26
ATOM     26  O   UNL     1       6.155   6.906  16.520  0.00  0.00    +0.000 OA
ATOM     27  C   UNL     1       7.208   7.407  17.334  0.00  0.00    +0.000 C 
ENDBRANCH  20  26
ENDBRANCH   3  16
TORSDOF 7
ENDMDL
