MODEL 1
REMARK VINA RESULT:      -8.6      0.000      0.000
REMARK  Name = 
REMARK  7 active torsions:
REMARK  status: ('A' for Active; 'I' for Inactive)
REMARK    1  A    between atoms: C_1  and  C_2
REMARK    2  A    between atoms: C_2  and  C_3
REMARK    3  A    between atoms: C_5  and  N_6
REMARK    4  A    between atoms: C_9  and  O_10
REMARK    5  A    between atoms: O_10  and  C_11
REMARK    6  A    between atoms: C_11  and  C_12
REMARK    7  A    between atoms: C_23  and  C_24
REMARK                            x       y       z     vdW  Elec       q    Type
REMARK                         _______ _______ _______ _____ _____    ______ ____
ROOT
ATOM      1  N   UNL     1       1.126   9.205  19.252  0.00  0.00    +0.000 N 
ATOM      2  C   UNL     1       1.278   8.110  20.084  0.00  0.00    +0.000 A 
ATOM      3  C   UNL     1       2.162   7.151  19.803  0.00  0.00    +0.000 A 
ATOM      4  C   UNL     1       2.946   7.228  18.590  0.00  0.00    +0.000 A 
ATOM      5  C   UNL     1       2.875   8.308  17.802  0.00  0.00    +0.000 A 
ATOM      6  C   UNL     1       1.955   9.422  18.142  0.00  0.00    +0.000 A 
ATOM      7  O   UNL     1       1.956  10.417  17.422  0.00  0.00    +0.000 OA
ENDROOT
BRANCH   1  12
ATOM      8  C   UNL     1      -0.863  11.339  22.881  0.00  0.00    +0.000 C 
ATOM      9  C   UNL     1      -0.405  11.820  21.499  0.00  0.00    +0.000 C 
ATOM     10  C   UNL     1       0.413  13.109  21.621  0.00  0.00    +0.000 C 
ATOM     11  C   UNL     1       0.478  10.772  20.896  0.00  0.00    +0.000 C 
ATOM     12  C   UNL     1       0.253  10.176  19.720  0.00  0.00    +0.000 C 
ATOM     13  C   UNL     1      -0.942  10.605  18.969  0.00  0.00    +0.000 A 
ATOM     14  C   UNL     1      -1.241  10.136  17.674  0.00  0.00    +0.000 A 
ATOM     15  C   UNL     1      -2.394  10.552  16.996  0.00  0.00    +0.000 A 
ATOM     16  C   UNL     1      -3.243  11.483  17.590  0.00  0.00    +0.000 A 
ATOM     17  C   UNL     1      -2.938  11.988  18.855  0.00  0.00    +0.000 A 
ATOM     18  C   UNL     1      -1.796  11.555  19.539  0.00  0.00    +0.000 A 
ATOM     19  O   UNL     1      -1.601  12.131  20.762  0.00  0.00    +0.000 OA
BRANCH  15  20
ATOM     20  C   UNL     1      -2.697  10.006  15.704  0.00  0.00    +0.000 C 
ATOM     21  N   UNL     1      -2.939   9.540  14.670  0.00  0.00    +0.000 NA
ENDBRANCH  15  20
ENDBRANCH   1  12
BRANCH   4  22
ATOM     22  O   UNL     1       3.784   6.187  18.252  0.00  0.00    +0.000 OA
BRANCH  22  23
ATOM     23  C   UNL     1       3.169   5.037  17.662  0.00  0.00    +0.000 C 
BRANCH  23  24
ATOM     24  C   UNL     1       2.596   4.143  18.725  0.00  0.00    +0.000 A 
ATOM     25  C   UNL     1       1.263   3.714  18.688  0.00  0.00    +0.000 A 
ATOM     26  C   UNL     1       0.751   2.928  19.715  0.00  0.00    +0.000 A 
ATOM     27  C   UNL     1       1.571   2.540  20.774  0.00  0.00    +0.000 A 
ATOM     28  C   UNL     1       2.912   2.919  20.795  0.00  0.00    +0.000 A 
ATOM     29  C   UNL     1       3.424   3.713  19.772  0.00  0.00    +0.000 A 
ENDBRANCH  23  24
ENDBRANCH  22  23
ENDBRANCH   4  22
TORSDOF 5
ENDMDL
MODEL 2
REMARK VINA RESULT:      -8.4      1.937      2.933
REMARK  Name = 
REMARK  7 active torsions:
REMARK  status: ('A' for Active; 'I' for Inactive)
REMARK    1  A    between atoms: C_1  and  C_2
REMARK    2  A    between atoms: C_2  and  C_3
REMARK    3  A    between atoms: C_5  and  N_6
REMARK    4  A    between atoms: C_9  and  O_10
REMARK    5  A    between atoms: O_10  and  C_11
REMARK    6  A    between atoms: C_11  and  C_12
REMARK    7  A    between atoms: C_23  and  C_24
REMARK                            x       y       z     vdW  Elec       q    Type
REMARK                         _______ _______ _______ _____ _____    ______ ____
ROOT
ATOM      1  N   UNL     1       0.987   9.058  19.433  0.00  0.00    +0.000 N 
ATOM      2  C   UNL     1       1.052   8.026  20.351  0.00  0.00    +0.000 A 
ATOM      3  C   UNL     1       1.853   6.978  20.151  0.00  0.00    +0.000 A 
ATOM      4  C   UNL     1       2.634   6.890  18.937  0.00  0.00    +0.000 A 
ATOM      5  C   UNL     1       2.648   7.905  18.064  0.00  0.00    +0.000 A 
ATOM      6  C   UNL     1       1.826   9.115  18.310  0.00  0.00    +0.000 A 
ATOM      7  O   UNL     1       1.904  10.045  17.511  0.00  0.00    +0.000 OA
ENDROOT
BRANCH   1  12
ATOM      8  C   UNL     1      -0.819  11.624  22.873  0.00  0.00    +0.000 C 
ATOM      9  C   UNL     1      -0.319  11.958  21.461  0.00  0.00    +0.000 C 
ATOM     10  C   UNL     1       0.606  13.178  21.493  0.00  0.00    +0.000 C 
ATOM     11  C   UNL     1       0.472  10.796  20.947  0.00  0.00    +0.000 C 
ATOM     12  C   UNL     1       0.200  10.133  19.818  0.00  0.00    +0.000 C 
ATOM     13  C   UNL     1      -0.953  10.604  19.026  0.00  0.00    +0.000 A 
ATOM     14  C   UNL     1      -1.289  10.065  17.768  0.00  0.00    +0.000 A 
ATOM     15  C   UNL     1      -2.401  10.524  17.051  0.00  0.00    +0.000 A 
ATOM     16  C   UNL     1      -3.168  11.567  17.566  0.00  0.00    +0.000 A 
ATOM     17  C   UNL     1      -2.823  12.139  18.791  0.00  0.00    +0.000 A 
ATOM     18  C   UNL     1      -1.724  11.664  19.516  0.00  0.00    +0.000 A 
ATOM     19  O   UNL     1      -1.483  12.312  20.693  0.00  0.00    +0.000 OA
BRANCH  15  20
ATOM     20  C   UNL     1      -2.747   9.909  15.802  0.00  0.00    +0.000 C 
ATOM     21  N   UNL     1      -3.052   9.419  14.796  0.00  0.00    +0.000 NA
ENDBRANCH  15  20
ENDBRANCH   1  12
BRANCH   4  22
ATOM     22  O   UNL     1       3.382   5.760  18.686  0.00  0.00    +0.000 OA
BRANCH  22  23
ATOM     23  C   UNL     1       4.219   5.792  17.526  0.00  0.00    +0.000 C 
BRANCH  23  24
ATOM     24  C   UNL     1       5.633   6.129  17.906  0.00  0.00    +0.000 A 
ATOM     25  C   UNL     1       6.314   5.426  18.909  0.00  0.00    +0.000 A 
ATOM     26  C   UNL     1       7.605   5.796  19.271  0.00  0.00    +0.000 A 
ATOM     27  C   UNL     1       8.238   6.853  18.618  0.00  0.00    +0.000 A 
ATOM     28  C   UNL     1       7.589   7.526  17.585  0.00  0.00    +0.000 A 
ATOM     29  C   UNL     1       6.294   7.162  17.227  0.00  0.00    +0.000 A 
ENDBRANCH  23  24
ENDBRANCH  22  23
ENDBRANCH   4  22
TORSDOF 5
ENDMDL
MODEL 3
REMARK VINA RESULT:      -8.4      2.476      8.403
REMARK  Name = 
REMARK  7 active torsions:
REMARK  status: ('A' for Active; 'I' for Inactive)
REMARK    1  A    between atoms: C_1  and  C_2
REMARK    2  A    between atoms: C_2  and  C_3
REMARK    3  A    between atoms: C_5  and  N_6
REMARK    4  A    between atoms: C_9  and  O_10
REMARK    5  A    between atoms: O_10  and  C_11
REMARK    6  A    between atoms: C_11  and  C_12
REMARK    7  A    between atoms: C_23  and  C_24
REMARK                            x       y       z     vdW  Elec       q    Type
REMARK                         _______ _______ _______ _____ _____    ______ ____
ROOT
ATOM      1  N   UNL     1       2.437   7.022  18.719  0.00  0.00    +0.000 N 
ATOM      2  C   UNL     1       2.532   7.873  17.633  0.00  0.00    +0.000 A 
ATOM      3  C   UNL     1       2.007   9.099  17.673  0.00  0.00    +0.000 A 
ATOM      4  C   UNL     1       1.289   9.537  18.849  0.00  0.00    +0.000 A 
ATOM      5  C   UNL     1       1.241   8.765  19.942  0.00  0.00    +0.000 A 
ATOM      6  C   UNL     1       1.888   7.430  19.944  0.00  0.00    +0.000 A 
ATOM      7  O   UNL     1       1.866   6.773  20.982  0.00  0.00    +0.000 OA
ENDROOT
BRANCH   1  12
ATOM      8  C   UNL     1       2.863   2.539  19.901  0.00  0.00    +0.000 C 
ATOM      9  C   UNL     1       3.111   3.313  18.600  0.00  0.00    +0.000 C 
ATOM     10  C   UNL     1       2.470   2.589  17.412  0.00  0.00    +0.000 C 
ATOM     11  C   UNL     1       2.471   4.661  18.716  0.00  0.00    +0.000 C 
ATOM     12  C   UNL     1       3.119   5.823  18.581  0.00  0.00    +0.000 C 
ATOM     13  C   UNL     1       4.561   5.754  18.279  0.00  0.00    +0.000 A 
ATOM     14  C   UNL     1       5.343   6.896  18.011  0.00  0.00    +0.000 A 
ATOM     15  C   UNL     1       6.714   6.795  17.744  0.00  0.00    +0.000 A 
ATOM     16  C   UNL     1       7.315   5.540  17.697  0.00  0.00    +0.000 A 
ATOM     17  C   UNL     1       6.546   4.396  17.920  0.00  0.00    +0.000 A 
ATOM     18  C   UNL     1       5.180   4.501  18.207  0.00  0.00    +0.000 A 
ATOM     19  O   UNL     1       4.535   3.312  18.395  0.00  0.00    +0.000 OA
BRANCH  15  20
ATOM     20  C   UNL     1       7.489   7.985  17.536  0.00  0.00    +0.000 C 
ATOM     21  N   UNL     1       8.115   8.941  17.342  0.00  0.00    +0.000 NA
ENDBRANCH  15  20
ENDBRANCH   1  12
BRANCH   4  22
ATOM     22  O   UNL     1       0.661  10.764  18.849  0.00  0.00    +0.000 OA
BRANCH  22  23
ATOM     23  C   UNL     1      -0.629  10.823  19.466  0.00  0.00    +0.000 C 
BRANCH  23  24
ATOM     24  C   UNL     1      -1.712  10.765  18.427  0.00  0.00    +0.000 A 
ATOM     25  C   UNL     1      -1.613   9.933  17.304  0.00  0.00    +0.000 A 
ATOM     26  C   UNL     1      -2.612   9.942  16.335  0.00  0.00    +0.000 A 
ATOM     27  C   UNL     1      -3.730  10.759  16.491  0.00  0.00    +0.000 A 
ATOM     28  C   UNL     1      -3.863  11.553  17.629  0.00  0.00    +0.000 A 
ATOM     29  C   UNL     1      -2.861  11.552  18.595  0.00  0.00    +0.000 A 
ENDBRANCH  23  24
ENDBRANCH  22  23
ENDBRANCH   4  22
TORSDOF 5
ENDMDL
MODEL 4
REMARK VINA RESULT:      -8.4      2.312      8.137
REMARK  Name = 
REMARK  7 active torsions:
REMARK  status: ('A' for Active; 'I' for Inactive)
REMARK    1  A    between atoms: C_1  and  C_2
REMARK    2  A    between atoms: C_2  and  C_3
REMARK    3  A    between atoms: C_5  and  N_6
REMARK    4  A    between atoms: C_9  and  O_10
REMARK    5  A    between atoms: O_10  and  C_11
REMARK    6  A    between atoms: C_11  and  C_12
REMARK    7  A    between atoms: C_23  and  C_24
REMARK                            x       y       z     vdW  Elec       q    Type
REMARK                         _______ _______ _______ _____ _____    ______ ____
ROOT
ATOM      1  N   UNL     1       1.980   7.185  19.281  0.00  0.00    +0.000 N 
ATOM      2  C   UNL     1       2.115   7.721  18.013  0.00  0.00    +0.000 A 
ATOM      3  C   UNL     1       1.774   8.986  17.762  0.00  0.00    +0.000 A 
ATOM      4  C   UNL     1       1.212   9.802  18.815  0.00  0.00    +0.000 A 
ATOM      5  C   UNL     1       1.136   9.336  20.069  0.00  0.00    +0.000 A 
ATOM      6  C   UNL     1       1.586   7.958  20.382  0.00  0.00    +0.000 A 
ATOM      7  O   UNL     1       1.547   7.585  21.552  0.00  0.00    +0.000 OA
ENDROOT
BRANCH   1  12
ATOM      8  C   UNL     1       1.963   3.165  21.631  0.00  0.00    +0.000 C 
ATOM      9  C   UNL     1       2.138   3.517  20.148  0.00  0.00    +0.000 C 
ATOM     10  C   UNL     1       1.255   2.620  19.275  0.00  0.00    +0.000 C 
ATOM     11  C   UNL     1       1.702   4.934  19.938  0.00  0.00    +0.000 C 
ATOM     12  C   UNL     1       2.474   5.897  19.424  0.00  0.00    +0.000 C 
ATOM     13  C   UNL     1       3.842   5.516  19.024  0.00  0.00    +0.000 A 
ATOM     14  C   UNL     1       4.725   6.403  18.376  0.00  0.00    +0.000 A 
ATOM     15  C   UNL     1       6.024   6.013  18.025  0.00  0.00    +0.000 A 
ATOM     16  C   UNL     1       6.442   4.709  18.280  0.00  0.00    +0.000 A 
ATOM     17  C   UNL     1       5.566   3.807  18.883  0.00  0.00    +0.000 A 
ATOM     18  C   UNL     1       4.275   4.205  19.252  0.00  0.00    +0.000 A 
ATOM     19  O   UNL     1       3.509   3.229  19.823  0.00  0.00    +0.000 OA
BRANCH  15  20
ATOM     20  C   UNL     1       6.915   6.962  17.422  0.00  0.00    +0.000 C 
ATOM     21  N   UNL     1       7.628   7.747  16.953  0.00  0.00    +0.000 NA
ENDBRANCH  15  20
ENDBRANCH   1  12
BRANCH   4  22
ATOM     22  O   UNL     1       0.767  11.075  18.529  0.00  0.00    +0.000 OA
BRANCH  22  23
ATOM     23  C   UNL     1      -0.379  11.530  19.258  0.00  0.00    +0.000 C 
BRANCH  23  24
ATOM     24  C   UNL     1      -1.641  11.195  18.515  0.00  0.00    +0.000 A 
ATOM     25  C   UNL     1      -1.666  10.227  17.503  0.00  0.00    +0.000 A 
ATOM     26  C   UNL     1      -2.841   9.978  16.801  0.00  0.00    +0.000 A 
ATOM     27  C   UNL     1      -4.008  10.670  17.121  0.00  0.00    +0.000 A 
ATOM     28  C   UNL     1      -4.006  11.598  18.161  0.00  0.00    +0.000 A 
ATOM     29  C   UNL     1      -2.829  11.856  18.859  0.00  0.00    +0.000 A 
ENDBRANCH  23  24
ENDBRANCH  22  23
ENDBRANCH   4  22
TORSDOF 5
ENDMDL
MODEL 5
REMARK VINA RESULT:      -8.3      1.294      1.864
REMARK  Name = 
REMARK  7 active torsions:
REMARK  status: ('A' for Active; 'I' for Inactive)
REMARK    1  A    between atoms: C_1  and  C_2
REMARK    2  A    between atoms: C_2  and  C_3
REMARK    3  A    between atoms: C_5  and  N_6
REMARK    4  A    between atoms: C_9  and  O_10
REMARK    5  A    between atoms: O_10  and  C_11
REMARK    6  A    between atoms: C_11  and  C_12
REMARK    7  A    between atoms: C_23  and  C_24
REMARK                            x       y       z     vdW  Elec       q    Type
REMARK                         _______ _______ _______ _____ _____    ______ ____
ROOT
ATOM      1  N   UNL     1       1.034   9.428  19.493  0.00  0.00    +0.000 N 
ATOM      2  C   UNL     1       1.507   9.621  18.208  0.00  0.00    +0.000 A 
ATOM      3  C   UNL     1       2.315   8.730  17.631  0.00  0.00    +0.000 A 
ATOM      4  C   UNL     1       2.745   7.564  18.371  0.00  0.00    +0.000 A 
ATOM      5  C   UNL     1       2.249   7.311  19.589  0.00  0.00    +0.000 A 
ATOM      6  C   UNL     1       1.286   8.251  20.214  0.00  0.00    +0.000 A 
ATOM      7  O   UNL     1       0.816   7.959  21.310  0.00  0.00    +0.000 OA
ENDROOT
BRANCH   1  12
ATOM      8  C   UNL     1      -1.114  11.541  23.043  0.00  0.00    +0.000 C 
ATOM      9  C   UNL     1      -0.638  12.019  21.665  0.00  0.00    +0.000 C 
ATOM     10  C   UNL     1       0.133  13.336  21.789  0.00  0.00    +0.000 C 
ATOM     11  C   UNL     1       0.293  10.994  21.098  0.00  0.00    +0.000 C 
ATOM     12  C   UNL     1       0.118  10.374  19.926  0.00  0.00    +0.000 C 
ATOM     13  C   UNL     1      -1.072  10.753  19.140  0.00  0.00    +0.000 A 
ATOM     14  C   UNL     1      -1.324  10.257  17.845  0.00  0.00    +0.000 A 
ATOM     15  C   UNL     1      -2.473  10.625  17.133  0.00  0.00    +0.000 A 
ATOM     16  C   UNL     1      -3.366  11.534  17.694  0.00  0.00    +0.000 A 
ATOM     17  C   UNL     1      -3.110  12.066  18.959  0.00  0.00    +0.000 A 
ATOM     18  C   UNL     1      -1.971  11.681  19.676  0.00  0.00    +0.000 A 
ATOM     19  O   UNL     1      -1.826  12.279  20.895  0.00  0.00    +0.000 OA
BRANCH  15  20
ATOM     20  C   UNL     1      -2.726  10.051  15.843  0.00  0.00    +0.000 C 
ATOM     21  N   UNL     1      -2.950   9.574  14.810  0.00  0.00    +0.000 NA
ENDBRANCH  15  20
ENDBRANCH   1  12
BRANCH   4  22
ATOM     22  O   UNL     1       3.659   6.698  17.811  0.00  0.00    +0.000 OA
BRANCH  22  23
ATOM     23  C   UNL     1       4.378   5.854  18.716  0.00  0.00    +0.000 C 
BRANCH  23  24
ATOM     24  C   UNL     1       3.921   4.429  18.582  0.00  0.00    +0.000 A 
ATOM     25  C   UNL     1       4.351   3.431  19.466  0.00  0.00    +0.000 A 
ATOM     26  C   UNL     1       3.948   2.113  19.284  0.00  0.00    +0.000 A 
ATOM     27  C   UNL     1       3.091   1.781  18.235  0.00  0.00    +0.000 A 
ATOM     28  C   UNL     1       2.617   2.775  17.380  0.00  0.00    +0.000 A 
ATOM     29  C   UNL     1       3.026   4.094  17.556  0.00  0.00    +0.000 A 
ENDBRANCH  23  24
ENDBRANCH  22  23
ENDBRANCH   4  22
TORSDOF 5
ENDMDL
MODEL 6
REMARK VINA RESULT:      -8.2      2.233      8.051
REMARK  Name = 
REMARK  7 active torsions:
REMARK  status: ('A' for Active; 'I' for Inactive)
REMARK    1  A    between atoms: C_1  and  C_2
REMARK    2  A    between atoms: C_2  and  C_3
REMARK    3  A    between atoms: C_5  and  N_6
REMARK    4  A    between atoms: C_9  and  O_10
REMARK    5  A    between atoms: O_10  and  C_11
REMARK    6  A    between atoms: C_11  and  C_12
REMARK    7  A    between atoms: C_23  and  C_24
REMARK                            x       y       z     vdW  Elec       q    Type
REMARK                         _______ _______ _______ _____ _____    ______ ____
ROOT
ATOM      1  N   UNL     1       2.043   7.237  19.668  0.00  0.00    +0.000 N 
ATOM      2  C   UNL     1       1.501   7.686  20.858  0.00  0.00    +0.000 A 
ATOM      3  C   UNL     1       0.954   8.900  20.949  0.00  0.00    +0.000 A 
ATOM      4  C   UNL     1       0.964   9.782  19.803  0.00  0.00    +0.000 A 
ATOM      5  C   UNL     1       1.416   9.351  18.618  0.00  0.00    +0.000 A 
ATOM      6  C   UNL     1       1.954   7.975  18.479  0.00  0.00    +0.000 A 
ATOM      7  O   UNL     1       2.312   7.601  17.365  0.00  0.00    +0.000 OA
ENDROOT
BRANCH   1  12
ATOM      8  C   UNL     1       1.947   3.052  21.707  0.00  0.00    +0.000 C 
ATOM      9  C   UNL     1       2.059   3.510  20.247  0.00  0.00    +0.000 C 
ATOM     10  C   UNL     1       1.086   2.725  19.362  0.00  0.00    +0.000 C 
ATOM     11  C   UNL     1       1.686   4.957  20.169  0.00  0.00    +0.000 C 
ATOM     12  C   UNL     1       2.477   5.920  19.685  0.00  0.00    +0.000 C 
ATOM     13  C   UNL     1       3.800   5.507  19.179  0.00  0.00    +0.000 A 
ATOM     14  C   UNL     1       4.691   6.400  18.550  0.00  0.00    +0.000 A 
ATOM     15  C   UNL     1       5.947   5.978  18.096  0.00  0.00    +0.000 A 
ATOM     16  C   UNL     1       6.312   4.640  18.227  0.00  0.00    +0.000 A 
ATOM     17  C   UNL     1       5.424   3.736  18.811  0.00  0.00    +0.000 A 
ATOM     18  C   UNL     1       4.177   4.164  19.283  0.00  0.00    +0.000 A 
ATOM     19  O   UNL     1       3.395   3.184  19.823  0.00  0.00    +0.000 OA
BRANCH  15  20
ATOM     20  C   UNL     1       6.851   6.929  17.515  0.00  0.00    +0.000 C 
ATOM     21  N   UNL     1       7.577   7.687  17.022  0.00  0.00    +0.000 NA
ENDBRANCH  15  20
ENDBRANCH   1  12
BRANCH   4  22
ATOM     22  O   UNL     1       0.490  11.070  19.929  0.00  0.00    +0.000 OA
BRANCH  22  23
ATOM     23  C   UNL     1       0.037  11.704  18.728  0.00  0.00    +0.000 C 
BRANCH  23  24
ATOM     24  C   UNL     1      -1.404  11.370  18.467  0.00  0.00    +0.000 A 
ATOM     25  C   UNL     1      -1.774  10.337  17.596  0.00  0.00    +0.000 A 
ATOM     26  C   UNL     1      -3.118  10.087  17.338  0.00  0.00    +0.000 A 
ATOM     27  C   UNL     1      -4.105  10.845  17.967  0.00  0.00    +0.000 A 
ATOM     28  C   UNL     1      -3.748  11.841  18.874  0.00  0.00    +0.000 A 
ATOM     29  C   UNL     1      -2.403  12.099  19.127  0.00  0.00    +0.000 A 
ENDBRANCH  23  24
ENDBRANCH  22  23
ENDBRANCH   4  22
TORSDOF 5
ENDMDL
MODEL 7
REMARK VINA RESULT:      -8.2      2.550      8.349
REMARK  Name = 
REMARK  7 active torsions:
REMARK  status: ('A' for Active; 'I' for Inactive)
REMARK    1  A    between atoms: C_1  and  C_2
REMARK    2  A    between atoms: C_2  and  C_3
REMARK    3  A    between atoms: C_5  and  N_6
REMARK    4  A    between atoms: C_9  and  O_10
REMARK    5  A    between atoms: O_10  and  C_11
REMARK    6  A    between atoms: C_11  and  C_12
REMARK    7  A    between atoms: C_23  and  C_24
REMARK                            x       y       z     vdW  Elec       q    Type
REMARK                         _______ _______ _______ _____ _____    ______ ____
ROOT
ATOM      1  N   UNL     1       2.667   7.103  18.939  0.00  0.00    +0.000 N 
ATOM      2  C   UNL     1       2.060   7.217  20.177  0.00  0.00    +0.000 A 
ATOM      3  C   UNL     1       1.317   8.282  20.482  0.00  0.00    +0.000 A 
ATOM      4  C   UNL     1       1.175   9.358  19.527  0.00  0.00    +0.000 A 
ATOM      5  C   UNL     1       1.690   9.246  18.296  0.00  0.00    +0.000 A 
ATOM      6  C   UNL     1       2.452   8.033  17.912  0.00  0.00    +0.000 A 
ATOM      7  O   UNL     1       2.865   7.946  16.758  0.00  0.00    +0.000 OA
ENDROOT
BRANCH   1  12
ATOM      8  C   UNL     1       3.013   2.551  19.857  0.00  0.00    +0.000 C 
ATOM      9  C   UNL     1       3.250   3.392  18.597  0.00  0.00    +0.000 C 
ATOM     10  C   UNL     1       2.564   2.751  17.386  0.00  0.00    +0.000 C 
ATOM     11  C   UNL     1       2.645   4.745  18.803  0.00  0.00    +0.000 C 
ATOM     12  C   UNL     1       3.317   5.898  18.718  0.00  0.00    +0.000 C 
ATOM     13  C   UNL     1       4.750   5.813  18.377  0.00  0.00    +0.000 A 
ATOM     14  C   UNL     1       5.553   6.951  18.154  0.00  0.00    +0.000 A 
ATOM     15  C   UNL     1       6.915   6.835  17.849  0.00  0.00    +0.000 A 
ATOM     16  C   UNL     1       7.484   5.570  17.718  0.00  0.00    +0.000 A 
ATOM     17  C   UNL     1       6.693   4.434  17.895  0.00  0.00    +0.000 A 
ATOM     18  C   UNL     1       5.337   4.553  18.221  0.00  0.00    +0.000 A 
ATOM     19  O   UNL     1       4.668   3.370  18.357  0.00  0.00    +0.000 OA
BRANCH  15  20
ATOM     20  C   UNL     1       7.713   8.016  17.689  0.00  0.00    +0.000 C 
ATOM     21  N   UNL     1       8.362   8.971  17.586  0.00  0.00    +0.000 NA
ENDBRANCH  15  20
ENDBRANCH   1  12
BRANCH   4  22
ATOM     22  O   UNL     1       0.492  10.501  19.882  0.00  0.00    +0.000 OA
BRANCH  22  23
ATOM     23  C   UNL     1       0.106  11.373  18.815  0.00  0.00    +0.000 C 
BRANCH  23  24
ATOM     24  C   UNL     1      -1.338  11.159  18.457  0.00  0.00    +0.000 A 
ATOM     25  C   UNL     1      -2.355  11.964  18.985  0.00  0.00    +0.000 A 
ATOM     26  C   UNL     1      -3.686  11.706  18.673  0.00  0.00    +0.000 A 
ATOM     27  C   UNL     1      -4.012  10.662  17.808  0.00  0.00    +0.000 A 
ATOM     28  C   UNL     1      -3.004   9.887  17.237  0.00  0.00    +0.000 A 
ATOM     29  C   UNL     1      -1.673  10.138  17.555  0.00  0.00    +0.000 A 
ENDBRANCH  23  24
ENDBRANCH  22  23
ENDBRANCH   4  22
TORSDOF 5
ENDMDL
MODEL 8
REMARK VINA RESULT:      -8.2      1.640      2.545
REMARK  Name = 
REMARK  7 active torsions:
REMARK  status: ('A' for Active; 'I' for Inactive)
REMARK    1  A    between atoms: C_1  and  C_2
REMARK    2  A    between atoms: C_2  and  C_3
REMARK    3  A    between atoms: C_5  and  N_6
REMARK    4  A    between atoms: C_9  and  O_10
REMARK    5  A    between atoms: O_10  and  C_11
REMARK    6  A    between atoms: C_11  and  C_12
REMARK    7  A    between atoms: C_23  and  C_24
REMARK                            x       y       z     vdW  Elec       q    Type
REMARK                         _______ _______ _______ _____ _____    ______ ____
ROOT
ATOM      1  N   UNL     1       0.930   9.179  19.581  0.00  0.00    +0.000 N 
ATOM      2  C   UNL     1       1.001   8.175  20.530  0.00  0.00    +0.000 A 
ATOM      3  C   UNL     1       1.824   7.137  20.372  0.00  0.00    +0.000 A 
ATOM      4  C   UNL     1       2.624   7.029  19.173  0.00  0.00    +0.000 A 
ATOM      5  C   UNL     1       2.632   8.018  18.269  0.00  0.00    +0.000 A 
ATOM      6  C   UNL     1       1.783   9.219  18.468  0.00  0.00    +0.000 A 
ATOM      7  O   UNL     1       1.855  10.126  17.643  0.00  0.00    +0.000 OA
ENDROOT
BRANCH   1  12
ATOM      8  C   UNL     1      -0.982  11.802  22.919  0.00  0.00    +0.000 C 
ATOM      9  C   UNL     1      -0.463  12.107  21.508  0.00  0.00    +0.000 C 
ATOM     10  C   UNL     1       0.440  13.344  21.523  0.00  0.00    +0.000 C 
ATOM     11  C   UNL     1       0.357  10.946  21.039  0.00  0.00    +0.000 C 
ATOM     12  C   UNL     1       0.116  10.249  19.924  0.00  0.00    +0.000 C 
ATOM     13  C   UNL     1      -1.030  10.678  19.100  0.00  0.00    +0.000 A 
ATOM     14  C   UNL     1      -1.334  10.099  17.851  0.00  0.00    +0.000 A 
ATOM     15  C   UNL     1      -2.441  10.520  17.102  0.00  0.00    +0.000 A 
ATOM     16  C   UNL     1      -3.235  11.561  17.575  0.00  0.00    +0.000 A 
ATOM     17  C   UNL     1      -2.922  12.172  18.791  0.00  0.00    +0.000 A 
ATOM     18  C   UNL     1      -1.828  11.736  19.547  0.00  0.00    +0.000 A 
ATOM     19  O   UNL     1      -1.619  12.420  20.711  0.00  0.00    +0.000 OA
BRANCH  15  20
ATOM     20  C   UNL     1      -2.754   9.865  15.864  0.00  0.00    +0.000 C 
ATOM     21  N   UNL     1      -3.029   9.351  14.862  0.00  0.00    +0.000 NA
ENDBRANCH  15  20
ENDBRANCH   1  12
BRANCH   4  22
ATOM     22  O   UNL     1       3.397   5.907  18.965  0.00  0.00    +0.000 OA
BRANCH  22  23
ATOM     23  C   UNL     1       3.411   5.377  17.636  0.00  0.00    +0.000 C 
BRANCH  23  24
ATOM     24  C   UNL     1       4.820   5.102  17.194  0.00  0.00    +0.000 A 
ATOM     25  C   UNL     1       5.153   4.959  15.840  0.00  0.00    +0.000 A 
ATOM     26  C   UNL     1       6.458   4.655  15.469  0.00  0.00    +0.000 A 
ATOM     27  C   UNL     1       7.449   4.517  16.441  0.00  0.00    +0.000 A 
ATOM     28  C   UNL     1       7.139   4.708  17.786  0.00  0.00    +0.000 A 
ATOM     29  C   UNL     1       5.831   5.005  18.160  0.00  0.00    +0.000 A 
ENDBRANCH  23  24
ENDBRANCH  22  23
ENDBRANCH   4  22
TORSDOF 5
ENDMDL
MODEL 9
REMARK VINA RESULT:      -8.2      2.453      4.626
REMARK  Name = 
REMARK  7 active torsions:
REMARK  status: ('A' for Active; 'I' for Inactive)
REMARK    1  A    between atoms: C_1  and  C_2
REMARK    2  A    between atoms: C_2  and  C_3
REMARK    3  A    between atoms: C_5  and  N_6
REMARK    4  A    between atoms: C_9  and  O_10
REMARK    5  A    between atoms: O_10  and  C_11
REMARK    6  A    between atoms: C_11  and  C_12
REMARK    7  A    between atoms: C_23  and  C_24
REMARK                            x       y       z     vdW  Elec       q    Type
REMARK                         _______ _______ _______ _____ _____    ______ ____
ROOT
ATOM      1  N   UNL     1       0.923   9.355  18.950  0.00  0.00    +0.000 N 
ATOM      2  C   UNL     1       1.654   8.831  17.900  0.00  0.00    +0.000 A 
ATOM      3  C   UNL     1       2.441   7.767  18.074  0.00  0.00    +0.000 A 
ATOM      4  C   UNL     1       2.572   7.176  19.387  0.00  0.00    +0.000 A 
ATOM      5  C   UNL     1       1.825   7.615  20.408  0.00  0.00    +0.000 A 
ATOM      6  C   UNL     1       0.884   8.745  20.213  0.00  0.00    +0.000 A 
ATOM      7  O   UNL     1       0.179   9.086  21.160  0.00  0.00    +0.000 OA
ENDROOT
BRANCH   1  12
ATOM      8  C   UNL     1      -2.372  10.995  16.098  0.00  0.00    +0.000 C 
ATOM      9  C   UNL     1      -2.100  11.161  17.599  0.00  0.00    +0.000 C 
ATOM     10  C   UNL     1      -3.384  10.941  18.405  0.00  0.00    +0.000 C 
ATOM     11  C   UNL     1      -1.108  10.123  18.023  0.00  0.00    +0.000 C 
ATOM     12  C   UNL     1       0.066  10.389  18.605  0.00  0.00    +0.000 C 
ATOM     13  C   UNL     1       0.383  11.808  18.856  0.00  0.00    +0.000 A 
ATOM     14  C   UNL     1       1.536  12.224  19.553  0.00  0.00    +0.000 A 
ATOM     15  C   UNL     1       1.814  13.581  19.759  0.00  0.00    +0.000 A 
ATOM     16  C   UNL     1       0.915  14.543  19.307  0.00  0.00    +0.000 A 
ATOM     17  C   UNL     1      -0.252  14.146  18.651  0.00  0.00    +0.000 A 
ATOM     18  C   UNL     1      -0.517  12.790  18.428  0.00  0.00    +0.000 A 
ATOM     19  O   UNL     1      -1.695  12.529  17.788  0.00  0.00    +0.000 OA
BRANCH  15  20
ATOM     20  C   UNL     1       3.028  13.967  20.419  0.00  0.00    +0.000 C 
ATOM     21  N   UNL     1       4.007  14.258  20.968  0.00  0.00    +0.000 NA
ENDBRANCH  15  20
ENDBRANCH   1  12
BRANCH   4  22
ATOM     22  O   UNL     1       3.463   6.143  19.585  0.00  0.00    +0.000 OA
BRANCH  22  23
ATOM     23  C   UNL     1       3.420   5.072  18.636  0.00  0.00    +0.000 C 
BRANCH  23  24
ATOM     24  C   UNL     1       4.770   4.873  18.006  0.00  0.00    +0.000 A 
ATOM     25  C   UNL     1       5.954   5.166  18.694  0.00  0.00    +0.000 A 
ATOM     26  C   UNL     1       7.185   5.018  18.064  0.00  0.00    +0.000 A 
ATOM     27  C   UNL     1       7.248   4.551  16.751  0.00  0.00    +0.000 A 
ATOM     28  C   UNL     1       6.078   4.208  16.076  0.00  0.00    +0.000 A 
ATOM     29  C   UNL     1       4.845   4.363  16.702  0.00  0.00    +0.000 A 
ENDBRANCH  23  24
ENDBRANCH  22  23
ENDBRANCH   4  22
TORSDOF 5
ENDMDL
