MODEL 1
REMARK VINA RESULT:      -8.8      0.000      0.000
REMARK  Name = 
REMARK  4 active torsions:
REMARK  status: ('A' for Active; 'I' for Inactive)
REMARK    1  A    between atoms: C_5  and  O_6
REMARK    2  A    between atoms: O_6  and  C_7
REMARK    3  A    between atoms: C_7  and  C_8
REMARK    4  A    between atoms: C_8  and  N_9
REMARK                            x       y       z     vdW  Elec       q    Type
REMARK                         _______ _______ _______ _____ _____    ______ ____
ROOT
ATOM      1  N   UNL     1       3.294   4.075  19.111  0.00  0.00    +0.000 NA
ATOM      2  C   UNL     1       2.102   3.568  19.901  0.00  0.00    +0.000 C 
ATOM      3  C   UNL     1       1.265   3.317  18.579  0.00  0.00    +0.000 C 
ATOM      4  C   UNL     1       1.547   4.484  17.627  0.00  0.00    +0.000 C 
ATOM      5  C   UNL     1       2.773   5.163  18.232  0.00  0.00    +0.000 C 
ATOM      6  C   UNL     1       2.378   6.304  19.144  0.00  0.00    +0.000 A 
ATOM      7  C   UNL     1       2.054   6.066  20.463  0.00  0.00    +0.000 A 
ATOM      8  N   UNL     1       1.495   7.184  20.997  0.00  0.00    +0.000 N 
ATOM      9  C   UNL     1       1.502   8.195  20.045  0.00  0.00    +0.000 A 
ATOM     10  C   UNL     1       0.991   9.500  20.102  0.00  0.00    +0.000 A 
ATOM     11  C   UNL     1       1.201  10.331  18.998  0.00  0.00    +0.000 A 
ATOM     12  C   UNL     1       1.896   9.874  17.881  0.00  0.00    +0.000 A 
ATOM     13  C   UNL     1       2.353   8.551  17.811  0.00  0.00    +0.000 A 
ATOM     14  C   UNL     1       2.142   7.687  18.905  0.00  0.00    +0.000 A 
ATOM     15  C   UNL     1       2.214   4.710  21.077  0.00  0.00    +0.000 C 
ATOM     16  H   UNL     1       1.095   7.281  21.923  0.00  0.00    +0.000 HD
ENDROOT
BRANCH   1  17
ATOM     17  C   UNL     1       4.052   3.063  18.315  0.00  0.00    +0.000 C 
BRANCH  17  18
ATOM     18  C   UNL     1       5.124   3.610  17.350  0.00  0.00    +0.000 C 
BRANCH  18  19
ATOM     19  O   UNL     1       6.335   3.922  18.077  0.00  0.00    +0.000 OA
BRANCH  19  24
ATOM     20 CL   UNL     1       8.330   9.477  17.935  0.00  0.00    +0.000 Cl
ATOM     21  C   UNL     1       7.749   7.857  17.953  0.00  0.00    +0.000 A 
ATOM     22  C   UNL     1       8.292   6.930  18.838  0.00  0.00    +0.000 A 
ATOM     23  C   UNL     1       7.801   5.614  18.849  0.00  0.00    +0.000 A 
ATOM     24  C   UNL     1       6.756   5.231  17.997  0.00  0.00    +0.000 A 
ATOM     25  C   UNL     1       6.253   6.168  17.103  0.00  0.00    +0.000 A 
ATOM     26  C   UNL     1       6.738   7.477  17.076  0.00  0.00    +0.000 A 
ENDBRANCH  19  24
ENDBRANCH  18  19
ENDBRANCH  17  18
ENDBRANCH   1  17
TORSDOF 4
ENDMDL
MODEL 2
REMARK VINA RESULT:      -8.7      0.589      1.094
REMARK  Name = 
REMARK  4 active torsions:
REMARK  status: ('A' for Active; 'I' for Inactive)
REMARK    1  A    between atoms: C_5  and  O_6
REMARK    2  A    between atoms: O_6  and  C_7
REMARK    3  A    between atoms: C_7  and  C_8
REMARK    4  A    between atoms: C_8  and  N_9
REMARK                            x       y       z     vdW  Elec       q    Type
REMARK                         _______ _______ _______ _____ _____    ______ ____
ROOT
ATOM      1  N   UNL     1       3.445   4.081  18.726  0.00  0.00    +0.000 NA
ATOM      2  C   UNL     1       2.405   3.462  19.641  0.00  0.00    +0.000 C 
ATOM      3  C   UNL     1       1.407   3.224  18.434  0.00  0.00    +0.000 C 
ATOM      4  C   UNL     1       1.488   4.451  17.520  0.00  0.00    +0.000 C 
ATOM      5  C   UNL     1       2.748   5.175  17.990  0.00  0.00    +0.000 C 
ATOM      6  C   UNL     1       2.420   6.244  19.011  0.00  0.00    +0.000 A 
ATOM      7  C   UNL     1       2.297   5.921  20.347  0.00  0.00    +0.000 A 
ATOM      8  N   UNL     1       1.757   6.974  21.015  0.00  0.00    +0.000 N 
ATOM      9  C   UNL     1       1.575   8.029  20.130  0.00  0.00    +0.000 A 
ATOM     10  C   UNL     1       1.004   9.294  20.332  0.00  0.00    +0.000 A 
ATOM     11  C   UNL     1       1.012  10.190  19.258  0.00  0.00    +0.000 A 
ATOM     12  C   UNL     1       1.569   9.834  18.033  0.00  0.00    +0.000 A 
ATOM     13  C   UNL     1       2.084   8.547  17.826  0.00  0.00    +0.000 A 
ATOM     14  C   UNL     1       2.076   7.619  18.887  0.00  0.00    +0.000 A 
ATOM     15  C   UNL     1       2.617   4.549  20.854  0.00  0.00    +0.000 C 
ATOM     16  H   UNL     1       1.485   7.000  21.991  0.00  0.00    +0.000 HD
ENDROOT
BRANCH   1  17
ATOM     17  C   UNL     1       4.140   3.159  17.778  0.00  0.00    +0.000 C 
BRANCH  17  18
ATOM     18  C   UNL     1       4.801   3.811  16.546  0.00  0.00    +0.000 C 
BRANCH  18  19
ATOM     19  O   UNL     1       6.242   3.782  16.681  0.00  0.00    +0.000 OA
BRANCH  19  24
ATOM     20 CL   UNL     1       8.603   8.810  18.682  0.00  0.00    +0.000 Cl
ATOM     21  C   UNL     1       7.906   7.341  18.120  0.00  0.00    +0.000 A 
ATOM     22  C   UNL     1       7.268   7.298  16.883  0.00  0.00    +0.000 A 
ATOM     23  C   UNL     1       6.713   6.090  16.432  0.00  0.00    +0.000 A 
ATOM     24  C   UNL     1       6.813   4.923  17.201  0.00  0.00    +0.000 A 
ATOM     25  C   UNL     1       7.427   5.000  18.445  0.00  0.00    +0.000 A 
ATOM     26  C   UNL     1       7.976   6.197  18.909  0.00  0.00    +0.000 A 
ENDBRANCH  19  24
ENDBRANCH  18  19
ENDBRANCH  17  18
ENDBRANCH   1  17
TORSDOF 4
ENDMDL
MODEL 3
REMARK VINA RESULT:      -7.9      3.253      5.545
REMARK  Name = 
REMARK  4 active torsions:
REMARK  status: ('A' for Active; 'I' for Inactive)
REMARK    1  A    between atoms: C_5  and  O_6
REMARK    2  A    between atoms: O_6  and  C_7
REMARK    3  A    between atoms: C_7  and  C_8
REMARK    4  A    between atoms: C_8  and  N_9
REMARK                            x       y       z     vdW  Elec       q    Type
REMARK                         _______ _______ _______ _____ _____    ______ ____
ROOT
ATOM      1  N   UNL     1       6.691   6.614  17.707  0.00  0.00    +0.000 NA
ATOM      2  C   UNL     1       6.978   5.457  16.770  0.00  0.00    +0.000 C 
ATOM      3  C   UNL     1       5.942   5.996  15.699  0.00  0.00    +0.000 C 
ATOM      4  C   UNL     1       4.724   6.526  16.464  0.00  0.00    +0.000 C 
ATOM      5  C   UNL     1       5.212   6.625  17.907  0.00  0.00    +0.000 C 
ATOM      6  C   UNL     1       4.871   5.375  18.690  0.00  0.00    +0.000 A 
ATOM      7  C   UNL     1       5.703   4.276  18.650  0.00  0.00    +0.000 A 
ATOM      8  N   UNL     1       5.069   3.213  19.212  0.00  0.00    +0.000 N 
ATOM      9  C   UNL     1       3.829   3.621  19.685  0.00  0.00    +0.000 A 
ATOM     10  C   UNL     1       2.799   2.883  20.287  0.00  0.00    +0.000 A 
ATOM     11  C   UNL     1       1.670   3.580  20.727  0.00  0.00    +0.000 A 
ATOM     12  C   UNL     1       1.576   4.961  20.572  0.00  0.00    +0.000 A 
ATOM     13  C   UNL     1       2.586   5.680  19.918  0.00  0.00    +0.000 A 
ATOM     14  C   UNL     1       3.729   5.000  19.452  0.00  0.00    +0.000 A 
ATOM     15  C   UNL     1       7.029   4.321  17.955  0.00  0.00    +0.000 C 
ATOM     16  H   UNL     1       5.406   2.258  19.257  0.00  0.00    +0.000 HD
ENDROOT
BRANCH   1  17
ATOM     17  C   UNL     1       7.181   7.959  17.284  0.00  0.00    +0.000 C 
BRANCH  17  18
ATOM     18  C   UNL     1       8.298   8.587  18.145  0.00  0.00    +0.000 C 
BRANCH  18  19
ATOM     19  O   UNL     1       8.711   9.852  17.578  0.00  0.00    +0.000 OA
BRANCH  19  24
ATOM     20 CL   UNL     1      10.424  14.131  21.268  0.00  0.00    +0.000 Cl
ATOM     21  C   UNL     1       9.911  12.876  20.209  0.00  0.00    +0.000 A 
ATOM     22  C   UNL     1       9.582  13.166  18.888  0.00  0.00    +0.000 A 
ATOM     23  C   UNL     1       9.175  12.130  18.032  0.00  0.00    +0.000 A 
ATOM     24  C   UNL     1       9.118  10.805  18.486  0.00  0.00    +0.000 A 
ATOM     25  C   UNL     1       9.422  10.548  19.817  0.00  0.00    +0.000 A 
ATOM     26  C   UNL     1       9.820  11.569  20.680  0.00  0.00    +0.000 A 
ENDBRANCH  19  24
ENDBRANCH  18  19
ENDBRANCH  17  18
ENDBRANCH   1  17
TORSDOF 4
ENDMDL
MODEL 4
REMARK VINA RESULT:      -7.8      3.129      5.416
REMARK  Name = 
REMARK  4 active torsions:
REMARK  status: ('A' for Active; 'I' for Inactive)
REMARK    1  A    between atoms: C_5  and  O_6
REMARK    2  A    between atoms: O_6  and  C_7
REMARK    3  A    between atoms: C_7  and  C_8
REMARK    4  A    between atoms: C_8  and  N_9
REMARK                            x       y       z     vdW  Elec       q    Type
REMARK                         _______ _______ _______ _____ _____    ______ ____
ROOT
ATOM      1  N   UNL     1       6.489   6.810  17.810  0.00  0.00    +0.000 NA
ATOM      2  C   UNL     1       6.892   5.700  16.859  0.00  0.00    +0.000 C 
ATOM      3  C   UNL     1       5.823   6.160  15.783  0.00  0.00    +0.000 C 
ATOM      4  C   UNL     1       4.553   6.564  16.539  0.00  0.00    +0.000 C 
ATOM      5  C   UNL     1       5.013   6.684  17.990  0.00  0.00    +0.000 C 
ATOM      6  C   UNL     1       4.779   5.396  18.750  0.00  0.00    +0.000 A 
ATOM      7  C   UNL     1       5.708   4.377  18.704  0.00  0.00    +0.000 A 
ATOM      8  N   UNL     1       5.167   3.252  19.242  0.00  0.00    +0.000 N 
ATOM      9  C   UNL     1       3.890   3.538  19.704  0.00  0.00    +0.000 A 
ATOM     10  C   UNL     1       2.925   2.699  20.281  0.00  0.00    +0.000 A 
ATOM     11  C   UNL     1       1.731   3.283  20.717  0.00  0.00    +0.000 A 
ATOM     12  C   UNL     1       1.513   4.652  20.582  0.00  0.00    +0.000 A 
ATOM     13  C   UNL     1       2.461   5.470  19.952  0.00  0.00    +0.000 A 
ATOM     14  C   UNL     1       3.667   4.905  19.491  0.00  0.00    +0.000 A 
ATOM     15  C   UNL     1       7.032   4.554  18.028  0.00  0.00    +0.000 C 
ATOM     16  H   UNL     1       5.590   2.331  19.277  0.00  0.00    +0.000 HD
ENDROOT
BRANCH   1  17
ATOM     17  C   UNL     1       6.860   8.202  17.414  0.00  0.00    +0.000 C 
BRANCH  17  18
ATOM     18  C   UNL     1       8.341   8.596  17.588  0.00  0.00    +0.000 C 
BRANCH  18  19
ATOM     19  O   UNL     1       8.583   9.032  18.946  0.00  0.00    +0.000 OA
BRANCH  19  24
ATOM     20 CL   UNL     1      11.426  14.139  19.779  0.00  0.00    +0.000 Cl
ATOM     21  C   UNL     1      10.613  12.645  19.521  0.00  0.00    +0.000 A 
ATOM     22  C   UNL     1      10.162  11.898  20.605  0.00  0.00    +0.000 A 
ATOM     23  C   UNL     1       9.490  10.686  20.380  0.00  0.00    +0.000 A 
ATOM     24  C   UNL     1       9.251  10.231  19.076  0.00  0.00    +0.000 A 
ATOM     25  C   UNL     1       9.739  10.980  18.012  0.00  0.00    +0.000 A 
ATOM     26  C   UNL     1      10.415  12.183  18.223  0.00  0.00    +0.000 A 
ENDBRANCH  19  24
ENDBRANCH  18  19
ENDBRANCH  17  18
ENDBRANCH   1  17
TORSDOF 4
ENDMDL
MODEL 5
REMARK VINA RESULT:      -7.8      3.327      5.571
REMARK  Name = 
REMARK  4 active torsions:
REMARK  status: ('A' for Active; 'I' for Inactive)
REMARK    1  A    between atoms: C_5  and  O_6
REMARK    2  A    between atoms: O_6  and  C_7
REMARK    3  A    between atoms: C_7  and  C_8
REMARK    4  A    between atoms: C_8  and  N_9
REMARK                            x       y       z     vdW  Elec       q    Type
REMARK                         _______ _______ _______ _____ _____    ______ ____
ROOT
ATOM      1  N   UNL     1       6.515   6.531  17.676  0.00  0.00    +0.000 NA
ATOM      2  C   UNL     1       7.474   5.388  17.404  0.00  0.00    +0.000 C 
ATOM      3  C   UNL     1       7.093   5.361  15.867  0.00  0.00    +0.000 C 
ATOM      4  C   UNL     1       5.580   5.585  15.764  0.00  0.00    +0.000 C 
ATOM      5  C   UNL     1       5.189   6.089  17.151  0.00  0.00    +0.000 C 
ATOM      6  C   UNL     1       4.728   4.954  18.040  0.00  0.00    +0.000 A 
ATOM      7  C   UNL     1       5.644   4.201  18.745  0.00  0.00    +0.000 A 
ATOM      8  N   UNL     1       5.025   3.104  19.255  0.00  0.00    +0.000 N 
ATOM      9  C   UNL     1       3.673   3.157  18.940  0.00  0.00    +0.000 A 
ATOM     10  C   UNL     1       2.645   2.238  19.195  0.00  0.00    +0.000 A 
ATOM     11  C   UNL     1       1.347   2.590  18.812  0.00  0.00    +0.000 A 
ATOM     12  C   UNL     1       1.089   3.813  18.199  0.00  0.00    +0.000 A 
ATOM     13  C   UNL     1       2.133   4.699  17.897  0.00  0.00    +0.000 A 
ATOM     14  C   UNL     1       3.452   4.363  18.259  0.00  0.00    +0.000 A 
ATOM     15  C   UNL     1       7.098   4.558  18.771  0.00  0.00    +0.000 C 
ATOM     16  H   UNL     1       5.460   2.337  19.754  0.00  0.00    +0.000 HD
ENDROOT
BRANCH   1  17
ATOM     17  C   UNL     1       6.888   7.868  17.123  0.00  0.00    +0.000 C 
BRANCH  17  18
ATOM     18  C   UNL     1       8.018   8.623  17.853  0.00  0.00    +0.000 C 
BRANCH  18  19
ATOM     19  O   UNL     1       7.712  10.035  17.918  0.00  0.00    +0.000 OA
BRANCH  19  24
ATOM     20 CL   UNL     1      12.273  13.359  19.652  0.00  0.00    +0.000 Cl
ATOM     21  C   UNL     1      10.950  12.394  19.124  0.00  0.00    +0.000 A 
ATOM     22  C   UNL     1      10.677  11.180  19.749  0.00  0.00    +0.000 A 
ATOM     23  C   UNL     1       9.587  10.408  19.315  0.00  0.00    +0.000 A 
ATOM     24  C   UNL     1       8.759  10.855  18.277  0.00  0.00    +0.000 A 
ATOM     25  C   UNL     1       9.072  12.055  17.651  0.00  0.00    +0.000 A 
ATOM     26  C   UNL     1      10.157  12.829  18.067  0.00  0.00    +0.000 A 
ENDBRANCH  19  24
ENDBRANCH  18  19
ENDBRANCH  17  18
ENDBRANCH   1  17
TORSDOF 4
ENDMDL
MODEL 6
REMARK VINA RESULT:      -7.8      3.247      5.590
REMARK  Name = 
REMARK  4 active torsions:
REMARK  status: ('A' for Active; 'I' for Inactive)
REMARK    1  A    between atoms: C_5  and  O_6
REMARK    2  A    between atoms: O_6  and  C_7
REMARK    3  A    between atoms: C_7  and  C_8
REMARK    4  A    between atoms: C_8  and  N_9
REMARK                            x       y       z     vdW  Elec       q    Type
REMARK                         _______ _______ _______ _____ _____    ______ ____
ROOT
ATOM      1  N   UNL     1       6.440   6.750  17.805  0.00  0.00    +0.000 NA
ATOM      2  C   UNL     1       7.432   5.672  17.411  0.00  0.00    +0.000 C 
ATOM      3  C   UNL     1       7.002   5.757  15.889  0.00  0.00    +0.000 C 
ATOM      4  C   UNL     1       5.480   5.930  15.849  0.00  0.00    +0.000 C 
ATOM      5  C   UNL     1       5.116   6.302  17.284  0.00  0.00    +0.000 C 
ATOM      6  C   UNL     1       4.725   5.081  18.088  0.00  0.00    +0.000 A 
ATOM      7  C   UNL     1       5.690   4.308  18.700  0.00  0.00    +0.000 A 
ATOM      8  N   UNL     1       5.128   3.149  19.135  0.00  0.00    +0.000 N 
ATOM      9  C   UNL     1       3.766   3.176  18.865  0.00  0.00    +0.000 A 
ATOM     10  C   UNL     1       2.781   2.199  19.073  0.00  0.00    +0.000 A 
ATOM     11  C   UNL     1       1.459   2.531  18.759  0.00  0.00    +0.000 A 
ATOM     12  C   UNL     1       1.137   3.789  18.257  0.00  0.00    +0.000 A 
ATOM     13  C   UNL     1       2.137   4.737  18.000  0.00  0.00    +0.000 A 
ATOM     14  C   UNL     1       3.479   4.424  18.295  0.00  0.00    +0.000 A 
ATOM     15  C   UNL     1       7.130   4.717  18.714  0.00  0.00    +0.000 C 
ATOM     16  H   UNL     1       5.607   2.361  19.555  0.00  0.00    +0.000 HD
ENDROOT
BRANCH   1  17
ATOM     17  C   UNL     1       6.747   8.141  17.356  0.00  0.00    +0.000 C 
BRANCH  17  18
ATOM     18  C   UNL     1       8.197   8.627  17.561  0.00  0.00    +0.000 C 
BRANCH  18  19
ATOM     19  O   UNL     1       8.393   9.041  18.933  0.00  0.00    +0.000 OA
BRANCH  19  24
ATOM     20 CL   UNL     1      11.818  13.826  19.418  0.00  0.00    +0.000 Cl
ATOM     21  C   UNL     1      10.806  12.440  19.293  0.00  0.00    +0.000 A 
ATOM     22  C   UNL     1      10.434  11.956  18.042  0.00  0.00    +0.000 A 
ATOM     23  C   UNL     1       9.617  10.818  17.955  0.00  0.00    +0.000 A 
ATOM     24  C   UNL     1       9.190  10.151  19.112  0.00  0.00    +0.000 A 
ATOM     25  C   UNL     1       9.550  10.673  20.348  0.00  0.00    +0.000 A 
ATOM     26  C   UNL     1      10.356  11.808  20.448  0.00  0.00    +0.000 A 
ENDBRANCH  19  24
ENDBRANCH  18  19
ENDBRANCH  17  18
ENDBRANCH   1  17
TORSDOF 4
ENDMDL
MODEL 7
REMARK VINA RESULT:      -7.5      6.660      9.556
REMARK  Name = 
REMARK  4 active torsions:
REMARK  status: ('A' for Active; 'I' for Inactive)
REMARK    1  A    between atoms: C_5  and  O_6
REMARK    2  A    between atoms: O_6  and  C_7
REMARK    3  A    between atoms: C_7  and  C_8
REMARK    4  A    between atoms: C_8  and  N_9
REMARK                            x       y       z     vdW  Elec       q    Type
REMARK                         _______ _______ _______ _____ _____    ______ ____
ROOT
ATOM      1  N   UNL     1       9.834  11.614  18.502  0.00  0.00    +0.000 NA
ATOM      2  C   UNL     1      11.345  11.571  18.384  0.00  0.00    +0.000 C 
ATOM      3  C   UNL     1      11.527  11.790  19.942  0.00  0.00    +0.000 C 
ATOM      4  C   UNL     1      10.480  12.817  20.388  0.00  0.00    +0.000 C 
ATOM      5  C   UNL     1       9.512  12.888  19.209  0.00  0.00    +0.000 C 
ATOM      6  C   UNL     1       9.876  14.012  18.264  0.00  0.00    +0.000 A 
ATOM      7  C   UNL     1      10.818  13.818  17.275  0.00  0.00    +0.000 A 
ATOM      8  N   UNL     1      11.155  15.018  16.734  0.00  0.00    +0.000 N 
ATOM      9  C   UNL     1      10.388  16.014  17.324  0.00  0.00    +0.000 A 
ATOM     10  C   UNL     1      10.410  17.405  17.141  0.00  0.00    +0.000 A 
ATOM     11  C   UNL     1       9.464  18.168  17.834  0.00  0.00    +0.000 A 
ATOM     12  C   UNL     1       8.534  17.562  18.675  0.00  0.00    +0.000 A 
ATOM     13  C   UNL     1       8.559  16.178  18.894  0.00  0.00    +0.000 A 
ATOM     14  C   UNL     1       9.510  15.387  18.219  0.00  0.00    +0.000 A 
ATOM     15  C   UNL     1      11.408  12.467  17.009  0.00  0.00    +0.000 C 
ATOM     16  H   UNL     1      11.873  15.193  16.040  0.00  0.00    +0.000 HD
ENDROOT
BRANCH   1  17
ATOM     17  C   UNL     1       9.178  10.452  19.172  0.00  0.00    +0.000 C 
BRANCH  17  18
ATOM     18  C   UNL     1       8.509   9.412  18.249  0.00  0.00    +0.000 C 
BRANCH  18  19
ATOM     19  O   UNL     1       8.642   8.087  18.814  0.00  0.00    +0.000 OA
BRANCH  19  24
ATOM     20 CL   UNL     1       4.924   4.185  16.404  0.00  0.00    +0.000 Cl
ATOM     21  C   UNL     1       6.025   5.306  17.105  0.00  0.00    +0.000 A 
ATOM     22  C   UNL     1       6.030   6.634  16.687  0.00  0.00    +0.000 A 
ATOM     23  C   UNL     1       6.926   7.542  17.275  0.00  0.00    +0.000 A 
ATOM     24  C   UNL     1       7.799   7.130  18.292  0.00  0.00    +0.000 A 
ATOM     25  C   UNL     1       7.794   5.793  18.668  0.00  0.00    +0.000 A 
ATOM     26  C   UNL     1       6.914   4.879  18.086  0.00  0.00    +0.000 A 
ENDBRANCH  19  24
ENDBRANCH  18  19
ENDBRANCH  17  18
ENDBRANCH   1  17
TORSDOF 4
ENDMDL
MODEL 8
REMARK VINA RESULT:      -7.5      2.202      2.654
REMARK  Name = 
REMARK  4 active torsions:
REMARK  status: ('A' for Active; 'I' for Inactive)
REMARK    1  A    between atoms: C_5  and  O_6
REMARK    2  A    between atoms: O_6  and  C_7
REMARK    3  A    between atoms: C_7  and  C_8
REMARK    4  A    between atoms: C_8  and  N_9
REMARK                            x       y       z     vdW  Elec       q    Type
REMARK                         _______ _______ _______ _____ _____    ______ ____
ROOT
ATOM      1  N   UNL     1       3.353   4.230  19.327  0.00  0.00    +0.000 NA
ATOM      2  C   UNL     1       2.117   3.699  20.026  0.00  0.00    +0.000 C 
ATOM      3  C   UNL     1       1.394   3.412  18.646  0.00  0.00    +0.000 C 
ATOM      4  C   UNL     1       1.720   4.576  17.704  0.00  0.00    +0.000 C 
ATOM      5  C   UNL     1       2.876   5.295  18.396  0.00  0.00    +0.000 C 
ATOM      6  C   UNL     1       2.379   6.434  19.260  0.00  0.00    +0.000 A 
ATOM      7  C   UNL     1       1.958   6.200  20.553  0.00  0.00    +0.000 A 
ATOM      8  N   UNL     1       1.329   7.308  21.027  0.00  0.00    +0.000 N 
ATOM      9  C   UNL     1       1.384   8.309  20.066  0.00  0.00    +0.000 A 
ATOM     10  C   UNL     1       0.836   9.599  20.067  0.00  0.00    +0.000 A 
ATOM     11  C   UNL     1       1.111  10.425  18.972  0.00  0.00    +0.000 A 
ATOM     12  C   UNL     1       1.904   9.976  17.919  0.00  0.00    +0.000 A 
ATOM     13  C   UNL     1       2.400   8.665  17.903  0.00  0.00    +0.000 A 
ATOM     14  C   UNL     1       2.126   7.807  18.986  0.00  0.00    +0.000 A 
ATOM     15  C   UNL     1       2.105   4.855  21.194  0.00  0.00    +0.000 C 
ATOM     16  H   UNL     1       0.854   7.403  21.917  0.00  0.00    +0.000 HD
ENDROOT
BRANCH   1  17
ATOM     17  C   UNL     1       4.199   3.232  18.606  0.00  0.00    +0.000 C 
BRANCH  17  18
ATOM     18  C   UNL     1       5.650   3.655  18.297  0.00  0.00    +0.000 C 
BRANCH  18  19
ATOM     19  O   UNL     1       5.657   4.858  17.494  0.00  0.00    +0.000 OA
BRANCH  19  24
ATOM     20 CL   UNL     1       7.138   4.211  11.815  0.00  0.00    +0.000 Cl
ATOM     21  C   UNL     1       6.698   4.378  13.470  0.00  0.00    +0.000 A 
ATOM     22  C   UNL     1       7.578   4.972  14.371  0.00  0.00    +0.000 A 
ATOM     23  C   UNL     1       7.202   5.112  15.717  0.00  0.00    +0.000 A 
ATOM     24  C   UNL     1       5.944   4.680  16.158  0.00  0.00    +0.000 A 
ATOM     25  C   UNL     1       5.098   4.063  15.246  0.00  0.00    +0.000 A 
ATOM     26  C   UNL     1       5.462   3.911  13.907  0.00  0.00    +0.000 A 
ENDBRANCH  19  24
ENDBRANCH  18  19
ENDBRANCH  17  18
ENDBRANCH   1  17
TORSDOF 4
ENDMDL
MODEL 9
REMARK VINA RESULT:      -7.4      2.816      5.110
REMARK  Name = 
REMARK  4 active torsions:
REMARK  status: ('A' for Active; 'I' for Inactive)
REMARK    1  A    between atoms: C_5  and  O_6
REMARK    2  A    between atoms: O_6  and  C_7
REMARK    3  A    between atoms: C_7  and  C_8
REMARK    4  A    between atoms: C_8  and  N_9
REMARK                            x       y       z     vdW  Elec       q    Type
REMARK                         _______ _______ _______ _____ _____    ______ ____
ROOT
ATOM      1  N   UNL     1       6.514   5.827  16.940  0.00  0.00    +0.000 NA
ATOM      2  C   UNL     1       6.072   5.166  15.649  0.00  0.00    +0.000 C 
ATOM      3  C   UNL     1       5.282   6.462  15.193  0.00  0.00    +0.000 C 
ATOM      4  C   UNL     1       4.593   7.041  16.434  0.00  0.00    +0.000 C 
ATOM      5  C   UNL     1       5.270   6.321  17.598  0.00  0.00    +0.000 C 
ATOM      6  C   UNL     1       4.486   5.097  18.019  0.00  0.00    +0.000 A 
ATOM      7  C   UNL     1       4.671   3.892  17.372  0.00  0.00    +0.000 A 
ATOM      8  N   UNL     1       3.692   3.027  17.748  0.00  0.00    +0.000 N 
ATOM      9  C   UNL     1       2.883   3.639  18.697  0.00  0.00    +0.000 A 
ATOM     10  C   UNL     1       1.724   3.176  19.336  0.00  0.00    +0.000 A 
ATOM     11  C   UNL     1       1.146   3.996  20.310  0.00  0.00    +0.000 A 
ATOM     12  C   UNL     1       1.707   5.229  20.632  0.00  0.00    +0.000 A 
ATOM     13  C   UNL     1       2.833   5.706  19.946  0.00  0.00    +0.000 A 
ATOM     14  C   UNL     1       3.427   4.907  18.950  0.00  0.00    +0.000 A 
ATOM     15  C   UNL     1       5.739   3.712  16.338  0.00  0.00    +0.000 C 
ATOM     16  H   UNL     1       3.530   2.096  17.382  0.00  0.00    +0.000 HD
ENDROOT
BRANCH   1  17
ATOM     17  C   UNL     1       7.526   6.920  16.823  0.00  0.00    +0.000 C 
BRANCH  17  18
ATOM     18  C   UNL     1       7.835   7.712  18.111  0.00  0.00    +0.000 C 
BRANCH  18  19
ATOM     19  O   UNL     1       7.721   9.132  17.860  0.00  0.00    +0.000 OA
BRANCH  19  24
ATOM     20 CL   UNL     1      12.056  12.572  19.919  0.00  0.00    +0.000 Cl
ATOM     21  C   UNL     1      10.779  11.577  19.336  0.00  0.00    +0.000 A 
ATOM     22  C   UNL     1      10.507  11.516  17.971  0.00  0.00    +0.000 A 
ATOM     23  C   UNL     1       9.469  10.692  17.508  0.00  0.00    +0.000 A 
ATOM     24  C   UNL     1       8.718   9.914  18.401  0.00  0.00    +0.000 A 
ATOM     25  C   UNL     1       8.990  10.017  19.759  0.00  0.00    +0.000 A 
ATOM     26  C   UNL     1      10.014  10.838  20.233  0.00  0.00    +0.000 A 
ENDBRANCH  19  24
ENDBRANCH  18  19
ENDBRANCH  17  18
ENDBRANCH   1  17
TORSDOF 4
ENDMDL
