MODEL 1
REMARK VINA RESULT:      -8.8      0.000      0.000
REMARK  Name = 
REMARK  5 active torsions:
REMARK  status: ('A' for Active; 'I' for Inactive)
REMARK    1  A    between atoms: C_1  and  C_2
REMARK    2  A    between atoms: C_3  and  C_4
REMARK    3  A    between atoms: C_4  and  C_6
REMARK    4  A    between atoms: C_16  and  N_17
REMARK    5  A    between atoms: C_18  and  C_20
REMARK                            x       y       z     vdW  Elec       q    Type
REMARK                         _______ _______ _______ _____ _____    ______ ____
ROOT
ATOM      1  C   UNL     1       3.703   6.473  16.792  0.00  0.00    +0.000 C 
ATOM      2  C   UNL     1       4.769   5.834  17.601  0.00  0.00    +0.000 A 
ATOM      3  C   UNL     1       4.812   4.557  18.154  0.00  0.00    +0.000 A 
ATOM      4  O   UNL     1       5.987   4.400  18.845  0.00  0.00    +0.000 OA
ATOM      5  C   UNL     1       6.711   5.539  18.700  0.00  0.00    +0.000 A 
ATOM      6  C   UNL     1       7.967   5.775  19.240  0.00  0.00    +0.000 A 
ATOM      7  C   UNL     1       8.551   7.012  18.937  0.00  0.00    +0.000 A 
ATOM      8  C   UNL     1       7.911   7.954  18.122  0.00  0.00    +0.000 A 
ATOM      9  C   UNL     1       6.625   7.683  17.625  0.00  0.00    +0.000 A 
ATOM     10  C   UNL     1       6.018   6.448  17.921  0.00  0.00    +0.000 A 
ENDROOT
BRANCH   8  11
ATOM     11  N   UNL     1       8.485   9.201  17.784  0.00  0.00    +0.000 N 
ATOM     12  C   UNL     1       9.066  10.085  18.675  0.00  0.00    +0.000 C 
ATOM     13  O   UNL     1       9.264   9.871  19.869  0.00  0.00    +0.000 OA
ATOM     14  H   UNL     1       8.477   9.439  16.806  0.00  0.00    +0.000 HD
BRANCH  12  15
ATOM     15  C   UNL     1       9.472  11.417  18.148  0.00  0.00    +0.000 A 
ATOM     16  C   UNL     1      10.823  11.574  17.792  0.00  0.00    +0.000 A 
ATOM     17  C   UNL     1      11.297  12.799  17.325  0.00  0.00    +0.000 A 
ATOM     18  C   UNL     1      10.416  13.863  17.204  0.00  0.00    +0.000 A 
ATOM     19  F   UNL     1      10.869  15.046  16.770  0.00  0.00    +0.000 F 
ATOM     20  C   UNL     1       9.068  13.721  17.522  0.00  0.00    +0.000 A 
ATOM     21  C   UNL     1       8.588  12.493  17.993  0.00  0.00    +0.000 A 
ENDBRANCH  12  15
ENDBRANCH   8  11
BRANCH   3  22
ATOM     22  C   UNL     1       3.876   3.445  18.135  0.00  0.00    +0.000 C 
ATOM     23  O   UNL     1       3.807   2.627  17.221  0.00  0.00    +0.000 OA
BRANCH  22  24
ATOM     24  C   UNL     1       2.957   3.279  19.307  0.00  0.00    +0.000 A 
ATOM     25  C   UNL     1       1.631   3.733  19.247  0.00  0.00    +0.000 A 
ATOM     26  C   UNL     1       0.769   3.541  20.326  0.00  0.00    +0.000 A 
ATOM     27  C   UNL     1       1.229   2.914  21.481  0.00  0.00    +0.000 A 
ATOM     28  C   UNL     1       2.562   2.500  21.569  0.00  0.00    +0.000 A 
ATOM     29  C   UNL     1       3.428   2.688  20.487  0.00  0.00    +0.000 A 
ENDBRANCH  22  24
ENDBRANCH   3  22
TORSDOF 4
ENDMDL
MODEL 2
REMARK VINA RESULT:      -8.8      6.502      8.389
REMARK  Name = 
REMARK  5 active torsions:
REMARK  status: ('A' for Active; 'I' for Inactive)
REMARK    1  A    between atoms: C_1  and  C_2
REMARK    2  A    between atoms: C_3  and  C_4
REMARK    3  A    between atoms: C_4  and  C_6
REMARK    4  A    between atoms: C_16  and  N_17
REMARK    5  A    between atoms: C_18  and  C_20
REMARK                            x       y       z     vdW  Elec       q    Type
REMARK                         _______ _______ _______ _____ _____    ______ ____
ROOT
ATOM      1  C   UNL     1       2.084   5.101  21.049  0.00  0.00    +0.000 C 
ATOM      2  C   UNL     1       2.381   5.890  19.829  0.00  0.00    +0.000 A 
ATOM      3  C   UNL     1       3.078   5.516  18.684  0.00  0.00    +0.000 A 
ATOM      4  O   UNL     1       3.129   6.577  17.816  0.00  0.00    +0.000 OA
ATOM      5  C   UNL     1       2.435   7.602  18.370  0.00  0.00    +0.000 A 
ATOM      6  C   UNL     1       2.241   8.853  17.799  0.00  0.00    +0.000 A 
ATOM      7  C   UNL     1       1.461   9.756  18.532  0.00  0.00    +0.000 A 
ATOM      8  C   UNL     1       0.893   9.415  19.765  0.00  0.00    +0.000 A 
ATOM      9  C   UNL     1       1.144   8.148  20.319  0.00  0.00    +0.000 A 
ATOM     10  C   UNL     1       1.930   7.226  19.601  0.00  0.00    +0.000 A 
ENDROOT
BRANCH   8  11
ATOM     11  N   UNL     1       0.085  10.299  20.517  0.00  0.00    +0.000 N 
ATOM     12  C   UNL     1       0.532  11.433  21.171  0.00  0.00    +0.000 C 
ATOM     13  O   UNL     1       1.669  11.895  21.108  0.00  0.00    +0.000 OA
ATOM     14  H   UNL     1      -0.896  10.079  20.550  0.00  0.00    +0.000 HD
BRANCH  12  15
ATOM     15  C   UNL     1      -0.444  12.148  22.040  0.00  0.00    +0.000 A 
ATOM     16  C   UNL     1      -1.459  11.372  22.627  0.00  0.00    +0.000 A 
ATOM     17  C   UNL     1      -2.435  11.966  23.426  0.00  0.00    +0.000 A 
ATOM     18  C   UNL     1      -2.389  13.335  23.645  0.00  0.00    +0.000 A 
ATOM     19  F   UNL     1      -3.333  13.913  24.399  0.00  0.00    +0.000 F 
ATOM     20  C   UNL     1      -1.375  14.117  23.098  0.00  0.00    +0.000 A 
ATOM     21  C   UNL     1      -0.394  13.525  22.294  0.00  0.00    +0.000 A 
ENDBRANCH  12  15
ENDBRANCH   8  11
BRANCH   3  22
ATOM     22  C   UNL     1       3.731   4.278  18.291  0.00  0.00    +0.000 C 
ATOM     23  O   UNL     1       3.290   3.162  18.551  0.00  0.00    +0.000 OA
BRANCH  22  24
ATOM     24  C   UNL     1       5.005   4.373  17.508  0.00  0.00    +0.000 A 
ATOM     25  C   UNL     1       6.219   4.670  18.147  0.00  0.00    +0.000 A 
ATOM     26  C   UNL     1       7.408   4.717  17.420  0.00  0.00    +0.000 A 
ATOM     27  C   UNL     1       7.392   4.490  16.046  0.00  0.00    +0.000 A 
ATOM     28  C   UNL     1       6.182   4.240  15.392  0.00  0.00    +0.000 A 
ATOM     29  C   UNL     1       4.989   4.188  16.119  0.00  0.00    +0.000 A 
ENDBRANCH  22  24
ENDBRANCH   3  22
TORSDOF 4
ENDMDL
MODEL 3
REMARK VINA RESULT:      -8.7      5.408      8.064
REMARK  Name = 
REMARK  5 active torsions:
REMARK  status: ('A' for Active; 'I' for Inactive)
REMARK    1  A    between atoms: C_1  and  C_2
REMARK    2  A    between atoms: C_3  and  C_4
REMARK    3  A    between atoms: C_4  and  C_6
REMARK    4  A    between atoms: C_16  and  N_17
REMARK    5  A    between atoms: C_18  and  C_20
REMARK                            x       y       z     vdW  Elec       q    Type
REMARK                         _______ _______ _______ _____ _____    ______ ____
ROOT
ATOM      1  C   UNL     1       6.150   7.596  17.137  0.00  0.00    +0.000 C 
ATOM      2  C   UNL     1       5.522   6.291  17.456  0.00  0.00    +0.000 A 
ATOM      3  C   UNL     1       5.928   5.006  17.106  0.00  0.00    +0.000 A 
ATOM      4  O   UNL     1       5.029   4.095  17.599  0.00  0.00    +0.000 OA
ATOM      5  C   UNL     1       4.087   4.776  18.298  0.00  0.00    +0.000 A 
ATOM      6  C   UNL     1       3.006   4.213  18.962  0.00  0.00    +0.000 A 
ATOM      7  C   UNL     1       2.170   5.101  19.651  0.00  0.00    +0.000 A 
ATOM      8  C   UNL     1       2.415   6.479  19.682  0.00  0.00    +0.000 A 
ATOM      9  C   UNL     1       3.504   7.006  18.967  0.00  0.00    +0.000 A 
ATOM     10  C   UNL     1       4.355   6.132  18.264  0.00  0.00    +0.000 A 
ENDROOT
BRANCH   8  11
ATOM     11  N   UNL     1       1.600   7.395  20.385  0.00  0.00    +0.000 N 
ATOM     12  C   UNL     1       1.205   8.636  19.921  0.00  0.00    +0.000 C 
ATOM     13  O   UNL     1       1.413   9.079  18.794  0.00  0.00    +0.000 OA
ATOM     14  H   UNL     1       1.275   7.093  21.289  0.00  0.00    +0.000 HD
BRANCH  12  15
ATOM     15  C   UNL     1       0.477   9.521  20.873  0.00  0.00    +0.000 A 
ATOM     16  C   UNL     1       0.298   9.036  22.181  0.00  0.00    +0.000 A 
ATOM     17  C   UNL     1      -0.403   9.783  23.126  0.00  0.00    +0.000 A 
ATOM     18  C   UNL     1      -0.917  11.020  22.765  0.00  0.00    +0.000 A 
ATOM     19  F   UNL     1      -1.604  11.735  23.665  0.00  0.00    +0.000 F 
ATOM     20  C   UNL     1      -0.724  11.532  21.485  0.00  0.00    +0.000 A 
ATOM     21  C   UNL     1      -0.022  10.785  20.532  0.00  0.00    +0.000 A 
ENDBRANCH  12  15
ENDBRANCH   8  11
BRANCH   3  22
ATOM     22  C   UNL     1       7.059   4.507  16.341  0.00  0.00    +0.000 C 
ATOM     23  O   UNL     1       8.110   4.124  16.850  0.00  0.00    +0.000 OA
BRANCH  22  24
ATOM     24  C   UNL     1       6.927   4.440  14.851  0.00  0.00    +0.000 A 
ATOM     25  C   UNL     1       7.767   5.199  14.021  0.00  0.00    +0.000 A 
ATOM     26  C   UNL     1       7.666   5.102  12.634  0.00  0.00    +0.000 A 
ATOM     27  C   UNL     1       6.711   4.265  12.063  0.00  0.00    +0.000 A 
ATOM     28  C   UNL     1       5.837   3.541  12.880  0.00  0.00    +0.000 A 
ATOM     29  C   UNL     1       5.939   3.632  14.271  0.00  0.00    +0.000 A 
ENDBRANCH  22  24
ENDBRANCH   3  22
TORSDOF 4
ENDMDL
MODEL 4
REMARK VINA RESULT:      -8.7      0.390      1.347
REMARK  Name = 
REMARK  5 active torsions:
REMARK  status: ('A' for Active; 'I' for Inactive)
REMARK    1  A    between atoms: C_1  and  C_2
REMARK    2  A    between atoms: C_3  and  C_4
REMARK    3  A    between atoms: C_4  and  C_6
REMARK    4  A    between atoms: C_16  and  N_17
REMARK    5  A    between atoms: C_18  and  C_20
REMARK                            x       y       z     vdW  Elec       q    Type
REMARK                         _______ _______ _______ _____ _____    ______ ____
ROOT
ATOM      1  C   UNL     1       3.812   6.985  16.492  0.00  0.00    +0.000 C 
ATOM      2  C   UNL     1       4.769   6.248  17.353  0.00  0.00    +0.000 A 
ATOM      3  C   UNL     1       4.672   4.965  17.885  0.00  0.00    +0.000 A 
ATOM      4  O   UNL     1       5.783   4.702  18.644  0.00  0.00    +0.000 OA
ATOM      5  C   UNL     1       6.606   5.777  18.564  0.00  0.00    +0.000 A 
ATOM      6  C   UNL     1       7.842   5.901  19.185  0.00  0.00    +0.000 A 
ATOM      7  C   UNL     1       8.543   7.088  18.941  0.00  0.00    +0.000 A 
ATOM      8  C   UNL     1       8.037   8.091  18.105  0.00  0.00    +0.000 A 
ATOM      9  C   UNL     1       6.767   7.935  17.525  0.00  0.00    +0.000 A 
ATOM     10  C   UNL     1       6.042   6.751  17.761  0.00  0.00    +0.000 A 
ENDROOT
BRANCH   8  11
ATOM     11  N   UNL     1       8.732   9.290  17.826  0.00  0.00    +0.000 N 
ATOM     12  C   UNL     1       9.144  10.216  18.766  0.00  0.00    +0.000 C 
ATOM     13  O   UNL     1       9.062  10.084  19.986  0.00  0.00    +0.000 OA
ATOM     14  H   UNL     1       8.953   9.456  16.858  0.00  0.00    +0.000 HD
BRANCH  12  15
ATOM     15  C   UNL     1       9.722  11.492  18.260  0.00  0.00    +0.000 A 
ATOM     16  C   UNL     1       8.874  12.613  18.249  0.00  0.00    +0.000 A 
ATOM     17  C   UNL     1       9.322  13.838  17.758  0.00  0.00    +0.000 A 
ATOM     18  C   UNL     1      10.623  13.943  17.288  0.00  0.00    +0.000 A 
ATOM     19  F   UNL     1      11.055  15.114  16.801  0.00  0.00    +0.000 F 
ATOM     20  C   UNL     1      11.489  12.853  17.319  0.00  0.00    +0.000 A 
ATOM     21  C   UNL     1      11.042  11.621  17.809  0.00  0.00    +0.000 A 
ENDBRANCH  12  15
ENDBRANCH   8  11
BRANCH   3  22
ATOM     22  C   UNL     1       3.650   3.936  17.788  0.00  0.00    +0.000 C 
ATOM     23  O   UNL     1       3.418   3.298  16.764  0.00  0.00    +0.000 OA
BRANCH  22  24
ATOM     24  C   UNL     1       2.846   3.625  19.014  0.00  0.00    +0.000 A 
ATOM     25  C   UNL     1       3.402   2.880  20.066  0.00  0.00    +0.000 A 
ATOM     26  C   UNL     1       2.663   2.627  21.221  0.00  0.00    +0.000 A 
ATOM     27  C   UNL     1       1.357   3.097  21.327  0.00  0.00    +0.000 A 
ATOM     28  C   UNL     1       0.777   3.800  20.266  0.00  0.00    +0.000 A 
ATOM     29  C   UNL     1       1.517   4.058  19.109  0.00  0.00    +0.000 A 
ENDBRANCH  22  24
ENDBRANCH   3  22
TORSDOF 4
ENDMDL
MODEL 5
REMARK VINA RESULT:      -8.6      5.412      8.101
REMARK  Name = 
REMARK  5 active torsions:
REMARK  status: ('A' for Active; 'I' for Inactive)
REMARK    1  A    between atoms: C_1  and  C_2
REMARK    2  A    between atoms: C_3  and  C_4
REMARK    3  A    between atoms: C_4  and  C_6
REMARK    4  A    between atoms: C_16  and  N_17
REMARK    5  A    between atoms: C_18  and  C_20
REMARK                            x       y       z     vdW  Elec       q    Type
REMARK                         _______ _______ _______ _____ _____    ______ ____
ROOT
ATOM      1  C   UNL     1       6.459   7.510  17.452  0.00  0.00    +0.000 C 
ATOM      2  C   UNL     1       5.652   6.265  17.438  0.00  0.00    +0.000 A 
ATOM      3  C   UNL     1       5.948   5.028  16.873  0.00  0.00    +0.000 A 
ATOM      4  O   UNL     1       4.898   4.169  17.084  0.00  0.00    +0.000 OA
ATOM      5  C   UNL     1       3.963   4.827  17.815  0.00  0.00    +0.000 A 
ATOM      6  C   UNL     1       2.754   4.299  18.246  0.00  0.00    +0.000 A 
ATOM      7  C   UNL     1       1.948   5.145  19.020  0.00  0.00    +0.000 A 
ATOM      8  C   UNL     1       2.344   6.446  19.354  0.00  0.00    +0.000 A 
ATOM      9  C   UNL     1       3.563   6.947  18.866  0.00  0.00    +0.000 A 
ATOM     10  C   UNL     1       4.386   6.115  18.083  0.00  0.00    +0.000 A 
ENDROOT
BRANCH   8  11
ATOM     11  N   UNL     1       1.561   7.314  20.148  0.00  0.00    +0.000 N 
ATOM     12  C   UNL     1       1.207   8.608  19.813  0.00  0.00    +0.000 C 
ATOM     13  O   UNL     1       1.429   9.154  18.734  0.00  0.00    +0.000 OA
ATOM     14  H   UNL     1       1.226   6.933  21.018  0.00  0.00    +0.000 HD
BRANCH  12  15
ATOM     15  C   UNL     1       0.511   9.416  20.852  0.00  0.00    +0.000 A 
ATOM     16  C   UNL     1      -0.046  10.639  20.438  0.00  0.00    +0.000 A 
ATOM     17  C   UNL     1      -0.684  11.475  21.353  0.00  0.00    +0.000 A 
ATOM     18  C   UNL     1      -0.774  11.082  22.680  0.00  0.00    +0.000 A 
ATOM     19  F   UNL     1      -1.372  11.888  23.566  0.00  0.00    +0.000 F 
ATOM     20  C   UNL     1      -0.256   9.861  23.105  0.00  0.00    +0.000 A 
ATOM     21  C   UNL     1       0.386   9.019  22.190  0.00  0.00    +0.000 A 
ENDBRANCH  12  15
ENDBRANCH   8  11
BRANCH   3  22
ATOM     22  C   UNL     1       7.097   4.534  16.133  0.00  0.00    +0.000 C 
ATOM     23  O   UNL     1       8.146   4.176  16.663  0.00  0.00    +0.000 OA
BRANCH  22  24
ATOM     24  C   UNL     1       6.987   4.441  14.642  0.00  0.00    +0.000 A 
ATOM     25  C   UNL     1       6.085   3.549  14.044  0.00  0.00    +0.000 A 
ATOM     26  C   UNL     1       5.959   3.495  12.656  0.00  0.00    +0.000 A 
ATOM     27  C   UNL     1       6.747   4.316  11.854  0.00  0.00    +0.000 A 
ATOM     28  C   UNL     1       7.684   5.175  12.438  0.00  0.00    +0.000 A 
ATOM     29  C   UNL     1       7.809   5.234  13.829  0.00  0.00    +0.000 A 
ENDBRANCH  22  24
ENDBRANCH   3  22
TORSDOF 4
ENDMDL
MODEL 6
REMARK VINA RESULT:      -8.6      6.835      8.589
REMARK  Name = 
REMARK  5 active torsions:
REMARK  status: ('A' for Active; 'I' for Inactive)
REMARK    1  A    between atoms: C_1  and  C_2
REMARK    2  A    between atoms: C_3  and  C_4
REMARK    3  A    between atoms: C_4  and  C_6
REMARK    4  A    between atoms: C_16  and  N_17
REMARK    5  A    between atoms: C_18  and  C_20
REMARK                            x       y       z     vdW  Elec       q    Type
REMARK                         _______ _______ _______ _____ _____    ______ ____
ROOT
ATOM      1  C   UNL     1       1.867   5.658  20.820  0.00  0.00    +0.000 C 
ATOM      2  C   UNL     1       2.173   6.534  19.663  0.00  0.00    +0.000 A 
ATOM      3  C   UNL     1       2.902   6.253  18.511  0.00  0.00    +0.000 A 
ATOM      4  O   UNL     1       2.949   7.372  17.718  0.00  0.00    +0.000 OA
ATOM      5  C   UNL     1       2.222   8.343  18.325  0.00  0.00    +0.000 A 
ATOM      6  C   UNL     1       2.014   9.626  17.837  0.00  0.00    +0.000 A 
ATOM      7  C   UNL     1       1.200  10.461  18.612  0.00  0.00    +0.000 A 
ATOM      8  C   UNL     1       0.614  10.026  19.807  0.00  0.00    +0.000 A 
ATOM      9  C   UNL     1       0.880   8.729  20.278  0.00  0.00    +0.000 A 
ATOM     10  C   UNL     1       1.700   7.874  19.516  0.00  0.00    +0.000 A 
ENDROOT
BRANCH   8  11
ATOM     11  N   UNL     1      -0.227  10.841  20.598  0.00  0.00    +0.000 N 
ATOM     12  C   UNL     1       0.193  11.888  21.398  0.00  0.00    +0.000 C 
ATOM     13  O   UNL     1       1.338  12.331  21.456  0.00  0.00    +0.000 OA
ATOM     14  H   UNL     1      -1.212  10.639  20.547  0.00  0.00    +0.000 HD
BRANCH  12  15
ATOM     15  C   UNL     1      -0.826  12.525  22.278  0.00  0.00    +0.000 A 
ATOM     16  C   UNL     1      -0.576  13.848  22.684  0.00  0.00    +0.000 A 
ATOM     17  C   UNL     1      -1.459  14.508  23.537  0.00  0.00    +0.000 A 
ATOM     18  C   UNL     1      -2.597  13.848  23.975  0.00  0.00    +0.000 A 
ATOM     19  F   UNL     1      -3.441  14.472  24.807  0.00  0.00    +0.000 F 
ATOM     20  C   UNL     1      -2.879  12.548  23.561  0.00  0.00    +0.000 A 
ATOM     21  C   UNL     1      -1.995  11.882  22.706  0.00  0.00    +0.000 A 
ENDBRANCH  12  15
ENDBRANCH   8  11
BRANCH   3  22
ATOM     22  C   UNL     1       3.589   5.058  18.049  0.00  0.00    +0.000 C 
ATOM     23  O   UNL     1       3.011   4.068  17.606  0.00  0.00    +0.000 OA
BRANCH  22  24
ATOM     24  C   UNL     1       5.086   5.042  18.100  0.00  0.00    +0.000 A 
ATOM     25  C   UNL     1       5.835   4.541  17.024  0.00  0.00    +0.000 A 
ATOM     26  C   UNL     1       7.228   4.565  17.061  0.00  0.00    +0.000 A 
ATOM     27  C   UNL     1       7.886   5.070  18.180  0.00  0.00    +0.000 A 
ATOM     28  C   UNL     1       7.150   5.528  19.277  0.00  0.00    +0.000 A 
ATOM     29  C   UNL     1       5.752   5.509  19.241  0.00  0.00    +0.000 A 
ENDBRANCH  22  24
ENDBRANCH   3  22
TORSDOF 4
ENDMDL
MODEL 7
REMARK VINA RESULT:      -8.5      6.475      8.651
REMARK  Name = 
REMARK  5 active torsions:
REMARK  status: ('A' for Active; 'I' for Inactive)
REMARK    1  A    between atoms: C_1  and  C_2
REMARK    2  A    between atoms: C_3  and  C_4
REMARK    3  A    between atoms: C_4  and  C_6
REMARK    4  A    between atoms: C_16  and  N_17
REMARK    5  A    between atoms: C_18  and  C_20
REMARK                            x       y       z     vdW  Elec       q    Type
REMARK                         _______ _______ _______ _____ _____    ______ ____
ROOT
ATOM      1  C   UNL     1       2.112   5.095  21.053  0.00  0.00    +0.000 C 
ATOM      2  C   UNL     1       2.551   5.887  19.878  0.00  0.00    +0.000 A 
ATOM      3  C   UNL     1       3.461   5.553  18.879  0.00  0.00    +0.000 A 
ATOM      4  O   UNL     1       3.577   6.601  18.002  0.00  0.00    +0.000 OA
ATOM      5  C   UNL     1       2.721   7.575  18.400  0.00  0.00    +0.000 A 
ATOM      6  C   UNL     1       2.531   8.796  17.769  0.00  0.00    +0.000 A 
ATOM      7  C   UNL     1       1.570   9.644  18.333  0.00  0.00    +0.000 A 
ATOM      8  C   UNL     1       0.828   9.278  19.462  0.00  0.00    +0.000 A 
ATOM      9  C   UNL     1       1.078   8.044  20.086  0.00  0.00    +0.000 A 
ATOM     10  C   UNL     1       2.044   7.178  19.539  0.00  0.00    +0.000 A 
ENDROOT
BRANCH   8  11
ATOM     11  N   UNL     1      -0.162  10.105  20.040  0.00  0.00    +0.000 N 
ATOM     12  C   UNL     1       0.017  10.919  21.142  0.00  0.00    +0.000 C 
ATOM     13  O   UNL     1       1.086  11.126  21.715  0.00  0.00    +0.000 OA
ATOM     14  H   UNL     1      -1.060  10.101  19.585  0.00  0.00    +0.000 HD
BRANCH  12  15
ATOM     15  C   UNL     1      -1.189  11.594  21.696  0.00  0.00    +0.000 A 
ATOM     16  C   UNL     1      -1.923  12.408  20.815  0.00  0.00    +0.000 A 
ATOM     17  C   UNL     1      -3.045  13.105  21.259  0.00  0.00    +0.000 A 
ATOM     18  C   UNL     1      -3.439  12.980  22.583  0.00  0.00    +0.000 A 
ATOM     19  F   UNL     1      -4.508  13.659  23.020  0.00  0.00    +0.000 F 
ATOM     20  C   UNL     1      -2.745  12.155  23.465  0.00  0.00    +0.000 A 
ATOM     21  C   UNL     1      -1.617  11.454  23.023  0.00  0.00    +0.000 A 
ENDBRANCH  12  15
ENDBRANCH   8  11
BRANCH   3  22
ATOM     22  C   UNL     1       4.265   4.366  18.638  0.00  0.00    +0.000 C 
ATOM     23  O   UNL     1       4.187   3.341  19.310  0.00  0.00    +0.000 OA
BRANCH  22  24
ATOM     24  C   UNL     1       5.232   4.392  17.493  0.00  0.00    +0.000 A 
ATOM     25  C   UNL     1       6.572   4.755  17.694  0.00  0.00    +0.000 A 
ATOM     26  C   UNL     1       7.476   4.739  16.632  0.00  0.00    +0.000 A 
ATOM     27  C   UNL     1       7.045   4.381  15.357  0.00  0.00    +0.000 A 
ATOM     28  C   UNL     1       5.701   4.064  15.136  0.00  0.00    +0.000 A 
ATOM     29  C   UNL     1       4.793   4.076  16.200  0.00  0.00    +0.000 A 
ENDBRANCH  22  24
ENDBRANCH   3  22
TORSDOF 4
ENDMDL
MODEL 8
REMARK VINA RESULT:      -8.5      7.072      8.561
REMARK  Name = 
REMARK  5 active torsions:
REMARK  status: ('A' for Active; 'I' for Inactive)
REMARK    1  A    between atoms: C_1  and  C_2
REMARK    2  A    between atoms: C_3  and  C_4
REMARK    3  A    between atoms: C_4  and  C_6
REMARK    4  A    between atoms: C_16  and  N_17
REMARK    5  A    between atoms: C_18  and  C_20
REMARK                            x       y       z     vdW  Elec       q    Type
REMARK                         _______ _______ _______ _____ _____    ______ ____
ROOT
ATOM      1  C   UNL     1       1.980   6.080  20.654  0.00  0.00    +0.000 C 
ATOM      2  C   UNL     1       2.227   7.025  19.538  0.00  0.00    +0.000 A 
ATOM      3  C   UNL     1       2.965   6.842  18.372  0.00  0.00    +0.000 A 
ATOM      4  O   UNL     1       2.942   7.996  17.632  0.00  0.00    +0.000 OA
ATOM      5  C   UNL     1       2.162   8.894  18.286  0.00  0.00    +0.000 A 
ATOM      6  C   UNL     1       1.876  10.183  17.858  0.00  0.00    +0.000 A 
ATOM      7  C   UNL     1       1.019  10.932  18.673  0.00  0.00    +0.000 A 
ATOM      8  C   UNL     1       0.466  10.409  19.848  0.00  0.00    +0.000 A 
ATOM      9  C   UNL     1       0.810   9.109  20.258  0.00  0.00    +0.000 A 
ATOM     10  C   UNL     1       1.675   8.340  19.455  0.00  0.00    +0.000 A 
ENDROOT
BRANCH   8  11
ATOM     11  N   UNL     1      -0.418  11.135  20.679  0.00  0.00    +0.000 N 
ATOM     12  C   UNL     1      -0.055  12.162  21.531  0.00  0.00    +0.000 C 
ATOM     13  O   UNL     1       1.065  12.663  21.612  0.00  0.00    +0.000 OA
ATOM     14  H   UNL     1      -1.390  10.881  20.616  0.00  0.00    +0.000 HD
BRANCH  12  15
ATOM     15  C   UNL     1      -1.105  12.697  22.440  0.00  0.00    +0.000 A 
ATOM     16  C   UNL     1      -0.870  13.962  23.008  0.00  0.00    +0.000 A 
ATOM     17  C   UNL     1      -1.784  14.522  23.899  0.00  0.00    +0.000 A 
ATOM     18  C   UNL     1      -2.939  13.820  24.214  0.00  0.00    +0.000 A 
ATOM     19  F   UNL     1      -3.813  14.347  25.081  0.00  0.00    +0.000 F 
ATOM     20  C   UNL     1      -3.206  12.580  23.639  0.00  0.00    +0.000 A 
ATOM     21  C   UNL     1      -2.290  12.013  22.746  0.00  0.00    +0.000 A 
ENDBRANCH  12  15
ENDBRANCH   8  11
BRANCH   3  22
ATOM     22  C   UNL     1       3.718   5.712  17.854  0.00  0.00    +0.000 C 
ATOM     23  O   UNL     1       4.717   5.824  17.146  0.00  0.00    +0.000 OA
BRANCH  22  24
ATOM     24  C   UNL     1       3.259   4.333  18.218  0.00  0.00    +0.000 A 
ATOM     25  C   UNL     1       4.100   3.461  18.927  0.00  0.00    +0.000 A 
ATOM     26  C   UNL     1       3.653   2.193  19.297  0.00  0.00    +0.000 A 
ATOM     27  C   UNL     1       2.371   1.777  18.946  0.00  0.00    +0.000 A 
ATOM     28  C   UNL     1       1.542   2.620  18.199  0.00  0.00    +0.000 A 
ATOM     29  C   UNL     1       1.986   3.893  17.829  0.00  0.00    +0.000 A 
ENDBRANCH  22  24
ENDBRANCH   3  22
TORSDOF 4
ENDMDL
MODEL 9
REMARK VINA RESULT:      -8.5      6.929      8.740
REMARK  Name = 
REMARK  5 active torsions:
REMARK  status: ('A' for Active; 'I' for Inactive)
REMARK    1  A    between atoms: C_1  and  C_2
REMARK    2  A    between atoms: C_3  and  C_4
REMARK    3  A    between atoms: C_4  and  C_6
REMARK    4  A    between atoms: C_16  and  N_17
REMARK    5  A    between atoms: C_18  and  C_20
REMARK                            x       y       z     vdW  Elec       q    Type
REMARK                         _______ _______ _______ _____ _____    ______ ____
ROOT
ATOM      1  C   UNL     1       2.001   5.475  20.779  0.00  0.00    +0.000 C 
ATOM      2  C   UNL     1       2.182   6.402  19.636  0.00  0.00    +0.000 A 
ATOM      3  C   UNL     1       2.702   6.152  18.369  0.00  0.00    +0.000 A 
ATOM      4  O   UNL     1       2.701   7.314  17.640  0.00  0.00    +0.000 OA
ATOM      5  C   UNL     1       2.145   8.286  18.405  0.00  0.00    +0.000 A 
ATOM      6  C   UNL     1       1.951   9.606  18.024  0.00  0.00    +0.000 A 
ATOM      7  C   UNL     1       1.326  10.438  18.962  0.00  0.00    +0.000 A 
ATOM      8  C   UNL     1       0.905   9.964  20.210  0.00  0.00    +0.000 A 
ATOM      9  C   UNL     1       1.152   8.626  20.564  0.00  0.00    +0.000 A 
ATOM     10  C   UNL     1       1.783   7.774  19.638  0.00  0.00    +0.000 A 
ENDROOT
BRANCH   8  11
ATOM     11  N   UNL     1       0.254  10.775  21.168  0.00  0.00    +0.000 N 
ATOM     12  C   UNL     1      -0.896  11.510  20.947  0.00  0.00    +0.000 C 
ATOM     13  O   UNL     1      -1.578  11.484  19.924  0.00  0.00    +0.000 OA
ATOM     14  H   UNL     1       0.667  10.790  22.086  0.00  0.00    +0.000 HD
BRANCH  12  15
ATOM     15  C   UNL     1      -1.339  12.427  22.034  0.00  0.00    +0.000 A 
ATOM     16  C   UNL     1      -2.579  12.146  22.635  0.00  0.00    +0.000 A 
ATOM     17  C   UNL     1      -3.086  12.973  23.636  0.00  0.00    +0.000 A 
ATOM     18  C   UNL     1      -2.349  14.076  24.041  0.00  0.00    +0.000 A 
ATOM     19  F   UNL     1      -2.839  14.883  24.991  0.00  0.00    +0.000 F 
ATOM     20  C   UNL     1      -1.105  14.355  23.480  0.00  0.00    +0.000 A 
ATOM     21  C   UNL     1      -0.592  13.527  22.474  0.00  0.00    +0.000 A 
ENDBRANCH  12  15
ENDBRANCH   8  11
BRANCH   3  22
ATOM     22  C   UNL     1       3.225   4.950  17.741  0.00  0.00    +0.000 C 
ATOM     23  O   UNL     1       2.524   4.008  17.381  0.00  0.00    +0.000 OA
BRANCH  22  24
ATOM     24  C   UNL     1       4.703   4.866  17.505  0.00  0.00    +0.000 A 
ATOM     25  C   UNL     1       5.611   5.247  18.504  0.00  0.00    +0.000 A 
ATOM     26  C   UNL     1       6.985   5.130  18.293  0.00  0.00    +0.000 A 
ATOM     27  C   UNL     1       7.463   4.650  17.077  0.00  0.00    +0.000 A 
ATOM     28  C   UNL     1       6.567   4.312  16.057  0.00  0.00    +0.000 A 
ATOM     29  C   UNL     1       5.190   4.425  16.267  0.00  0.00    +0.000 A 
ENDBRANCH  22  24
ENDBRANCH   3  22
TORSDOF 4
ENDMDL
