MODEL 1
REMARK VINA RESULT:      -8.2      0.000      0.000
REMARK  Name = 
REMARK  5 active torsions:
REMARK  status: ('A' for Active; 'I' for Inactive)
REMARK    1  A    between atoms: C_1  and  C_2
REMARK    2  A    between atoms: C_5  and  N_6
REMARK    3  A    between atoms: C_9  and  C_10
REMARK    4  A    between atoms: C_14  and  N_15
REMARK    5  A    between atoms: C_22  and  O_23
REMARK                            x       y       z     vdW  Elec       q    Type
REMARK                         _______ _______ _______ _____ _____    ______ ____
ROOT
ATOM      1  N   UNL     1       1.081   9.483  19.326  0.00  0.00    +0.000 N 
ATOM      2  C   UNL     1       1.947   9.697  18.174  0.00  0.00    +0.000 C 
ATOM      3  C   UNL     1       2.455   8.388  17.656  0.00  0.00    +0.000 C 
ATOM      4  C   UNL     1       2.567   7.339  18.479  0.00  0.00    +0.000 C 
ATOM      5  N   UNL     1       2.166   7.465  19.775  0.00  0.00    +0.000 N 
ATOM      6  C   UNL     1       1.367   8.475  20.234  0.00  0.00    +0.000 C 
ATOM      7  O   UNL     1       0.859   8.370  21.349  0.00  0.00    +0.000 OA
ATOM      8  H   UNL     1       2.277   6.690  20.418  0.00  0.00    +0.000 HD
ENDROOT
BRANCH   1  13
ATOM      9  C   UNL     1      -3.222  13.149  20.409  0.00  0.00    +0.000 C 
ATOM     10  C   UNL     1      -2.111  12.187  20.112  0.00  0.00    +0.000 A 
ATOM     11  C   UNL     1      -2.191  11.277  19.052  0.00  0.00    +0.000 A 
ATOM     12  C   UNL     1      -1.142  10.382  18.798  0.00  0.00    +0.000 A 
ATOM     13  C   UNL     1       0.025  10.411  19.574  0.00  0.00    +0.000 A 
ATOM     14  C   UNL     1       0.092  11.332  20.634  0.00  0.00    +0.000 A 
ATOM     15  C   UNL     1      -0.965  12.196  20.910  0.00  0.00    +0.000 A 
BRANCH  14  16
ATOM     16  O   UNL     1       1.144  11.393  21.508  0.00  0.00    +0.000 OA
ATOM     17  H   UNL     1       1.382  12.334  21.587  0.00  0.00    +0.000 HD
ENDBRANCH  14  16
ENDBRANCH   1  13
BRANCH   4  18
ATOM     18  C   UNL     1       3.084   6.039  18.055  0.00  0.00    +0.000 A 
ATOM     19  C   UNL     1       2.214   4.950  17.895  0.00  0.00    +0.000 A 
ATOM     20  C   UNL     1       2.708   3.690  17.548  0.00  0.00    +0.000 A 
ATOM     21  C   UNL     1       4.077   3.511  17.358  0.00  0.00    +0.000 A 
ATOM     22  C   UNL     1       4.949   4.603  17.517  0.00  0.00    +0.000 A 
ATOM     23  C   UNL     1       4.457   5.865  17.862  0.00  0.00    +0.000 A 
BRANCH  22  24
ATOM     24  N   UNL     1       6.394   4.421  17.327  0.00  0.00    +0.000 N 
ATOM     25  O   UNL     1       6.814   4.313  16.167  0.00  0.00    +0.000 OA
ATOM     26  O   UNL     1       7.105   4.390  18.338  0.00  0.00    +0.000 OA
ENDBRANCH  22  24
ENDBRANCH   4  18
TORSDOF 4
ENDMDL
MODEL 2
REMARK VINA RESULT:      -8.1      3.645      5.672
REMARK  Name = 
REMARK  5 active torsions:
REMARK  status: ('A' for Active; 'I' for Inactive)
REMARK    1  A    between atoms: C_1  and  C_2
REMARK    2  A    between atoms: C_5  and  N_6
REMARK    3  A    between atoms: C_9  and  C_10
REMARK    4  A    between atoms: C_14  and  N_15
REMARK    5  A    between atoms: C_22  and  O_23
REMARK                            x       y       z     vdW  Elec       q    Type
REMARK                         _______ _______ _______ _____ _____    ______ ____
ROOT
ATOM      1  N   UNL     1       4.089   5.905  17.914  0.00  0.00    +0.000 N 
ATOM      2  C   UNL     1       5.488   6.313  17.883  0.00  0.00    +0.000 C 
ATOM      3  C   UNL     1       6.086   6.015  16.544  0.00  0.00    +0.000 C 
ATOM      4  C   UNL     1       5.588   5.027  15.791  0.00  0.00    +0.000 C 
ATOM      5  N   UNL     1       4.504   4.334  16.237  0.00  0.00    +0.000 N 
ATOM      6  C   UNL     1       3.682   4.763  17.243  0.00  0.00    +0.000 C 
ATOM      7  O   UNL     1       2.600   4.201  17.405  0.00  0.00    +0.000 OA
ATOM      8  H   UNL     1       4.137   3.561  15.694  0.00  0.00    +0.000 HD
ENDROOT
BRANCH   1  13
ATOM      9  C   UNL     1       0.344   8.725  21.253  0.00  0.00    +0.000 C 
ATOM     10  C   UNL     1       1.319   8.005  20.370  0.00  0.00    +0.000 A 
ATOM     11  C   UNL     1       1.736   8.540  19.147  0.00  0.00    +0.000 A 
ATOM     12  C   UNL     1       2.643   7.844  18.335  0.00  0.00    +0.000 A 
ATOM     13  C   UNL     1       3.183   6.621  18.753  0.00  0.00    +0.000 A 
ATOM     14  C   UNL     1       2.756   6.097  19.986  0.00  0.00    +0.000 A 
ATOM     15  C   UNL     1       1.827   6.768  20.776  0.00  0.00    +0.000 A 
BRANCH  14  16
ATOM     16  O   UNL     1       3.151   4.872  20.456  0.00  0.00    +0.000 OA
ATOM     17  H   UNL     1       3.641   4.445  19.730  0.00  0.00    +0.000 HD
ENDBRANCH  14  16
ENDBRANCH   1  13
BRANCH   4  18
ATOM     18  C   UNL     1       6.138   4.656  14.489  0.00  0.00    +0.000 A 
ATOM     19  C   UNL     1       7.319   5.256  14.024  0.00  0.00    +0.000 A 
ATOM     20  C   UNL     1       7.820   4.950  12.756  0.00  0.00    +0.000 A 
ATOM     21  C   UNL     1       7.142   4.043  11.943  0.00  0.00    +0.000 A 
ATOM     22  C   UNL     1       5.959   3.442  12.410  0.00  0.00    +0.000 A 
ATOM     23  C   UNL     1       5.457   3.744  13.679  0.00  0.00    +0.000 A 
BRANCH  22  24
ATOM     24  N   UNL     1       5.234   2.492  11.557  0.00  0.00    +0.000 N 
ATOM     25  O   UNL     1       4.127   2.835  11.120  0.00  0.00    +0.000 OA
ATOM     26  O   UNL     1       5.775   1.404  11.322  0.00  0.00    +0.000 OA
ENDBRANCH  22  24
ENDBRANCH   4  18
TORSDOF 4
ENDMDL
MODEL 3
REMARK VINA RESULT:      -8.0      1.946      2.158
REMARK  Name = 
REMARK  5 active torsions:
REMARK  status: ('A' for Active; 'I' for Inactive)
REMARK    1  A    between atoms: C_1  and  C_2
REMARK    2  A    between atoms: C_5  and  N_6
REMARK    3  A    between atoms: C_9  and  C_10
REMARK    4  A    between atoms: C_14  and  N_15
REMARK    5  A    between atoms: C_22  and  O_23
REMARK                            x       y       z     vdW  Elec       q    Type
REMARK                         _______ _______ _______ _____ _____    ______ ____
ROOT
ATOM      1  N   UNL     1       1.044   9.598  19.309  0.00  0.00    +0.000 N 
ATOM      2  C   UNL     1       1.915   9.834  18.165  0.00  0.00    +0.000 C 
ATOM      3  C   UNL     1       2.440   8.536  17.636  0.00  0.00    +0.000 C 
ATOM      4  C   UNL     1       2.556   7.478  18.446  0.00  0.00    +0.000 C 
ATOM      5  N   UNL     1       2.146   7.585  19.741  0.00  0.00    +0.000 N 
ATOM      6  C   UNL     1       1.333   8.582  20.207  0.00  0.00    +0.000 C 
ATOM      7  O   UNL     1       0.819   8.458  21.317  0.00  0.00    +0.000 OA
ATOM      8  H   UNL     1       2.260   6.804  20.375  0.00  0.00    +0.000 HD
ENDROOT
BRANCH   1  13
ATOM      9  C   UNL     1      -3.301  13.209  20.409  0.00  0.00    +0.000 C 
ATOM     10  C   UNL     1      -2.180  12.260  20.108  0.00  0.00    +0.000 A 
ATOM     11  C   UNL     1      -2.261  11.335  19.062  0.00  0.00    +0.000 A 
ATOM     12  C   UNL     1      -1.202  10.453  18.804  0.00  0.00    +0.000 A 
ATOM     13  C   UNL     1      -0.024  10.512  19.561  0.00  0.00    +0.000 A 
ATOM     14  C   UNL     1       0.044  11.448  20.607  0.00  0.00    +0.000 A 
ATOM     15  C   UNL     1      -1.022  12.299  20.888  0.00  0.00    +0.000 A 
BRANCH  14  16
ATOM     16  O   UNL     1       1.109  11.538  21.463  0.00  0.00    +0.000 OA
ATOM     17  H   UNL     1       1.853  11.085  21.025  0.00  0.00    +0.000 HD
ENDBRANCH  14  16
ENDBRANCH   1  13
BRANCH   4  18
ATOM     18  C   UNL     1       3.090   6.189  18.011  0.00  0.00    +0.000 A 
ATOM     19  C   UNL     1       4.234   6.135  17.200  0.00  0.00    +0.000 A 
ATOM     20  C   UNL     1       4.716   4.911  16.731  0.00  0.00    +0.000 A 
ATOM     21  C   UNL     1       4.056   3.730  17.070  0.00  0.00    +0.000 A 
ATOM     22  C   UNL     1       2.910   3.785  17.884  0.00  0.00    +0.000 A 
ATOM     23  C   UNL     1       2.427   5.008  18.357  0.00  0.00    +0.000 A 
BRANCH  22  24
ATOM     24  N   UNL     1       2.204   2.547  18.239  0.00  0.00    +0.000 N 
ATOM     25  O   UNL     1       0.966   2.562  18.218  0.00  0.00    +0.000 OA
ATOM     26  O   UNL     1       2.890   1.561  18.536  0.00  0.00    +0.000 OA
ENDBRANCH  22  24
ENDBRANCH   4  18
TORSDOF 4
ENDMDL
MODEL 4
REMARK VINA RESULT:      -7.9      3.650      5.734
REMARK  Name = 
REMARK  5 active torsions:
REMARK  status: ('A' for Active; 'I' for Inactive)
REMARK    1  A    between atoms: C_1  and  C_2
REMARK    2  A    between atoms: C_5  and  N_6
REMARK    3  A    between atoms: C_9  and  C_10
REMARK    4  A    between atoms: C_14  and  N_15
REMARK    5  A    between atoms: C_22  and  O_23
REMARK                            x       y       z     vdW  Elec       q    Type
REMARK                         _______ _______ _______ _____ _____    ______ ____
ROOT
ATOM      1  N   UNL     1       4.006   5.598  18.003  0.00  0.00    +0.000 N 
ATOM      2  C   UNL     1       5.406   6.003  18.018  0.00  0.00    +0.000 C 
ATOM      3  C   UNL     1       6.025   5.780  16.673  0.00  0.00    +0.000 C 
ATOM      4  C   UNL     1       5.537   4.839  15.858  0.00  0.00    +0.000 C 
ATOM      5  N   UNL     1       4.444   4.124  16.246  0.00  0.00    +0.000 N 
ATOM      6  C   UNL     1       3.607   4.497  17.262  0.00  0.00    +0.000 C 
ATOM      7  O   UNL     1       2.522   3.931  17.375  0.00  0.00    +0.000 OA
ATOM      8  H   UNL     1       4.085   3.385  15.654  0.00  0.00    +0.000 HD
ENDROOT
BRANCH   1  13
ATOM      9  C   UNL     1       0.398   8.355  21.541  0.00  0.00    +0.000 C 
ATOM     10  C   UNL     1       1.338   7.622  20.631  0.00  0.00    +0.000 A 
ATOM     11  C   UNL     1       1.788   6.330  20.926  0.00  0.00    +0.000 A 
ATOM     12  C   UNL     1       2.673   5.667  20.064  0.00  0.00    +0.000 A 
ATOM     13  C   UNL     1       3.088   6.268  18.868  0.00  0.00    +0.000 A 
ATOM     14  C   UNL     1       2.626   7.565  18.584  0.00  0.00    +0.000 A 
ATOM     15  C   UNL     1       1.778   8.239  19.458  0.00  0.00    +0.000 A 
BRANCH  14  16
ATOM     16  O   UNL     1       3.032   8.281  17.489  0.00  0.00    +0.000 OA
ATOM     17  H   UNL     1       3.488   9.071  17.831  0.00  0.00    +0.000 HD
ENDBRANCH  14  16
ENDBRANCH   1  13
BRANCH   4  18
ATOM     18  C   UNL     1       6.107   4.541  14.545  0.00  0.00    +0.000 A 
ATOM     19  C   UNL     1       7.273   5.193  14.117  0.00  0.00    +0.000 A 
ATOM     20  C   UNL     1       7.792   4.958  12.841  0.00  0.00    +0.000 A 
ATOM     21  C   UNL     1       7.146   4.068  11.983  0.00  0.00    +0.000 A 
ATOM     22  C   UNL     1       5.977   3.414  12.414  0.00  0.00    +0.000 A 
ATOM     23  C   UNL     1       5.458   3.646  13.691  0.00  0.00    +0.000 A 
BRANCH  22  24
ATOM     24  N   UNL     1       5.286   2.482  11.514  0.00  0.00    +0.000 N 
ATOM     25  O   UNL     1       5.863   1.426  11.223  0.00  0.00    +0.000 OA
ATOM     26  O   UNL     1       4.166   2.807  11.102  0.00  0.00    +0.000 OA
ENDBRANCH  22  24
ENDBRANCH   4  18
TORSDOF 4
ENDMDL
MODEL 5
REMARK VINA RESULT:      -7.9      1.816      2.020
REMARK  Name = 
REMARK  5 active torsions:
REMARK  status: ('A' for Active; 'I' for Inactive)
REMARK    1  A    between atoms: C_1  and  C_2
REMARK    2  A    between atoms: C_5  and  N_6
REMARK    3  A    between atoms: C_9  and  C_10
REMARK    4  A    between atoms: C_14  and  N_15
REMARK    5  A    between atoms: C_22  and  O_23
REMARK                            x       y       z     vdW  Elec       q    Type
REMARK                         _______ _______ _______ _____ _____    ______ ____
ROOT
ATOM      1  N   UNL     1       1.167   9.284  19.476  0.00  0.00    +0.000 N 
ATOM      2  C   UNL     1       2.037   9.359  18.310  0.00  0.00    +0.000 C 
ATOM      3  C   UNL     1       2.555   7.999  17.960  0.00  0.00    +0.000 C 
ATOM      4  C   UNL     1       2.668   7.060  18.906  0.00  0.00    +0.000 C 
ATOM      5  N   UNL     1       2.260   7.343  20.175  0.00  0.00    +0.000 N 
ATOM      6  C   UNL     1       1.452   8.397  20.502  0.00  0.00    +0.000 C 
ATOM      7  O   UNL     1       0.939   8.428  21.619  0.00  0.00    +0.000 OA
ATOM      8  H   UNL     1       2.371   6.654  20.909  0.00  0.00    +0.000 HD
ENDROOT
BRANCH   1  13
ATOM      9  C   UNL     1      -3.164  13.028  20.076  0.00  0.00    +0.000 C 
ATOM     10  C   UNL     1      -2.045  12.044  19.906  0.00  0.00    +0.000 A 
ATOM     11  C   UNL     1      -2.103  11.026  18.948  0.00  0.00    +0.000 A 
ATOM     12  C   UNL     1      -1.048  10.112  18.812  0.00  0.00    +0.000 A 
ATOM     13  C   UNL     1       0.104  10.229  19.602  0.00  0.00    +0.000 A 
ATOM     14  C   UNL     1       0.148  11.259  20.558  0.00  0.00    +0.000 A 
ATOM     15  C   UNL     1      -0.915  12.143  20.720  0.00  0.00    +0.000 A 
BRANCH  14  16
ATOM     16  O   UNL     1       1.184  11.417  21.441  0.00  0.00    +0.000 OA
ATOM     17  H   UNL     1       1.053  12.284  21.865  0.00  0.00    +0.000 HD
ENDBRANCH  14  16
ENDBRANCH   1  13
BRANCH   4  18
ATOM     18  C   UNL     1       3.194   5.722  18.649  0.00  0.00    +0.000 A 
ATOM     19  C   UNL     1       3.520   5.330  17.341  0.00  0.00    +0.000 A 
ATOM     20  C   UNL     1       3.968   4.033  17.078  0.00  0.00    +0.000 A 
ATOM     21  C   UNL     1       4.094   3.118  18.122  0.00  0.00    +0.000 A 
ATOM     22  C   UNL     1       3.769   3.512  19.433  0.00  0.00    +0.000 A 
ATOM     23  C   UNL     1       3.322   4.809  19.699  0.00  0.00    +0.000 A 
BRANCH  22  24
ATOM     24  N   UNL     1       3.890   2.552  20.538  0.00  0.00    +0.000 N 
ATOM     25  O   UNL     1       4.907   1.845  20.579  0.00  0.00    +0.000 OA
ATOM     26  O   UNL     1       2.970   2.508  21.363  0.00  0.00    +0.000 OA
ENDBRANCH  22  24
ENDBRANCH   4  18
TORSDOF 4
ENDMDL
MODEL 6
REMARK VINA RESULT:      -7.8      0.950      1.383
REMARK  Name = 
REMARK  5 active torsions:
REMARK  status: ('A' for Active; 'I' for Inactive)
REMARK    1  A    between atoms: C_1  and  C_2
REMARK    2  A    between atoms: C_5  and  N_6
REMARK    3  A    between atoms: C_9  and  C_10
REMARK    4  A    between atoms: C_14  and  N_15
REMARK    5  A    between atoms: C_22  and  O_23
REMARK                            x       y       z     vdW  Elec       q    Type
REMARK                         _______ _______ _______ _____ _____    ______ ____
ROOT
ATOM      1  N   UNL     1       1.096   9.421  19.411  0.00  0.00    +0.000 N 
ATOM      2  C   UNL     1       1.959   9.674  18.264  0.00  0.00    +0.000 C 
ATOM      3  C   UNL     1       2.495   8.384  17.725  0.00  0.00    +0.000 C 
ATOM      4  C   UNL     1       2.628   7.324  18.530  0.00  0.00    +0.000 C 
ATOM      5  N   UNL     1       2.223   7.419  19.827  0.00  0.00    +0.000 N 
ATOM      6  C   UNL     1       1.401   8.404  20.302  0.00  0.00    +0.000 C 
ATOM      7  O   UNL     1       0.894   8.269  21.414  0.00  0.00    +0.000 OA
ATOM      8  H   UNL     1       2.349   6.635  20.456  0.00  0.00    +0.000 HD
ENDROOT
BRANCH   1  13
ATOM      9  C   UNL     1      -3.185  13.138  20.406  0.00  0.00    +0.000 C 
ATOM     10  C   UNL     1      -2.062  12.174  20.164  0.00  0.00    +0.000 A 
ATOM     11  C   UNL     1      -1.069  11.948  21.123  0.00  0.00    +0.000 A 
ATOM     12  C   UNL     1      -0.025  11.047  20.871  0.00  0.00    +0.000 A 
ATOM     13  C   UNL     1       0.019  10.322  19.673  0.00  0.00    +0.000 A 
ATOM     14  C   UNL     1      -0.987  10.557  18.720  0.00  0.00    +0.000 A 
ATOM     15  C   UNL     1      -2.003  11.480  18.953  0.00  0.00    +0.000 A 
BRANCH  14  16
ATOM     16  O   UNL     1      -0.999   9.970  17.483  0.00  0.00    +0.000 OA
ATOM     17  H   UNL     1      -0.068   9.807  17.248  0.00  0.00    +0.000 HD
ENDBRANCH  14  16
ENDBRANCH   1  13
BRANCH   4  18
ATOM     18  C   UNL     1       3.174   6.043  18.085  0.00  0.00    +0.000 A 
ATOM     19  C   UNL     1       2.324   4.946  17.878  0.00  0.00    +0.000 A 
ATOM     20  C   UNL     1       2.844   3.703  17.510  0.00  0.00    +0.000 A 
ATOM     21  C   UNL     1       4.220   3.548  17.346  0.00  0.00    +0.000 A 
ATOM     22  C   UNL     1       5.071   4.649  17.552  0.00  0.00    +0.000 A 
ATOM     23  C   UNL     1       4.553   5.894  17.918  0.00  0.00    +0.000 A 
BRANCH  22  24
ATOM     24  N   UNL     1       6.522   4.493  17.389  0.00  0.00    +0.000 N 
ATOM     25  O   UNL     1       6.970   4.429  16.236  0.00  0.00    +0.000 OA
ATOM     26  O   UNL     1       7.212   4.437  18.414  0.00  0.00    +0.000 OA
ENDBRANCH  22  24
ENDBRANCH   4  18
TORSDOF 4
ENDMDL
MODEL 7
REMARK VINA RESULT:      -7.8      2.091      2.511
REMARK  Name = 
REMARK  5 active torsions:
REMARK  status: ('A' for Active; 'I' for Inactive)
REMARK    1  A    between atoms: C_1  and  C_2
REMARK    2  A    between atoms: C_5  and  N_6
REMARK    3  A    between atoms: C_9  and  C_10
REMARK    4  A    between atoms: C_14  and  N_15
REMARK    5  A    between atoms: C_22  and  O_23
REMARK                            x       y       z     vdW  Elec       q    Type
REMARK                         _______ _______ _______ _____ _____    ______ ____
ROOT
ATOM      1  N   UNL     1       0.987   9.560  19.314  0.00  0.00    +0.000 N 
ATOM      2  C   UNL     1       1.890   9.895  18.221  0.00  0.00    +0.000 C 
ATOM      3  C   UNL     1       2.482   8.649  17.637  0.00  0.00    +0.000 C 
ATOM      4  C   UNL     1       2.608   7.550  18.389  0.00  0.00    +0.000 C 
ATOM      5  N   UNL     1       2.148   7.566  19.671  0.00  0.00    +0.000 N 
ATOM      6  C   UNL     1       1.281   8.504  20.162  0.00  0.00    +0.000 C 
ATOM      7  O   UNL     1       0.732   8.297  21.243  0.00  0.00    +0.000 OA
ATOM      8  H   UNL     1       2.268   6.752  20.263  0.00  0.00    +0.000 HD
ENDROOT
BRANCH   1  13
ATOM      9  C   UNL     1      -3.430  13.113  20.312  0.00  0.00    +0.000 C 
ATOM     10  C   UNL     1      -2.272  12.192  20.069  0.00  0.00    +0.000 A 
ATOM     11  C   UNL     1      -1.257  12.023  21.017  0.00  0.00    +0.000 A 
ATOM     12  C   UNL     1      -0.180  11.162  20.765  0.00  0.00    +0.000 A 
ATOM     13  C   UNL     1      -0.123  10.420  19.577  0.00  0.00    +0.000 A 
ATOM     14  C   UNL     1      -1.151  10.598  18.635  0.00  0.00    +0.000 A 
ATOM     15  C   UNL     1      -2.201  11.482  18.869  0.00  0.00    +0.000 A 
BRANCH  14  16
ATOM     16  O   UNL     1      -1.155   9.991  17.407  0.00  0.00    +0.000 OA
ATOM     17  H   UNL     1      -0.245   9.678  17.253  0.00  0.00    +0.000 HD
ENDBRANCH  14  16
ENDBRANCH   1  13
BRANCH   4  18
ATOM     18  C   UNL     1       3.205   6.309  17.901  0.00  0.00    +0.000 A 
ATOM     19  C   UNL     1       4.355   6.346  17.097  0.00  0.00    +0.000 A 
ATOM     20  C   UNL     1       4.898   5.168  16.578  0.00  0.00    +0.000 A 
ATOM     21  C   UNL     1       4.293   3.944  16.858  0.00  0.00    +0.000 A 
ATOM     22  C   UNL     1       3.141   3.907  17.664  0.00  0.00    +0.000 A 
ATOM     23  C   UNL     1       2.597   5.084  18.188  0.00  0.00    +0.000 A 
BRANCH  22  24
ATOM     24  N   UNL     1       2.493   2.622  17.958  0.00  0.00    +0.000 N 
ATOM     25  O   UNL     1       3.220   1.634  18.124  0.00  0.00    +0.000 OA
ATOM     26  O   UNL     1       1.257   2.605  18.024  0.00  0.00    +0.000 OA
ENDBRANCH  22  24
ENDBRANCH   4  18
TORSDOF 4
ENDMDL
MODEL 8
REMARK VINA RESULT:      -7.6      1.173      1.358
REMARK  Name = 
REMARK  5 active torsions:
REMARK  status: ('A' for Active; 'I' for Inactive)
REMARK    1  A    between atoms: C_1  and  C_2
REMARK    2  A    between atoms: C_5  and  N_6
REMARK    3  A    between atoms: C_9  and  C_10
REMARK    4  A    between atoms: C_14  and  N_15
REMARK    5  A    between atoms: C_22  and  O_23
REMARK                            x       y       z     vdW  Elec       q    Type
REMARK                         _______ _______ _______ _____ _____    ______ ____
ROOT
ATOM      1  N   UNL     1       0.984   9.836  19.605  0.00  0.00    +0.000 N 
ATOM      2  C   UNL     1       1.696   9.813  18.334  0.00  0.00    +0.000 C 
ATOM      3  C   UNL     1       2.014   8.404  17.942  0.00  0.00    +0.000 C 
ATOM      4  C   UNL     1       2.149   7.461  18.881  0.00  0.00    +0.000 C 
ATOM      5  N   UNL     1       1.945   7.790  20.188  0.00  0.00    +0.000 N 
ATOM      6  C   UNL     1       1.306   8.926  20.600  0.00  0.00    +0.000 C 
ATOM      7  O   UNL     1       0.952   9.015  21.774  0.00  0.00    +0.000 OA
ATOM      8  H   UNL     1       2.078   7.094  20.912  0.00  0.00    +0.000 HD
ENDROOT
BRANCH   1  13
ATOM      9  C   UNL     1      -2.790  14.038  20.713  0.00  0.00    +0.000 C 
ATOM     10  C   UNL     1      -1.820  12.935  20.413  0.00  0.00    +0.000 A 
ATOM     11  C   UNL     1      -2.166  11.855  19.593  0.00  0.00    +0.000 A 
ATOM     12  C   UNL     1      -1.244  10.831  19.333  0.00  0.00    +0.000 A 
ATOM     13  C   UNL     1       0.056  10.892  19.854  0.00  0.00    +0.000 A 
ATOM     14  C   UNL     1       0.389  11.983  20.674  0.00  0.00    +0.000 A 
ATOM     15  C   UNL     1      -0.537  12.981  20.964  0.00  0.00    +0.000 A 
BRANCH  14  16
ATOM     16  O   UNL     1       1.599  12.104  21.305  0.00  0.00    +0.000 OA
ATOM     17  H   UNL     1       1.478  12.767  22.008  0.00  0.00    +0.000 HD
ENDBRANCH  14  16
ENDBRANCH   1  13
BRANCH   4  18
ATOM     18  C   UNL     1       2.489   6.072  18.579  0.00  0.00    +0.000 A 
ATOM     19  C   UNL     1       1.606   5.273  17.837  0.00  0.00    +0.000 A 
ATOM     20  C   UNL     1       1.897   3.928  17.594  0.00  0.00    +0.000 A 
ATOM     21  C   UNL     1       3.074   3.372  18.093  0.00  0.00    +0.000 A 
ATOM     22  C   UNL     1       3.959   4.174  18.837  0.00  0.00    +0.000 A 
ATOM     23  C   UNL     1       3.672   5.520  19.079  0.00  0.00    +0.000 A 
BRANCH  22  24
ATOM     24  N   UNL     1       5.197   3.595  19.373  0.00  0.00    +0.000 N 
ATOM     25  O   UNL     1       5.122   2.497  19.941  0.00  0.00    +0.000 OA
ATOM     26  O   UNL     1       6.244   4.237  19.223  0.00  0.00    +0.000 OA
ENDBRANCH  22  24
ENDBRANCH   4  18
TORSDOF 4
ENDMDL
MODEL 9
REMARK VINA RESULT:      -7.5      2.417      2.919
REMARK  Name = 
REMARK  5 active torsions:
REMARK  status: ('A' for Active; 'I' for Inactive)
REMARK    1  A    between atoms: C_1  and  C_2
REMARK    2  A    between atoms: C_5  and  N_6
REMARK    3  A    between atoms: C_9  and  C_10
REMARK    4  A    between atoms: C_14  and  N_15
REMARK    5  A    between atoms: C_22  and  O_23
REMARK                            x       y       z     vdW  Elec       q    Type
REMARK                         _______ _______ _______ _____ _____    ______ ____
ROOT
ATOM      1  N   UNL     1       1.122   9.682  19.626  0.00  0.00    +0.000 N 
ATOM      2  C   UNL     1       1.840   9.711  18.358  0.00  0.00    +0.000 C 
ATOM      3  C   UNL     1       2.147   8.319  17.903  0.00  0.00    +0.000 C 
ATOM      4  C   UNL     1       2.268   7.332  18.798  0.00  0.00    +0.000 C 
ATOM      5  N   UNL     1       2.061   7.601  20.117  0.00  0.00    +0.000 N 
ATOM      6  C   UNL     1       1.430   8.723  20.579  0.00  0.00    +0.000 C 
ATOM      7  O   UNL     1       1.070   8.761  21.754  0.00  0.00    +0.000 OA
ATOM      8  H   UNL     1       2.183   6.872  20.809  0.00  0.00    +0.000 HD
ENDROOT
BRANCH   1  13
ATOM      9  C   UNL     1      -2.553  13.978  20.707  0.00  0.00    +0.000 C 
ATOM     10  C   UNL     1      -1.583  12.867  20.437  0.00  0.00    +0.000 A 
ATOM     11  C   UNL     1      -0.319  12.834  21.036  0.00  0.00    +0.000 A 
ATOM     12  C   UNL     1       0.575  11.789  20.763  0.00  0.00    +0.000 A 
ATOM     13  C   UNL     1       0.202  10.734  19.919  0.00  0.00    +0.000 A 
ATOM     14  C   UNL     1      -1.072  10.779  19.327  0.00  0.00    +0.000 A 
ATOM     15  C   UNL     1      -1.946  11.836  19.567  0.00  0.00    +0.000 A 
BRANCH  14  16
ATOM     16  O   UNL     1      -1.511   9.849  18.422  0.00  0.00    +0.000 OA
ATOM     17  H   UNL     1      -0.909   9.087  18.498  0.00  0.00    +0.000 HD
ENDBRANCH  14  16
ENDBRANCH   1  13
BRANCH   4  18
ATOM     18  C   UNL     1       2.597   5.955  18.433  0.00  0.00    +0.000 A 
ATOM     19  C   UNL     1       3.647   5.693  17.540  0.00  0.00    +0.000 A 
ATOM     20  C   UNL     1       3.931   4.384  17.141  0.00  0.00    +0.000 A 
ATOM     21  C   UNL     1       3.166   3.328  17.633  0.00  0.00    +0.000 A 
ATOM     22  C   UNL     1       2.114   3.592  18.529  0.00  0.00    +0.000 A 
ATOM     23  C   UNL     1       1.830   4.900  18.932  0.00  0.00    +0.000 A 
BRANCH  22  24
ATOM     24  N   UNL     1       1.297   2.486  19.046  0.00  0.00    +0.000 N 
ATOM     25  O   UNL     1       1.627   1.982  20.128  0.00  0.00    +0.000 OA
ATOM     26  O   UNL     1       0.327   2.125  18.369  0.00  0.00    +0.000 OA
ENDBRANCH  22  24
ENDBRANCH   4  18
TORSDOF 4
ENDMDL
