MODEL 1
REMARK VINA RESULT:      -8.5      0.000      0.000
REMARK  Name = 
REMARK  7 active torsions:
REMARK  status: ('A' for Active; 'I' for Inactive)
REMARK    1  A    between atoms: C_1  and  C_2
REMARK    2  A    between atoms: C_5  and  C_6
REMARK    3  A    between atoms: C_6  and  C_7
REMARK    4  A    between atoms: C_6  and  N_18
REMARK    5  A    between atoms: C_7  and  N_8
REMARK    6  A    between atoms: C_9  and  C_11
REMARK    7  A    between atoms: C_21  and  C_22
REMARK                            x       y       z     vdW  Elec       q    Type
REMARK                         _______ _______ _______ _____ _____    ______ ____
ROOT
ATOM      1  C   UNL     1       3.566   5.595  18.458  0.00  0.00    +0.000 C 
ENDROOT
BRANCH   1   2
ATOM      2  N   UNL     1       4.670   4.944  17.718  0.00  0.00    +0.000 NA
ATOM      3  C   UNL     1       5.843   4.597  18.510  0.00  0.00    +0.000 C 
ATOM      4  C   UNL     1       6.791   5.770  18.707  0.00  0.00    +0.000 C 
ATOM      5  C   UNL     1       7.187   6.435  17.382  0.00  0.00    +0.000 C 
ATOM      6  C   UNL     1       7.855   7.782  17.661  0.00  0.00    +0.000 C 
ATOM      7  C   UNL     1       6.011   6.606  16.406  0.00  0.00    +0.000 C 
ATOM      8  C   UNL     1       5.040   5.431  16.398  0.00  0.00    +0.000 C 
ENDBRANCH   1   2
BRANCH   1  13
ATOM      9  C   UNL     1       1.415   2.590  21.626  0.00  0.00    +0.000 C 
ATOM     10  C   UNL     1       1.582   3.199  20.294  0.00  0.00    +0.000 A 
ATOM     11  C   UNL     1       1.033   2.931  19.059  0.00  0.00    +0.000 A 
ATOM     12  C   UNL     1       1.638   3.830  18.156  0.00  0.00    +0.000 A 
ATOM     13  C   UNL     1       2.537   4.582  18.890  0.00  0.00    +0.000 A 
ATOM     14  O   UNL     1       2.478   4.223  20.205  0.00  0.00    +0.000 OA
ENDBRANCH   1  13
BRANCH   1  15
ATOM     15  C   UNL     1       2.948   6.995  18.099  0.00  0.00    +0.000 C 
BRANCH  15  16
ATOM     16  N   UNL     1       2.195   7.756  19.094  0.00  0.00    +0.000 N 
ATOM     17  C   UNL     1       1.619   8.969  18.726  0.00  0.00    +0.000 C 
ATOM     18  O   UNL     1       1.762   9.439  17.603  0.00  0.00    +0.000 OA
ATOM     19  H   UNL     1       2.355   7.537  20.066  0.00  0.00    +0.000 HD
BRANCH  17  20
ATOM     20  C   UNL     1       0.710   9.681  19.692  0.00  0.00    +0.000 A 
ATOM     21  C   UNL     1       0.090  10.905  19.431  0.00  0.00    +0.000 A 
ATOM     22  C   UNL     1      -0.570  11.600  20.461  0.00  0.00    +0.000 A 
ATOM     23  C   UNL     1      -0.616  11.073  21.753  0.00  0.00    +0.000 A 
ATOM     24 CL   UNL     1      -1.333  11.980  23.029  0.00  0.00    +0.000 Cl
ATOM     25  C   UNL     1      -0.046   9.835  22.019  0.00  0.00    +0.000 A 
ATOM     26  C   UNL     1       0.608   9.141  20.992  0.00  0.00    +0.000 A 
ENDBRANCH  17  20
ENDBRANCH  15  16
ENDBRANCH   1  15
TORSDOF 5
ENDMDL
MODEL 2
REMARK VINA RESULT:      -8.5      0.524      1.097
REMARK  Name = 
REMARK  7 active torsions:
REMARK  status: ('A' for Active; 'I' for Inactive)
REMARK    1  A    between atoms: C_1  and  C_2
REMARK    2  A    between atoms: C_5  and  C_6
REMARK    3  A    between atoms: C_6  and  C_7
REMARK    4  A    between atoms: C_6  and  N_18
REMARK    5  A    between atoms: C_7  and  N_8
REMARK    6  A    between atoms: C_9  and  C_11
REMARK    7  A    between atoms: C_21  and  C_22
REMARK                            x       y       z     vdW  Elec       q    Type
REMARK                         _______ _______ _______ _____ _____    ______ ____
ROOT
ATOM      1  C   UNL     1       3.346   5.732  18.353  0.00  0.00    +0.000 C 
ENDROOT
BRANCH   1   2
ATOM      2  N   UNL     1       4.367   5.167  17.444  0.00  0.00    +0.000 NA
ATOM      3  C   UNL     1       5.371   4.317  18.071  0.00  0.00    +0.000 C 
ATOM      4  C   UNL     1       6.505   5.110  18.703  0.00  0.00    +0.000 C 
ATOM      5  C   UNL     1       7.146   6.102  17.724  0.00  0.00    +0.000 C 
ATOM      6  C   UNL     1       8.032   7.083  18.491  0.00  0.00    +0.000 C 
ATOM      7  C   UNL     1       6.123   6.859  16.860  0.00  0.00    +0.000 C 
ATOM      8  C   UNL     1       4.947   6.002  16.402  0.00  0.00    +0.000 C 
ENDBRANCH   1   2
BRANCH   1  13
ATOM      9  C   UNL     1       1.490   2.616  21.599  0.00  0.00    +0.000 C 
ATOM     10  C   UNL     1       1.572   3.230  20.261  0.00  0.00    +0.000 A 
ATOM     11  C   UNL     1       0.995   2.928  19.048  0.00  0.00    +0.000 A 
ATOM     12  C   UNL     1       1.514   3.858  18.122  0.00  0.00    +0.000 A 
ATOM     13  C   UNL     1       2.393   4.663  18.823  0.00  0.00    +0.000 A 
ATOM     14  O   UNL     1       2.404   4.304  20.139  0.00  0.00    +0.000 OA
ENDBRANCH   1  13
BRANCH   1  15
ATOM     15  C   UNL     1       2.663   7.138  18.175  0.00  0.00    +0.000 C 
BRANCH  15  16
ATOM     16  N   UNL     1       2.130   7.860  19.329  0.00  0.00    +0.000 N 
ATOM     17  C   UNL     1       1.445   9.054  19.122  0.00  0.00    +0.000 C 
ATOM     18  O   UNL     1       1.313   9.540  18.004  0.00  0.00    +0.000 OA
ATOM     19  H   UNL     1       2.514   7.638  20.235  0.00  0.00    +0.000 HD
BRANCH  17  20
ATOM     20  C   UNL     1       0.755   9.722  20.282  0.00  0.00    +0.000 A 
ATOM     21  C   UNL     1       0.641   9.165  21.557  0.00  0.00    +0.000 A 
ATOM     22  C   UNL     1      -0.197   9.758  22.519  0.00  0.00    +0.000 A 
ATOM     23  C   UNL     1      -0.920  10.911  22.212  0.00  0.00    +0.000 A 
ATOM     24 CL   UNL     1      -2.023  11.568  23.358  0.00  0.00    +0.000 Cl
ATOM     25  C   UNL     1      -0.783  11.506  20.964  0.00  0.00    +0.000 A 
ATOM     26  C   UNL     1       0.055  10.917  20.007  0.00  0.00    +0.000 A 
ENDBRANCH  17  20
ENDBRANCH  15  16
ENDBRANCH   1  15
TORSDOF 5
ENDMDL
MODEL 3
REMARK VINA RESULT:      -8.3      1.819      4.593
REMARK  Name = 
REMARK  7 active torsions:
REMARK  status: ('A' for Active; 'I' for Inactive)
REMARK    1  A    between atoms: C_1  and  C_2
REMARK    2  A    between atoms: C_5  and  C_6
REMARK    3  A    between atoms: C_6  and  C_7
REMARK    4  A    between atoms: C_6  and  N_18
REMARK    5  A    between atoms: C_7  and  N_8
REMARK    6  A    between atoms: C_9  and  C_11
REMARK    7  A    between atoms: C_21  and  C_22
REMARK                            x       y       z     vdW  Elec       q    Type
REMARK                         _______ _______ _______ _____ _____    ______ ____
ROOT
ATOM      1  C   UNL     1       3.673   4.829  17.857  0.00  0.00    +0.000 C 
ENDROOT
BRANCH   1   2
ATOM      2  N   UNL     1       2.872   3.591  17.740  0.00  0.00    +0.000 NA
ATOM      3  C   UNL     1       1.444   3.735  17.998  0.00  0.00    +0.000 C 
ATOM      4  C   UNL     1       1.106   3.704  19.480  0.00  0.00    +0.000 C 
ATOM      5  C   UNL     1       1.681   2.471  20.190  0.00  0.00    +0.000 C 
ATOM      6  C   UNL     1       1.597   2.662  21.704  0.00  0.00    +0.000 C 
ATOM      7  C   UNL     1       3.120   2.135  19.765  0.00  0.00    +0.000 C 
ATOM      8  C   UNL     1       3.390   2.343  18.279  0.00  0.00    +0.000 C 
ENDBRANCH   1   2
BRANCH   1  13
ATOM      9  C   UNL     1       6.274   3.900  13.848  0.00  0.00    +0.000 C 
ATOM     10  C   UNL     1       6.129   4.277  15.266  0.00  0.00    +0.000 A 
ATOM     11  C   UNL     1       7.032   4.456  16.291  0.00  0.00    +0.000 A 
ATOM     12  C   UNL     1       6.269   4.758  17.439  0.00  0.00    +0.000 A 
ATOM     13  C   UNL     1       4.943   4.727  17.051  0.00  0.00    +0.000 A 
ATOM     14  O   UNL     1       4.855   4.469  15.715  0.00  0.00    +0.000 OA
ENDBRANCH   1  13
BRANCH   1  15
ATOM     15  C   UNL     1       3.840   5.671  19.175  0.00  0.00    +0.000 C 
BRANCH  15  16
ATOM     16  N   UNL     1       2.827   6.648  19.570  0.00  0.00    +0.000 N 
ATOM     17  C   UNL     1       2.601   7.755  18.758  0.00  0.00    +0.000 C 
ATOM     18  O   UNL     1       3.257   7.958  17.742  0.00  0.00    +0.000 OA
ATOM     19  H   UNL     1       2.535   6.651  20.536  0.00  0.00    +0.000 HD
BRANCH  17  20
ATOM     20  C   UNL     1       1.455   8.681  19.069  0.00  0.00    +0.000 A 
ATOM     21  C   UNL     1       0.871   9.548  18.143  0.00  0.00    +0.000 A 
ATOM     22  C   UNL     1      -0.049  10.525  18.567  0.00  0.00    +0.000 A 
ATOM     23  C   UNL     1      -0.391  10.636  19.915  0.00  0.00    +0.000 A 
ATOM     24 CL   UNL     1      -1.434  11.901  20.439  0.00  0.00    +0.000 Cl
ATOM     25  C   UNL     1       0.144   9.751  20.843  0.00  0.00    +0.000 A 
ATOM     26  C   UNL     1       1.058   8.775  20.420  0.00  0.00    +0.000 A 
ENDBRANCH  17  20
ENDBRANCH  15  16
ENDBRANCH   1  15
TORSDOF 5
ENDMDL
MODEL 4
REMARK VINA RESULT:      -8.2      1.915      4.760
REMARK  Name = 
REMARK  7 active torsions:
REMARK  status: ('A' for Active; 'I' for Inactive)
REMARK    1  A    between atoms: C_1  and  C_2
REMARK    2  A    between atoms: C_5  and  C_6
REMARK    3  A    between atoms: C_6  and  C_7
REMARK    4  A    between atoms: C_6  and  N_18
REMARK    5  A    between atoms: C_7  and  N_8
REMARK    6  A    between atoms: C_9  and  C_11
REMARK    7  A    between atoms: C_21  and  C_22
REMARK                            x       y       z     vdW  Elec       q    Type
REMARK                         _______ _______ _______ _____ _____    ______ ____
ROOT
ATOM      1  C   UNL     1       3.695   4.770  17.868  0.00  0.00    +0.000 C 
ENDROOT
BRANCH   1   2
ATOM      2  N   UNL     1       2.853   3.563  17.721  0.00  0.00    +0.000 NA
ATOM      3  C   UNL     1       1.429   3.752  17.965  0.00  0.00    +0.000 C 
ATOM      4  C   UNL     1       1.072   3.709  19.443  0.00  0.00    +0.000 C 
ATOM      5  C   UNL     1       1.595   2.445  20.138  0.00  0.00    +0.000 C 
ATOM      6  C   UNL     1       1.500   2.614  21.654  0.00  0.00    +0.000 C 
ATOM      7  C   UNL     1       3.027   2.065  19.724  0.00  0.00    +0.000 C 
ATOM      8  C   UNL     1       3.322   2.288  18.245  0.00  0.00    +0.000 C 
ENDBRANCH   1   2
BRANCH   1  13
ATOM      9  C   UNL     1       6.166   3.870  13.772  0.00  0.00    +0.000 C 
ATOM     10  C   UNL     1       6.067   4.227  15.198  0.00  0.00    +0.000 A 
ATOM     11  C   UNL     1       7.002   4.380  16.199  0.00  0.00    +0.000 A 
ATOM     12  C   UNL     1       6.277   4.674  17.373  0.00  0.00    +0.000 A 
ATOM     13  C   UNL     1       4.940   4.665  17.023  0.00  0.00    +0.000 A 
ATOM     14  O   UNL     1       4.810   4.428  15.687  0.00  0.00    +0.000 OA
ENDBRANCH   1  13
BRANCH   1  15
ATOM     15  C   UNL     1       3.923   5.549  19.215  0.00  0.00    +0.000 C 
BRANCH  15  16
ATOM     16  N   UNL     1       3.019   6.625  19.616  0.00  0.00    +0.000 N 
ATOM     17  C   UNL     1       2.748   7.653  18.717  0.00  0.00    +0.000 C 
ATOM     18  O   UNL     1       3.278   7.704  17.613  0.00  0.00    +0.000 OA
ATOM     19  H   UNL     1       2.854   6.750  20.604  0.00  0.00    +0.000 HD
BRANCH  17  20
ATOM     20  C   UNL     1       1.699   8.678  19.058  0.00  0.00    +0.000 A 
ATOM     21  C   UNL     1       1.108   8.811  20.315  0.00  0.00    +0.000 A 
ATOM     22  C   UNL     1      -0.008   9.650  20.491  0.00  0.00    +0.000 A 
ATOM     23  C   UNL     1      -0.534  10.361  19.412  0.00  0.00    +0.000 A 
ATOM     24 CL   UNL     1      -1.962  11.301  19.613  0.00  0.00    +0.000 Cl
ATOM     25  C   UNL     1       0.070  10.278  18.164  0.00  0.00    +0.000 A 
ATOM     26  C   UNL     1       1.184   9.445  17.990  0.00  0.00    +0.000 A 
ENDBRANCH  17  20
ENDBRANCH  15  16
ENDBRANCH   1  15
TORSDOF 5
ENDMDL
MODEL 5
REMARK VINA RESULT:      -8.2      3.735      7.581
REMARK  Name = 
REMARK  7 active torsions:
REMARK  status: ('A' for Active; 'I' for Inactive)
REMARK    1  A    between atoms: C_1  and  C_2
REMARK    2  A    between atoms: C_5  and  C_6
REMARK    3  A    between atoms: C_6  and  C_7
REMARK    4  A    between atoms: C_6  and  N_18
REMARK    5  A    between atoms: C_7  and  N_8
REMARK    6  A    between atoms: C_9  and  C_11
REMARK    7  A    between atoms: C_21  and  C_22
REMARK                            x       y       z     vdW  Elec       q    Type
REMARK                         _______ _______ _______ _____ _____    ______ ____
ROOT
ATOM      1  C   UNL     1       2.640   5.962  19.618  0.00  0.00    +0.000 C 
ENDROOT
BRANCH   1   2
ATOM      2  N   UNL     1       1.591   4.980  19.269  0.00  0.00    +0.000 NA
ATOM      3  C   UNL     1       1.388   3.902  20.229  0.00  0.00    +0.000 C 
ATOM      4  C   UNL     1       2.382   2.764  20.058  0.00  0.00    +0.000 C 
ATOM      5  C   UNL     1       2.423   2.230  18.619  0.00  0.00    +0.000 C 
ATOM      6  C   UNL     1       3.651   1.337  18.436  0.00  0.00    +0.000 C 
ATOM      7  C   UNL     1       2.396   3.339  17.553  0.00  0.00    +0.000 C 
ATOM      8  C   UNL     1       1.476   4.504  17.898  0.00  0.00    +0.000 C 
ENDBRANCH   1   2
BRANCH   1  13
ATOM      9  C   UNL     1       0.369  10.185  20.461  0.00  0.00    +0.000 C 
ATOM     10  C   UNL     1       1.153   9.254  19.629  0.00  0.00    +0.000 A 
ATOM     11  C   UNL     1       1.544   9.272  18.308  0.00  0.00    +0.000 A 
ATOM     12  C   UNL     1       2.230   8.060  18.084  0.00  0.00    +0.000 A 
ATOM     13  C   UNL     1       2.201   7.364  19.278  0.00  0.00    +0.000 A 
ATOM     14  O   UNL     1       1.574   8.107  20.234  0.00  0.00    +0.000 OA
ENDBRANCH   1  13
BRANCH   1  15
ATOM     15  C   UNL     1       4.185   5.733  19.431  0.00  0.00    +0.000 C 
BRANCH  15  16
ATOM     16  N   UNL     1       4.772   5.662  18.094  0.00  0.00    +0.000 N 
ATOM     17  C   UNL     1       5.780   4.735  17.846  0.00  0.00    +0.000 C 
ATOM     18  O   UNL     1       6.220   4.005  18.728  0.00  0.00    +0.000 OA
ATOM     19  H   UNL     1       4.646   6.458  17.487  0.00  0.00    +0.000 HD
BRANCH  17  20
ATOM     20  C   UNL     1       6.280   4.542  16.439  0.00  0.00    +0.000 A 
ATOM     21  C   UNL     1       7.323   5.274  15.868  0.00  0.00    +0.000 A 
ATOM     22  C   UNL     1       7.586   5.179  14.489  0.00  0.00    +0.000 A 
ATOM     23  C   UNL     1       6.811   4.348  13.678  0.00  0.00    +0.000 A 
ATOM     24 CL   UNL     1       7.071   4.318  11.977  0.00  0.00    +0.000 Cl
ATOM     25  C   UNL     1       5.801   3.576  14.237  0.00  0.00    +0.000 A 
ATOM     26  C   UNL     1       5.541   3.669  15.612  0.00  0.00    +0.000 A 
ENDBRANCH  17  20
ENDBRANCH  15  16
ENDBRANCH   1  15
TORSDOF 5
ENDMDL
MODEL 6
REMARK VINA RESULT:      -8.2      2.120      4.860
REMARK  Name = 
REMARK  7 active torsions:
REMARK  status: ('A' for Active; 'I' for Inactive)
REMARK    1  A    between atoms: C_1  and  C_2
REMARK    2  A    between atoms: C_5  and  C_6
REMARK    3  A    between atoms: C_6  and  C_7
REMARK    4  A    between atoms: C_6  and  N_18
REMARK    5  A    between atoms: C_7  and  N_8
REMARK    6  A    between atoms: C_9  and  C_11
REMARK    7  A    between atoms: C_21  and  C_22
REMARK                            x       y       z     vdW  Elec       q    Type
REMARK                         _______ _______ _______ _____ _____    ______ ____
ROOT
ATOM      1  C   UNL     1       4.176   4.407  17.520  0.00  0.00    +0.000 C 
ENDROOT
BRANCH   1   2
ATOM      2  N   UNL     1       3.858   2.989  17.796  0.00  0.00    +0.000 NA
ATOM      3  C   UNL     1       2.494   2.576  17.489  0.00  0.00    +0.000 C 
ATOM      4  C   UNL     1       1.510   2.918  18.597  0.00  0.00    +0.000 C 
ATOM      5  C   UNL     1       1.959   2.389  19.966  0.00  0.00    +0.000 C 
ATOM      6  C   UNL     1       1.120   3.037  21.068  0.00  0.00    +0.000 C 
ATOM      7  C   UNL     1       3.459   2.590  20.238  0.00  0.00    +0.000 C 
ATOM      8  C   UNL     1       4.344   2.365  19.017  0.00  0.00    +0.000 C 
ENDBRANCH   1   2
BRANCH   1  13
ATOM      9  C   UNL     1       6.050   3.660  13.090  0.00  0.00    +0.000 C 
ATOM     10  C   UNL     1       6.103   4.163  14.475  0.00  0.00    +0.000 A 
ATOM     11  C   UNL     1       7.115   4.687  15.249  0.00  0.00    +0.000 A 
ATOM     12  C   UNL     1       6.552   4.931  16.519  0.00  0.00    +0.000 A 
ATOM     13  C   UNL     1       5.233   4.524  16.451  0.00  0.00    +0.000 A 
ATOM     14  O   UNL     1       4.946   4.087  15.191  0.00  0.00    +0.000 OA
ENDBRANCH   1  13
BRANCH   1  15
ATOM     15  C   UNL     1       4.269   5.536  18.610  0.00  0.00    +0.000 C 
BRANCH  15  16
ATOM     16  N   UNL     1       3.468   6.753  18.495  0.00  0.00    +0.000 N 
ATOM     17  C   UNL     1       2.436   6.973  19.404  0.00  0.00    +0.000 C 
ATOM     18  O   UNL     1       2.152   6.154  20.271  0.00  0.00    +0.000 OA
ATOM     19  H   UNL     1       3.488   7.243  17.613  0.00  0.00    +0.000 HD
BRANCH  17  20
ATOM     20  C   UNL     1       1.710   8.292  19.396  0.00  0.00    +0.000 A 
ATOM     21  C   UNL     1       1.692   9.173  18.314  0.00  0.00    +0.000 A 
ATOM     22  C   UNL     1       1.169  10.471  18.463  0.00  0.00    +0.000 A 
ATOM     23  C   UNL     1       0.659  10.890  19.692  0.00  0.00    +0.000 A 
ATOM     24 CL   UNL     1       0.119  12.512  19.894  0.00  0.00    +0.000 Cl
ATOM     25  C   UNL     1       0.624  10.011  20.767  0.00  0.00    +0.000 A 
ATOM     26  C   UNL     1       1.143   8.716  20.617  0.00  0.00    +0.000 A 
ENDBRANCH  17  20
ENDBRANCH  15  16
ENDBRANCH   1  15
TORSDOF 5
ENDMDL
MODEL 7
REMARK VINA RESULT:      -8.2      0.696      1.043
REMARK  Name = 
REMARK  7 active torsions:
REMARK  status: ('A' for Active; 'I' for Inactive)
REMARK    1  A    between atoms: C_1  and  C_2
REMARK    2  A    between atoms: C_5  and  C_6
REMARK    3  A    between atoms: C_6  and  C_7
REMARK    4  A    between atoms: C_6  and  N_18
REMARK    5  A    between atoms: C_7  and  N_8
REMARK    6  A    between atoms: C_9  and  C_11
REMARK    7  A    between atoms: C_21  and  C_22
REMARK                            x       y       z     vdW  Elec       q    Type
REMARK                         _______ _______ _______ _____ _____    ______ ____
ROOT
ATOM      1  C   UNL     1       3.601   5.896  18.677  0.00  0.00    +0.000 C 
ENDROOT
BRANCH   1   2
ATOM      2  N   UNL     1       4.649   5.200  17.898  0.00  0.00    +0.000 NA
ATOM      3  C   UNL     1       5.713   4.582  18.680  0.00  0.00    +0.000 C 
ATOM      4  C   UNL     1       6.798   5.569  19.085  0.00  0.00    +0.000 C 
ATOM      5  C   UNL     1       7.363   6.346  17.888  0.00  0.00    +0.000 C 
ATOM      6  C   UNL     1       8.190   7.530  18.387  0.00  0.00    +0.000 C 
ATOM      7  C   UNL     1       6.284   6.816  16.898  0.00  0.00    +0.000 C 
ATOM      8  C   UNL     1       5.164   5.806  16.679  0.00  0.00    +0.000 C 
ENDBRANCH   1   2
BRANCH   1  13
ATOM      9  C   UNL     1       0.554   2.106  18.874  0.00  0.00    +0.000 C 
ATOM     10  C   UNL     1       1.301   3.227  19.472  0.00  0.00    +0.000 A 
ATOM     11  C   UNL     1       1.280   3.817  20.717  0.00  0.00    +0.000 A 
ATOM     12  C   UNL     1       2.191   4.892  20.658  0.00  0.00    +0.000 A 
ATOM     13  C   UNL     1       2.702   4.907  19.373  0.00  0.00    +0.000 A 
ATOM     14  O   UNL     1       2.186   3.868  18.656  0.00  0.00    +0.000 OA
ENDBRANCH   1  13
BRANCH   1  15
ATOM     15  C   UNL     1       2.852   7.198  18.212  0.00  0.00    +0.000 C 
BRANCH  15  16
ATOM     16  N   UNL     1       2.150   8.040  19.178  0.00  0.00    +0.000 N 
ATOM     17  C   UNL     1       1.525   9.203  18.735  0.00  0.00    +0.000 C 
ATOM     18  O   UNL     1       1.583   9.563  17.564  0.00  0.00    +0.000 OA
ATOM     19  H   UNL     1       2.379   7.920  20.154  0.00  0.00    +0.000 HD
BRANCH  17  20
ATOM     20  C   UNL     1       0.667   9.993  19.687  0.00  0.00    +0.000 A 
ATOM     21  C   UNL     1       0.381  11.351  19.545  0.00  0.00    +0.000 A 
ATOM     22  C   UNL     1      -0.251  12.057  20.586  0.00  0.00    +0.000 A 
ATOM     23  C   UNL     1      -0.601  11.406  21.770  0.00  0.00    +0.000 A 
ATOM     24 CL   UNL     1      -1.276  12.299  23.078  0.00  0.00    +0.000 Cl
ATOM     25  C   UNL     1      -0.367  10.044  21.910  0.00  0.00    +0.000 A 
ATOM     26  C   UNL     1       0.259   9.341  20.870  0.00  0.00    +0.000 A 
ENDBRANCH  17  20
ENDBRANCH  15  16
ENDBRANCH   1  15
TORSDOF 5
ENDMDL
MODEL 8
REMARK VINA RESULT:      -8.1      0.982      1.170
REMARK  Name = 
REMARK  7 active torsions:
REMARK  status: ('A' for Active; 'I' for Inactive)
REMARK    1  A    between atoms: C_1  and  C_2
REMARK    2  A    between atoms: C_5  and  C_6
REMARK    3  A    between atoms: C_6  and  C_7
REMARK    4  A    between atoms: C_6  and  N_18
REMARK    5  A    between atoms: C_7  and  N_8
REMARK    6  A    between atoms: C_9  and  C_11
REMARK    7  A    between atoms: C_21  and  C_22
REMARK                            x       y       z     vdW  Elec       q    Type
REMARK                         _______ _______ _______ _____ _____    ______ ____
ROOT
ATOM      1  C   UNL     1       3.648   5.796  18.288  0.00  0.00    +0.000 C 
ENDROOT
BRANCH   1   2
ATOM      2  N   UNL     1       4.797   5.070  17.706  0.00  0.00    +0.000 NA
ATOM      3  C   UNL     1       5.762   4.543  18.663  0.00  0.00    +0.000 C 
ATOM      4  C   UNL     1       6.770   5.586  19.121  0.00  0.00    +0.000 C 
ATOM      5  C   UNL     1       7.471   6.282  17.947  0.00  0.00    +0.000 C 
ATOM      6  C   UNL     1       8.208   7.523  18.449  0.00  0.00    +0.000 C 
ATOM      7  C   UNL     1       6.520   6.646  16.794  0.00  0.00    +0.000 C 
ATOM      8  C   UNL     1       5.454   5.592  16.517  0.00  0.00    +0.000 C 
ENDBRANCH   1   2
BRANCH   1  13
ATOM      9  C   UNL     1       1.340   2.813  21.365  0.00  0.00    +0.000 C 
ATOM     10  C   UNL     1       1.530   3.465  20.057  0.00  0.00    +0.000 A 
ATOM     11  C   UNL     1       0.945   3.289  18.822  0.00  0.00    +0.000 A 
ATOM     12  C   UNL     1       1.598   4.182  17.947  0.00  0.00    +0.000 A 
ATOM     13  C   UNL     1       2.557   4.839  18.696  0.00  0.00    +0.000 A 
ATOM     14  O   UNL     1       2.493   4.428  19.995  0.00  0.00    +0.000 OA
ENDBRANCH   1  13
BRANCH   1  15
ATOM     15  C   UNL     1       3.101   7.176  17.770  0.00  0.00    +0.000 C 
BRANCH  15  16
ATOM     16  N   UNL     1       2.020   7.863  18.474  0.00  0.00    +0.000 N 
ATOM     17  C   UNL     1       1.753   9.195  18.170  0.00  0.00    +0.000 C 
ATOM     18  O   UNL     1       2.426   9.822  17.359  0.00  0.00    +0.000 OA
ATOM     19  H   UNL     1       1.700   7.461  19.342  0.00  0.00    +0.000 HD
BRANCH  17  20
ATOM     20  C   UNL     1       0.545   9.865  18.770  0.00  0.00    +0.000 A 
ATOM     21  C   UNL     1      -0.681  10.006  18.117  0.00  0.00    +0.000 A 
ATOM     22  C   UNL     1      -1.686  10.825  18.663  0.00  0.00    +0.000 A 
ATOM     23  C   UNL     1      -1.471  11.502  19.864  0.00  0.00    +0.000 A 
ATOM     24 CL   UNL     1      -2.665  12.585  20.470  0.00  0.00    +0.000 Cl
ATOM     25  C   UNL     1      -0.276  11.336  20.552  0.00  0.00    +0.000 A 
ATOM     26  C   UNL     1       0.725  10.517  20.009  0.00  0.00    +0.000 A 
ENDBRANCH  17  20
ENDBRANCH  15  16
ENDBRANCH   1  15
TORSDOF 5
ENDMDL
MODEL 9
REMARK VINA RESULT:      -8.1      1.868      4.680
REMARK  Name = 
REMARK  7 active torsions:
REMARK  status: ('A' for Active; 'I' for Inactive)
REMARK    1  A    between atoms: C_1  and  C_2
REMARK    2  A    between atoms: C_5  and  C_6
REMARK    3  A    between atoms: C_6  and  C_7
REMARK    4  A    between atoms: C_6  and  N_18
REMARK    5  A    between atoms: C_7  and  N_8
REMARK    6  A    between atoms: C_9  and  C_11
REMARK    7  A    between atoms: C_21  and  C_22
REMARK                            x       y       z     vdW  Elec       q    Type
REMARK                         _______ _______ _______ _____ _____    ______ ____
ROOT
ATOM      1  C   UNL     1       3.543   5.043  17.785  0.00  0.00    +0.000 C 
ENDROOT
BRANCH   1   2
ATOM      2  N   UNL     1       2.809   3.765  17.653  0.00  0.00    +0.000 NA
ATOM      3  C   UNL     1       1.383   3.821  17.950  0.00  0.00    +0.000 C 
ATOM      4  C   UNL     1       1.086   3.732  19.439  0.00  0.00    +0.000 C 
ATOM      5  C   UNL     1       1.747   2.515  20.100  0.00  0.00    +0.000 C 
ATOM      6  C   UNL     1       1.691   2.662  21.620  0.00  0.00    +0.000 C 
ATOM      7  C   UNL     1       3.191   2.272  19.631  0.00  0.00    +0.000 C 
ATOM      8  C   UNL     1       3.411   2.534  18.145  0.00  0.00    +0.000 C 
ENDBRANCH   1   2
BRANCH   1  13
ATOM      9  C   UNL     1       6.753   4.405  14.182  0.00  0.00    +0.000 C 
ATOM     10  C   UNL     1       6.381   4.610  15.594  0.00  0.00    +0.000 A 
ATOM     11  C   UNL     1       7.097   4.576  16.771  0.00  0.00    +0.000 A 
ATOM     12  C   UNL     1       6.162   4.796  17.805  0.00  0.00    +0.000 A 
ATOM     13  C   UNL     1       4.927   4.932  17.198  0.00  0.00    +0.000 A 
ATOM     14  O   UNL     1       5.064   4.855  15.843  0.00  0.00    +0.000 OA
ENDBRANCH   1  13
BRANCH   1  15
ATOM     15  C   UNL     1       3.472   5.996  19.034  0.00  0.00    +0.000 C 
BRANCH  15  16
ATOM     16  N   UNL     1       2.713   7.243  18.979  0.00  0.00    +0.000 N 
ATOM     17  C   UNL     1       1.816   7.536  20.003  0.00  0.00    +0.000 C 
ATOM     18  O   UNL     1       1.611   6.756  20.927  0.00  0.00    +0.000 OA
ATOM     19  H   UNL     1       2.641   7.706  18.085  0.00  0.00    +0.000 HD
BRANCH  17  20
ATOM     20  C   UNL     1       1.149   8.885  20.041  0.00  0.00    +0.000 A 
ATOM     21  C   UNL     1       0.490   9.405  21.157  0.00  0.00    +0.000 A 
ATOM     22  C   UNL     1      -0.283  10.575  21.044  0.00  0.00    +0.000 A 
ATOM     23  C   UNL     1      -0.396  11.232  19.817  0.00  0.00    +0.000 A 
ATOM     24 CL   UNL     1      -1.428  12.601  19.664  0.00  0.00    +0.000 Cl
ATOM     25  C   UNL     1       0.292  10.756  18.708  0.00  0.00    +0.000 A 
ATOM     26  C   UNL     1       1.064   9.591  18.822  0.00  0.00    +0.000 A 
ENDBRANCH  17  20
ENDBRANCH  15  16
ENDBRANCH   1  15
TORSDOF 5
ENDMDL
