MODEL 1
REMARK VINA RESULT:      -7.4      0.000      0.000
REMARK  Name = 
REMARK  8 active torsions:
REMARK  status: ('A' for Active; 'I' for Inactive)
REMARK    1  A    between atoms: C_1  and  O_2
REMARK    2  A    between atoms: O_2  and  C_3
REMARK    3  A    between atoms: C_6  and  O_7
REMARK    4  A    between atoms: O_7  and  C_8
REMARK    5  A    between atoms: N_13  and  C_14
REMARK    6  A    between atoms: C_14  and  S_15
REMARK    7  A    between atoms: S_15  and  C_16
REMARK    8  A    between atoms: N_20  and  C_21
REMARK                            x       y       z     vdW  Elec       q    Type
REMARK                         _______ _______ _______ _____ _____    ______ ____
ROOT
ATOM      1  C   UNL     1      -3.348  10.966  17.931  0.00  0.00    +0.000 A 
ATOM      2  C   UNL     1      -4.495  11.666  18.305  0.00  0.00    +0.000 A 
ATOM      3  C   UNL     1      -4.492  12.493  19.432  0.00  0.00    +0.000 A 
ATOM      4  C   UNL     1      -3.369  12.621  20.262  0.00  0.00    +0.000 A 
ATOM      5  C   UNL     1      -2.257  11.871  19.916  0.00  0.00    +0.000 A 
ATOM      6  C   UNL     1      -2.228  11.077  18.753  0.00  0.00    +0.000 A 
ATOM      7  C   UNL     1      -0.913  10.405  18.547  0.00  0.00    +0.000 C 
ATOM      8  O   UNL     1      -0.516   9.908  17.513  0.00  0.00    +0.000 OA
ATOM      9  N   UNL     1      -0.168  10.493  19.740  0.00  0.00    +0.000 N 
ATOM     10  S   UNL     1      -0.750  11.679  20.764  0.00  0.00    +0.000 S 
ATOM     11  O   UNL     1      -0.998  11.080  22.055  0.00  0.00    +0.000 OA
ATOM     12  O   UNL     1       0.047  12.868  20.580  0.00  0.00    +0.000 OA
ENDROOT
BRANCH   1  14
ATOM     13  C   UNL     1      -3.420  10.793  15.583  0.00  0.00    +0.000 C 
ATOM     14  O   UNL     1      -3.309  10.137  16.847  0.00  0.00    +0.000 OA
ENDBRANCH   1  14
BRANCH   4  15
ATOM     15  O   UNL     1      -3.617  13.484  21.280  0.00  0.00    +0.000 OA
ATOM     16  C   UNL     1      -3.960  13.022  22.573  0.00  0.00    +0.000 C 
ENDBRANCH   4  15
BRANCH   9  17
ATOM     17  C   UNL     1       1.196  10.026  19.978  0.00  0.00    +0.000 C 
BRANCH  17  18
ATOM     18  S   UNL     1       1.221   8.254  20.389  0.00  0.00    +0.000 S 
BRANCH  18  19
ATOM     19  C   UNL     1       2.147   7.613  19.072  0.00  0.00    +0.000 A 
ATOM     20  N   UNL     1       2.741   8.323  18.145  0.00  0.00    +0.000 NA
ATOM     21  N   UNL     1       3.613   7.477  17.516  0.00  0.00    +0.000 NA
ATOM     22  N   UNL     1       3.577   6.262  18.064  0.00  0.00    +0.000 NA
ATOM     23  N   UNL     1       2.567   6.294  18.971  0.00  0.00    +0.000 N 
BRANCH  23  24
ATOM     24  C   UNL     1       2.108   5.100  19.575  0.00  0.00    +0.000 A 
ATOM     25  C   UNL     1       2.418   4.846  20.920  0.00  0.00    +0.000 A 
ATOM     26  C   UNL     1       1.996   3.659  21.520  0.00  0.00    +0.000 A 
ATOM     27  C   UNL     1       1.305   2.706  20.774  0.00  0.00    +0.000 A 
ATOM     28  C   UNL     1       1.021   2.943  19.430  0.00  0.00    +0.000 A 
ATOM     29  C   UNL     1       1.410   4.141  18.829  0.00  0.00    +0.000 A 
ENDBRANCH  23  24
ENDBRANCH  18  19
ENDBRANCH  17  18
ENDBRANCH   9  17
TORSDOF 6
ENDMDL
MODEL 2
REMARK VINA RESULT:      -7.4      5.863      8.566
REMARK  Name = 
REMARK  8 active torsions:
REMARK  status: ('A' for Active; 'I' for Inactive)
REMARK    1  A    between atoms: C_1  and  O_2
REMARK    2  A    between atoms: O_2  and  C_3
REMARK    3  A    between atoms: C_6  and  O_7
REMARK    4  A    between atoms: O_7  and  C_8
REMARK    5  A    between atoms: N_13  and  C_14
REMARK    6  A    between atoms: C_14  and  S_15
REMARK    7  A    between atoms: S_15  and  C_16
REMARK    8  A    between atoms: N_20  and  C_21
REMARK                            x       y       z     vdW  Elec       q    Type
REMARK                         _______ _______ _______ _____ _____    ______ ____
ROOT
ATOM      1  C   UNL     1       2.652   7.170  18.985  0.00  0.00    +0.000 A 
ATOM      2  C   UNL     1       1.880   7.118  20.145  0.00  0.00    +0.000 A 
ATOM      3  C   UNL     1       1.551   5.891  20.729  0.00  0.00    +0.000 A 
ATOM      4  C   UNL     1       1.931   4.666  20.161  0.00  0.00    +0.000 A 
ATOM      5  C   UNL     1       2.644   4.732  18.975  0.00  0.00    +0.000 A 
ATOM      6  C   UNL     1       3.029   5.960  18.405  0.00  0.00    +0.000 A 
ATOM      7  C   UNL     1       3.836   5.792  17.163  0.00  0.00    +0.000 C 
ATOM      8  O   UNL     1       4.526   6.640  16.636  0.00  0.00    +0.000 OA
ATOM      9  N   UNL     1       3.719   4.457  16.725  0.00  0.00    +0.000 N 
ATOM     10  S   UNL     1       3.168   3.441  17.931  0.00  0.00    +0.000 S 
ATOM     11  O   UNL     1       2.014   2.731  17.430  0.00  0.00    +0.000 OA
ATOM     12  O   UNL     1       4.306   2.786  18.529  0.00  0.00    +0.000 OA
ENDROOT
BRANCH   1  14
ATOM     13  C   UNL     1       1.877   9.118  17.910  0.00  0.00    +0.000 C 
ATOM     14  O   UNL     1       2.985   8.344  18.372  0.00  0.00    +0.000 OA
ENDBRANCH   1  14
BRANCH   4  15
ATOM     15  O   UNL     1       1.499   3.627  20.919  0.00  0.00    +0.000 OA
ATOM     16  C   UNL     1       2.408   2.748  21.554  0.00  0.00    +0.000 C 
ENDBRANCH   4  15
BRANCH   9  17
ATOM     17  C   UNL     1       4.386   3.829  15.586  0.00  0.00    +0.000 C 
BRANCH  17  18
ATOM     18  S   UNL     1       6.152   3.557  15.927  0.00  0.00    +0.000 S 
BRANCH  18  19
ATOM     19  C   UNL     1       6.887   4.642  14.793  0.00  0.00    +0.000 A 
ATOM     20  N   UNL     1       7.647   5.663  15.102  0.00  0.00    +0.000 NA
ATOM     21  N   UNL     1       8.276   6.036  13.946  0.00  0.00    +0.000 NA
ATOM     22  N   UNL     1       7.928   5.238  12.936  0.00  0.00    +0.000 NA
ATOM     23  N   UNL     1       6.956   4.425  13.423  0.00  0.00    +0.000 N 
BRANCH  23  24
ATOM     24  C   UNL     1       6.204   3.603  12.551  0.00  0.00    +0.000 A 
ATOM     25  C   UNL     1       4.882   3.957  12.241  0.00  0.00    +0.000 A 
ATOM     26  C   UNL     1       4.120   3.140  11.406  0.00  0.00    +0.000 A 
ATOM     27  C   UNL     1       4.655   1.952  10.912  0.00  0.00    +0.000 A 
ATOM     28  C   UNL     1       5.959   1.583  11.241  0.00  0.00    +0.000 A 
ATOM     29  C   UNL     1       6.740   2.409  12.050  0.00  0.00    +0.000 A 
ENDBRANCH  23  24
ENDBRANCH  18  19
ENDBRANCH  17  18
ENDBRANCH   9  17
TORSDOF 6
ENDMDL
MODEL 3
REMARK VINA RESULT:      -7.4      5.904      8.547
REMARK  Name = 
REMARK  8 active torsions:
REMARK  status: ('A' for Active; 'I' for Inactive)
REMARK    1  A    between atoms: C_1  and  O_2
REMARK    2  A    between atoms: O_2  and  C_3
REMARK    3  A    between atoms: C_6  and  O_7
REMARK    4  A    between atoms: O_7  and  C_8
REMARK    5  A    between atoms: N_13  and  C_14
REMARK    6  A    between atoms: C_14  and  S_15
REMARK    7  A    between atoms: S_15  and  C_16
REMARK    8  A    between atoms: N_20  and  C_21
REMARK                            x       y       z     vdW  Elec       q    Type
REMARK                         _______ _______ _______ _____ _____    ______ ____
ROOT
ATOM      1  C   UNL     1       2.596   4.987  20.405  0.00  0.00    +0.000 A 
ATOM      2  C   UNL     1       1.754   6.041  20.759  0.00  0.00    +0.000 A 
ATOM      3  C   UNL     1       1.791   7.251  20.060  0.00  0.00    +0.000 A 
ATOM      4  C   UNL     1       2.697   7.483  19.014  0.00  0.00    +0.000 A 
ATOM      5  C   UNL     1       3.570   6.451  18.715  0.00  0.00    +0.000 A 
ATOM      6  C   UNL     1       3.507   5.208  19.374  0.00  0.00    +0.000 A 
ATOM      7  C   UNL     1       4.501   4.227  18.852  0.00  0.00    +0.000 C 
ATOM      8  O   UNL     1       4.483   3.026  19.025  0.00  0.00    +0.000 OA
ATOM      9  N   UNL     1       5.445   4.917  18.063  0.00  0.00    +0.000 N 
ATOM     10  S   UNL     1       4.894   6.420  17.585  0.00  0.00    +0.000 S 
ATOM     11  O   UNL     1       5.877   7.405  17.972  0.00  0.00    +0.000 OA
ATOM     12  O   UNL     1       4.367   6.305  16.247  0.00  0.00    +0.000 OA
ENDROOT
BRANCH   1  14
ATOM     13  C   UNL     1       1.448   2.982  20.860  0.00  0.00    +0.000 C 
ATOM     14  O   UNL     1       2.604   3.794  21.068  0.00  0.00    +0.000 OA
ENDBRANCH   1  14
BRANCH   4  15
ATOM     15  O   UNL     1       2.528   8.726  18.495  0.00  0.00    +0.000 OA
ATOM     16  C   UNL     1       1.301   9.122  17.913  0.00  0.00    +0.000 C 
ENDBRANCH   4  15
BRANCH   9  17
ATOM     17  C   UNL     1       6.561   4.351  17.308  0.00  0.00    +0.000 C 
BRANCH  17  18
ATOM     18  S   UNL     1       5.990   3.622  15.741  0.00  0.00    +0.000 S 
BRANCH  18  19
ATOM     19  C   UNL     1       6.838   4.595  14.585  0.00  0.00    +0.000 A 
ATOM     20  N   UNL     1       7.647   5.585  14.873  0.00  0.00    +0.000 NA
ATOM     21  N   UNL     1       8.346   5.853  13.728  0.00  0.00    +0.000 NA
ATOM     22  N   UNL     1       7.991   5.022  12.748  0.00  0.00    +0.000 NA
ATOM     23  N   UNL     1       6.951   4.297  13.234  0.00  0.00    +0.000 N 
BRANCH  23  24
ATOM     24  C   UNL     1       6.187   3.473  12.374  0.00  0.00    +0.000 A 
ATOM     25  C   UNL     1       4.847   3.803  12.117  0.00  0.00    +0.000 A 
ATOM     26  C   UNL     1       4.073   2.984  11.294  0.00  0.00    +0.000 A 
ATOM     27  C   UNL     1       4.616   1.816  10.761  0.00  0.00    +0.000 A 
ATOM     28  C   UNL     1       5.938   1.471  11.038  0.00  0.00    +0.000 A 
ATOM     29  C   UNL     1       6.730   2.300  11.834  0.00  0.00    +0.000 A 
ENDBRANCH  23  24
ENDBRANCH  18  19
ENDBRANCH  17  18
ENDBRANCH   9  17
TORSDOF 6
ENDMDL
MODEL 4
REMARK VINA RESULT:      -7.4      6.069      8.634
REMARK  Name = 
REMARK  8 active torsions:
REMARK  status: ('A' for Active; 'I' for Inactive)
REMARK    1  A    between atoms: C_1  and  O_2
REMARK    2  A    between atoms: O_2  and  C_3
REMARK    3  A    between atoms: C_6  and  O_7
REMARK    4  A    between atoms: O_7  and  C_8
REMARK    5  A    between atoms: N_13  and  C_14
REMARK    6  A    between atoms: C_14  and  S_15
REMARK    7  A    between atoms: S_15  and  C_16
REMARK    8  A    between atoms: N_20  and  C_21
REMARK                            x       y       z     vdW  Elec       q    Type
REMARK                         _______ _______ _______ _____ _____    ______ ____
ROOT
ATOM      1  C   UNL     1       2.214   6.911  18.723  0.00  0.00    +0.000 A 
ATOM      2  C   UNL     1       1.258   6.659  19.706  0.00  0.00    +0.000 A 
ATOM      3  C   UNL     1       1.461   5.656  20.659  0.00  0.00    +0.000 A 
ATOM      4  C   UNL     1       2.596   4.831  20.646  0.00  0.00    +0.000 A 
ATOM      5  C   UNL     1       3.507   5.052  19.627  0.00  0.00    +0.000 A 
ATOM      6  C   UNL     1       3.342   6.093  18.693  0.00  0.00    +0.000 A 
ATOM      7  C   UNL     1       4.470   6.181  17.723  0.00  0.00    +0.000 C 
ATOM      8  O   UNL     1       4.731   7.129  17.011  0.00  0.00    +0.000 OA
ATOM      9  N   UNL     1       5.232   4.998  17.806  0.00  0.00    +0.000 N 
ATOM     10  S   UNL     1       4.944   4.159  19.222  0.00  0.00    +0.000 S 
ATOM     11  O   UNL     1       4.585   2.802  18.877  0.00  0.00    +0.000 OA
ATOM     12  O   UNL     1       5.985   4.490  20.165  0.00  0.00    +0.000 OA
ENDROOT
BRANCH   1  14
ATOM     13  C   UNL     1       2.319   9.205  18.196  0.00  0.00    +0.000 C 
ATOM     14  O   UNL     1       2.052   7.870  17.764  0.00  0.00    +0.000 OA
ENDBRANCH   1  14
BRANCH   4  15
ATOM     15  O   UNL     1       2.561   3.946  21.675  0.00  0.00    +0.000 OA
ATOM     16  C   UNL     1       1.772   2.774  21.614  0.00  0.00    +0.000 C 
ENDBRANCH   4  15
BRANCH   9  17
ATOM     17  C   UNL     1       6.460   4.674  17.083  0.00  0.00    +0.000 C 
BRANCH  17  18
ATOM     18  S   UNL     1       6.107   3.680  15.601  0.00  0.00    +0.000 S 
BRANCH  18  19
ATOM     19  C   UNL     1       6.923   4.596  14.376  0.00  0.00    +0.000 A 
ATOM     20  N   UNL     1       7.787   5.556  14.595  0.00  0.00    +0.000 NA
ATOM     21  N   UNL     1       8.425   5.774  13.405  0.00  0.00    +0.000 NA
ATOM     22  N   UNL     1       7.978   4.941  12.465  0.00  0.00    +0.000 NA
ATOM     23  N   UNL     1       6.940   4.270  13.027  0.00  0.00    +0.000 N 
BRANCH  23  24
ATOM     24  C   UNL     1       6.091   3.464  12.231  0.00  0.00    +0.000 A 
ATOM     25  C   UNL     1       4.782   3.896  11.968  0.00  0.00    +0.000 A 
ATOM     26  C   UNL     1       3.925   3.098  11.210  0.00  0.00    +0.000 A 
ATOM     27  C   UNL     1       4.353   1.855  10.748  0.00  0.00    +0.000 A 
ATOM     28  C   UNL     1       5.644   1.411  11.032  0.00  0.00    +0.000 A 
ATOM     29  C   UNL     1       6.520   2.215  11.763  0.00  0.00    +0.000 A 
ENDBRANCH  23  24
ENDBRANCH  18  19
ENDBRANCH  17  18
ENDBRANCH   9  17
TORSDOF 6
ENDMDL
MODEL 5
REMARK VINA RESULT:      -7.4      1.295      1.444
REMARK  Name = 
REMARK  8 active torsions:
REMARK  status: ('A' for Active; 'I' for Inactive)
REMARK    1  A    between atoms: C_1  and  O_2
REMARK    2  A    between atoms: O_2  and  C_3
REMARK    3  A    between atoms: C_6  and  O_7
REMARK    4  A    between atoms: O_7  and  C_8
REMARK    5  A    between atoms: N_13  and  C_14
REMARK    6  A    between atoms: C_14  and  S_15
REMARK    7  A    between atoms: S_15  and  C_16
REMARK    8  A    between atoms: N_20  and  C_21
REMARK                            x       y       z     vdW  Elec       q    Type
REMARK                         _______ _______ _______ _____ _____    ______ ____
ROOT
ATOM      1  C   UNL     1      -3.220  11.420  18.717  0.00  0.00    +0.000 A 
ATOM      2  C   UNL     1      -3.801  12.363  19.565  0.00  0.00    +0.000 A 
ATOM      3  C   UNL     1      -3.010  13.154  20.403  0.00  0.00    +0.000 A 
ATOM      4  C   UNL     1      -1.616  13.008  20.471  0.00  0.00    +0.000 A 
ATOM      5  C   UNL     1      -1.059  12.025  19.670  0.00  0.00    +0.000 A 
ATOM      6  C   UNL     1      -1.838  11.259  18.781  0.00  0.00    +0.000 A 
ATOM      7  C   UNL     1      -1.023  10.303  17.978  0.00  0.00    +0.000 C 
ATOM      8  O   UNL     1      -1.375   9.738  16.963  0.00  0.00    +0.000 OA
ATOM      9  N   UNL     1       0.258  10.202  18.558  0.00  0.00    +0.000 N 
ATOM     10  S   UNL     1       0.591  11.479  19.583  0.00  0.00    +0.000 S 
ATOM     11  O   UNL     1       0.986  10.938  20.864  0.00  0.00    +0.000 OA
ATOM     12  O   UNL     1       1.371  12.452  18.857  0.00  0.00    +0.000 OA
ENDROOT
BRANCH   1  14
ATOM     13  C   UNL     1      -4.599  11.292  16.811  0.00  0.00    +0.000 C 
ATOM     14  O   UNL     1      -3.955  10.617  17.892  0.00  0.00    +0.000 OA
ENDBRANCH   1  14
BRANCH   4  15
ATOM     15  O   UNL     1      -1.080  13.894  21.349  0.00  0.00    +0.000 OA
ATOM     16  C   UNL     1      -1.705  14.177  22.587  0.00  0.00    +0.000 C 
ENDBRANCH   4  15
BRANCH   9  17
ATOM     17  C   UNL     1       1.399   9.428  18.074  0.00  0.00    +0.000 C 
BRANCH  17  18
ATOM     18  S   UNL     1       1.854   8.119  19.253  0.00  0.00    +0.000 S 
BRANCH  18  19
ATOM     19  C   UNL     1       2.873   7.118  18.272  0.00  0.00    +0.000 A 
ATOM     20  N   UNL     1       3.702   7.548  17.353  0.00  0.00    +0.000 NA
ATOM     21  N   UNL     1       4.532   6.499  17.065  0.00  0.00    +0.000 NA
ATOM     22  N   UNL     1       4.235   5.437  17.817  0.00  0.00    +0.000 NA
ATOM     23  N   UNL     1       3.110   5.770  18.500  0.00  0.00    +0.000 N 
BRANCH  23  24
ATOM     24  C   UNL     1       2.394   4.787  19.224  0.00  0.00    +0.000 A 
ATOM     25  C   UNL     1       2.606   4.658  20.605  0.00  0.00    +0.000 A 
ATOM     26  C   UNL     1       1.929   3.673  21.325  0.00  0.00    +0.000 A 
ATOM     27  C   UNL     1       1.073   2.791  20.668  0.00  0.00    +0.000 A 
ATOM     28  C   UNL     1       0.882   2.898  19.292  0.00  0.00    +0.000 A 
ATOM     29  C   UNL     1       1.530   3.899  18.567  0.00  0.00    +0.000 A 
ENDBRANCH  23  24
ENDBRANCH  18  19
ENDBRANCH  17  18
ENDBRANCH   9  17
TORSDOF 6
ENDMDL
MODEL 6
REMARK VINA RESULT:      -7.4      6.038      8.588
REMARK  Name = 
REMARK  8 active torsions:
REMARK  status: ('A' for Active; 'I' for Inactive)
REMARK    1  A    between atoms: C_1  and  O_2
REMARK    2  A    between atoms: O_2  and  C_3
REMARK    3  A    between atoms: C_6  and  O_7
REMARK    4  A    between atoms: O_7  and  C_8
REMARK    5  A    between atoms: N_13  and  C_14
REMARK    6  A    between atoms: C_14  and  S_15
REMARK    7  A    between atoms: S_15  and  C_16
REMARK    8  A    between atoms: N_20  and  C_21
REMARK                            x       y       z     vdW  Elec       q    Type
REMARK                         _______ _______ _______ _____ _____    ______ ____
ROOT
ATOM      1  C   UNL     1       2.481   7.285  19.189  0.00  0.00    +0.000 A 
ATOM      2  C   UNL     1       1.455   6.963  20.077  0.00  0.00    +0.000 A 
ATOM      3  C   UNL     1       1.463   5.748  20.767  0.00  0.00    +0.000 A 
ATOM      4  C   UNL     1       2.460   4.781  20.567  0.00  0.00    +0.000 A 
ATOM      5  C   UNL     1       3.437   5.087  19.636  0.00  0.00    +0.000 A 
ATOM      6  C   UNL     1       3.473   6.329  18.974  0.00  0.00    +0.000 A 
ATOM      7  C   UNL     1       4.642   6.463  18.060  0.00  0.00    +0.000 C 
ATOM      8  O   UNL     1       5.075   7.498  17.595  0.00  0.00    +0.000 OA
ATOM      9  N   UNL     1       5.213   5.189  17.866  0.00  0.00    +0.000 N 
ATOM     10  S   UNL     1       4.741   4.099  19.041  0.00  0.00    +0.000 S 
ATOM     11  O   UNL     1       4.197   2.933  18.382  0.00  0.00    +0.000 OA
ATOM     12  O   UNL     1       5.777   4.034  20.043  0.00  0.00    +0.000 OA
ENDROOT
BRANCH   1  14
ATOM     13  C   UNL     1       1.298   8.766  17.789  0.00  0.00    +0.000 C 
ATOM     14  O   UNL     1       2.507   8.453  18.483  0.00  0.00    +0.000 OA
ENDBRANCH   1  14
BRANCH   4  15
ATOM     15  O   UNL     1       2.247   3.698  21.357  0.00  0.00    +0.000 OA
ATOM     16  C   UNL     1       1.130   2.851  21.165  0.00  0.00    +0.000 C 
ENDBRANCH   4  15
BRANCH   9  17
ATOM     17  C   UNL     1       6.409   4.853  17.096  0.00  0.00    +0.000 C 
BRANCH  17  18
ATOM     18  S   UNL     1       5.993   3.831  15.649  0.00  0.00    +0.000 S 
BRANCH  18  19
ATOM     19  C   UNL     1       6.850   4.660  14.391  0.00  0.00    +0.000 A 
ATOM     20  N   UNL     1       7.729   5.614  14.572  0.00  0.00    +0.000 NA
ATOM     21  N   UNL     1       8.394   5.752  13.384  0.00  0.00    +0.000 NA
ATOM     22  N   UNL     1       7.947   4.875  12.484  0.00  0.00    +0.000 NA
ATOM     23  N   UNL     1       6.886   4.257  13.063  0.00  0.00    +0.000 N 
BRANCH  23  24
ATOM     24  C   UNL     1       6.036   3.423  12.298  0.00  0.00    +0.000 A 
ATOM     25  C   UNL     1       6.552   2.246  11.734  0.00  0.00    +0.000 A 
ATOM     26  C   UNL     1       5.732   1.431  10.953  0.00  0.00    +0.000 A 
ATOM     27  C   UNL     1       4.415   1.804  10.697  0.00  0.00    +0.000 A 
ATOM     28  C   UNL     1       3.908   2.987  11.233  0.00  0.00    +0.000 A 
ATOM     29  C   UNL     1       4.709   3.794  12.041  0.00  0.00    +0.000 A 
ENDBRANCH  23  24
ENDBRANCH  18  19
ENDBRANCH  17  18
ENDBRANCH   9  17
TORSDOF 6
ENDMDL
MODEL 7
REMARK VINA RESULT:      -7.3      0.727      1.166
REMARK  Name = 
REMARK  8 active torsions:
REMARK  status: ('A' for Active; 'I' for Inactive)
REMARK    1  A    between atoms: C_1  and  O_2
REMARK    2  A    between atoms: O_2  and  C_3
REMARK    3  A    between atoms: C_6  and  O_7
REMARK    4  A    between atoms: O_7  and  C_8
REMARK    5  A    between atoms: N_13  and  C_14
REMARK    6  A    between atoms: C_14  and  S_15
REMARK    7  A    between atoms: S_15  and  C_16
REMARK    8  A    between atoms: N_20  and  C_21
REMARK                            x       y       z     vdW  Elec       q    Type
REMARK                         _______ _______ _______ _____ _____    ______ ____
ROOT
ATOM      1  C   UNL     1      -2.840  11.470  18.521  0.00  0.00    +0.000 A 
ATOM      2  C   UNL     1      -3.981  12.175  18.904  0.00  0.00    +0.000 A 
ATOM      3  C   UNL     1      -4.055  12.786  20.160  0.00  0.00    +0.000 A 
ATOM      4  C   UNL     1      -3.023  12.681  21.104  0.00  0.00    +0.000 A 
ATOM      5  C   UNL     1      -1.923  11.926  20.734  0.00  0.00    +0.000 A 
ATOM      6  C   UNL     1      -1.811  11.352  19.454  0.00  0.00    +0.000 A 
ATOM      7  C   UNL     1      -0.520  10.633  19.255  0.00  0.00    +0.000 C 
ATOM      8  O   UNL     1      -0.041  10.299  18.191  0.00  0.00    +0.000 OA
ATOM      9  N   UNL     1       0.095  10.452  20.511  0.00  0.00    +0.000 N 
ATOM     10  S   UNL     1      -0.529  11.477  21.674  0.00  0.00    +0.000 S 
ATOM     11  O   UNL     1      -0.948  10.677  22.802  0.00  0.00    +0.000 OA
ATOM     12  O   UNL     1       0.347  12.618  21.791  0.00  0.00    +0.000 OA
ENDROOT
BRANCH   1  14
ATOM     13  C   UNL     1      -3.839  11.034  16.433  0.00  0.00    +0.000 C 
ATOM     14  O   UNL     1      -2.728  10.847  17.312  0.00  0.00    +0.000 OA
ENDBRANCH   1  14
BRANCH   4  15
ATOM     15  O   UNL     1      -3.333  13.365  22.235  0.00  0.00    +0.000 OA
ATOM     16  C   UNL     1      -3.888  12.716  23.363  0.00  0.00    +0.000 C 
ENDBRANCH   4  15
BRANCH   9  17
ATOM     17  C   UNL     1       1.398   9.852  20.789  0.00  0.00    +0.000 C 
BRANCH  17  18
ATOM     18  S   UNL     1       1.272   8.042  20.925  0.00  0.00    +0.000 S 
BRANCH  18  19
ATOM     19  C   UNL     1       2.037   7.537  19.454  0.00  0.00    +0.000 A 
ATOM     20  N   UNL     1       2.491   8.337  18.521  0.00  0.00    +0.000 NA
ATOM     21  N   UNL     1       3.296   7.573  17.721  0.00  0.00    +0.000 NA
ATOM     22  N   UNL     1       3.360   6.319  18.169  0.00  0.00    +0.000 NA
ATOM     23  N   UNL     1       2.474   6.245  19.195  0.00  0.00    +0.000 N 
BRANCH  23  24
ATOM     24  C   UNL     1       2.125   4.993  19.753  0.00  0.00    +0.000 A 
ATOM     25  C   UNL     1       1.381   4.082  18.987  0.00  0.00    +0.000 A 
ATOM     26  C   UNL     1       1.005   2.855  19.535  0.00  0.00    +0.000 A 
ATOM     27  C   UNL     1       1.331   2.550  20.855  0.00  0.00    +0.000 A 
ATOM     28  C   UNL     1       2.046   3.465  21.627  0.00  0.00    +0.000 A 
ATOM     29  C   UNL     1       2.454   4.681  21.079  0.00  0.00    +0.000 A 
ENDBRANCH  23  24
ENDBRANCH  18  19
ENDBRANCH  17  18
ENDBRANCH   9  17
TORSDOF 6
ENDMDL
MODEL 8
REMARK VINA RESULT:      -7.3      2.379      2.869
REMARK  Name = 
REMARK  8 active torsions:
REMARK  status: ('A' for Active; 'I' for Inactive)
REMARK    1  A    between atoms: C_1  and  O_2
REMARK    2  A    between atoms: O_2  and  C_3
REMARK    3  A    between atoms: C_6  and  O_7
REMARK    4  A    between atoms: O_7  and  C_8
REMARK    5  A    between atoms: N_13  and  C_14
REMARK    6  A    between atoms: C_14  and  S_15
REMARK    7  A    between atoms: S_15  and  C_16
REMARK    8  A    between atoms: N_20  and  C_21
REMARK                            x       y       z     vdW  Elec       q    Type
REMARK                         _______ _______ _______ _____ _____    ______ ____
ROOT
ATOM      1  C   UNL     1      -0.463  12.659  19.506  0.00  0.00    +0.000 A 
ATOM      2  C   UNL     1      -1.436  13.315  20.259  0.00  0.00    +0.000 A 
ATOM      3  C   UNL     1      -1.835  12.815  21.502  0.00  0.00    +0.000 A 
ATOM      4  C   UNL     1      -1.323  11.619  22.027  0.00  0.00    +0.000 A 
ATOM      5  C   UNL     1      -0.403  10.945  21.240  0.00  0.00    +0.000 A 
ATOM      6  C   UNL     1       0.048  11.465  20.012  0.00  0.00    +0.000 A 
ATOM      7  C   UNL     1       1.078  10.603  19.364  0.00  0.00    +0.000 C 
ATOM      8  O   UNL     1       1.831  10.933  18.471  0.00  0.00    +0.000 OA
ATOM      9  N   UNL     1       1.081   9.346  20.002  0.00  0.00    +0.000 N 
ATOM     10  S   UNL     1       0.342   9.394  21.500  0.00  0.00    +0.000 S 
ATOM     11  O   UNL     1      -0.679   8.371  21.532  0.00  0.00    +0.000 OA
ATOM     12  O   UNL     1       1.366   9.527  22.508  0.00  0.00    +0.000 OA
ENDROOT
BRANCH   1  14
ATOM     13  C   UNL     1       0.809  14.242  18.311  0.00  0.00    +0.000 C 
ATOM     14  O   UNL     1      -0.053  13.103  18.282  0.00  0.00    +0.000 OA
ENDBRANCH   1  14
BRANCH   4  15
ATOM     15  O   UNL     1      -1.861  11.356  23.245  0.00  0.00    +0.000 OA
ATOM     16  C   UNL     1      -3.010  12.039  23.708  0.00  0.00    +0.000 C 
ENDBRANCH   4  15
BRANCH   9  17
ATOM     17  C   UNL     1       1.965   8.213  19.738  0.00  0.00    +0.000 C 
BRANCH  17  18
ATOM     18  S   UNL     1       2.033   7.832  17.961  0.00  0.00    +0.000 S 
BRANCH  18  19
ATOM     19  C   UNL     1       3.455   6.845  17.878  0.00  0.00    +0.000 A 
ATOM     20  N   UNL     1       4.617   7.226  17.410  0.00  0.00    +0.000 NA
ATOM     21  N   UNL     1       5.523   6.289  17.828  0.00  0.00    +0.000 NA
ATOM     22  N   UNL     1       4.931   5.351  18.569  0.00  0.00    +0.000 NA
ATOM     23  N   UNL     1       3.601   5.618  18.511  0.00  0.00    +0.000 N 
BRANCH  23  24
ATOM     24  C   UNL     1       2.660   4.683  19.005  0.00  0.00    +0.000 A 
ATOM     25  C   UNL     1       2.005   3.827  18.106  0.00  0.00    +0.000 A 
ATOM     26  C   UNL     1       1.053   2.921  18.576  0.00  0.00    +0.000 A 
ATOM     27  C   UNL     1       0.723   2.893  19.929  0.00  0.00    +0.000 A 
ATOM     28  C   UNL     1       1.352   3.762  20.819  0.00  0.00    +0.000 A 
ATOM     29  C   UNL     1       2.327   4.650  20.366  0.00  0.00    +0.000 A 
ENDBRANCH  23  24
ENDBRANCH  18  19
ENDBRANCH  17  18
ENDBRANCH   9  17
TORSDOF 6
ENDMDL
MODEL 9
REMARK VINA RESULT:      -7.1      2.928      3.913
REMARK  Name = 
REMARK  8 active torsions:
REMARK  status: ('A' for Active; 'I' for Inactive)
REMARK    1  A    between atoms: C_1  and  O_2
REMARK    2  A    between atoms: O_2  and  C_3
REMARK    3  A    between atoms: C_6  and  O_7
REMARK    4  A    between atoms: O_7  and  C_8
REMARK    5  A    between atoms: N_13  and  C_14
REMARK    6  A    between atoms: C_14  and  S_15
REMARK    7  A    between atoms: S_15  and  C_16
REMARK    8  A    between atoms: N_20  and  C_21
REMARK                            x       y       z     vdW  Elec       q    Type
REMARK                         _______ _______ _______ _____ _____    ______ ____
ROOT
ATOM      1  C   UNL     1      -3.430  11.381  17.415  0.00  0.00    +0.000 A 
ATOM      2  C   UNL     1      -4.775  11.021  17.344  0.00  0.00    +0.000 A 
ATOM      3  C   UNL     1      -5.667  11.386  18.356  0.00  0.00    +0.000 A 
ATOM      4  C   UNL     1      -5.252  12.078  19.504  0.00  0.00    +0.000 A 
ATOM      5  C   UNL     1      -3.902  12.374  19.591  0.00  0.00    +0.000 A 
ATOM      6  C   UNL     1      -3.003  12.061  18.554  0.00  0.00    +0.000 A 
ATOM      7  C   UNL     1      -1.613  12.522  18.836  0.00  0.00    +0.000 C 
ATOM      8  O   UNL     1      -0.719  12.643  18.025  0.00  0.00    +0.000 OA
ATOM      9  N   UNL     1      -1.517  12.858  20.202  0.00  0.00    +0.000 N 
ATOM     10  S   UNL     1      -3.015  13.099  20.901  0.00  0.00    +0.000 S 
ATOM     11  O   UNL     1      -3.109  12.254  22.070  0.00  0.00    +0.000 OA
ATOM     12  O   UNL     1      -3.284  14.517  20.922  0.00  0.00    +0.000 OA
ENDROOT
BRANCH   1  14
ATOM     13  C   UNL     1      -2.917   9.950  15.615  0.00  0.00    +0.000 C 
ATOM     14  O   UNL     1      -2.521  11.034  16.457  0.00  0.00    +0.000 OA
ENDBRANCH   1  14
BRANCH   4  15
ATOM     15  O   UNL     1      -6.303  12.320  20.328  0.00  0.00    +0.000 OA
ATOM     16  C   UNL     1      -7.613  12.494  19.823  0.00  0.00    +0.000 C 
ENDBRANCH   4  15
BRANCH   9  17
ATOM     17  C   UNL     1      -0.363  13.410  20.906  0.00  0.00    +0.000 C 
BRANCH  17  18
ATOM     18  S   UNL     1       1.065  12.287  20.810  0.00  0.00    +0.000 S 
BRANCH  18  19
ATOM     19  C   UNL     1       0.476  10.913  21.687  0.00  0.00    +0.000 A 
ATOM     20  N   UNL     1      -0.167  10.958  22.827  0.00  0.00    +0.000 NA
ATOM     21  N   UNL     1      -0.732   9.723  22.997  0.00  0.00    +0.000 NA
ATOM     22  N   UNL     1      -0.460   8.929  21.961  0.00  0.00    +0.000 NA
ATOM     23  N   UNL     1       0.404   9.623  21.177  0.00  0.00    +0.000 N 
BRANCH  23  24
ATOM     24  C   UNL     1       1.072   8.985  20.105  0.00  0.00    +0.000 A 
ATOM     25  C   UNL     1       1.764   7.787  20.342  0.00  0.00    +0.000 A 
ATOM     26  C   UNL     1       2.451   7.163  19.300  0.00  0.00    +0.000 A 
ATOM     27  C   UNL     1       2.486   7.747  18.036  0.00  0.00    +0.000 A 
ATOM     28  C   UNL     1       1.823   8.951  17.805  0.00  0.00    +0.000 A 
ATOM     29  C   UNL     1       1.106   9.568  18.832  0.00  0.00    +0.000 A 
ENDBRANCH  23  24
ENDBRANCH  18  19
ENDBRANCH  17  18
ENDBRANCH   9  17
TORSDOF 6
ENDMDL
