MODEL 1
REMARK VINA RESULT:      -8.0      0.000      0.000
REMARK  Name = 
REMARK  4 active torsions:
REMARK  status: ('A' for Active; 'I' for Inactive)
REMARK    1  A    between atoms: C_1  and  C_2
REMARK    2  A    between atoms: C_4  and  C_5
REMARK    3  A    between atoms: C_15  and  C_16
REMARK    4  A    between atoms: C_16  and  O_18
REMARK                            x       y       z     vdW  Elec       q    Type
REMARK                         _______ _______ _______ _____ _____    ______ ____
ROOT
ATOM      1  C   UNK     1       6.249   5.434  19.341  0.00  0.00    +0.000 C 
ATOM      2  C   UNK     1       6.025   4.961  17.954  0.00  0.00    +0.000 A 
ATOM      3  C   UNK     1       6.721   5.243  16.798  0.00  0.00    +0.000 A 
ATOM      4  C   UNK     1       6.120   4.466  15.780  0.00  0.00    +0.000 A 
ATOM      5  N   UNK     1       5.116   3.733  16.280  0.00  0.00    +0.000 NA
ATOM      6  N   UNK     1       5.029   4.067  17.595  0.00  0.00    +0.000 N 
ATOM      7  C   UNK     1       4.009   3.508  18.389  0.00  0.00    +0.000 A 
ATOM      8  N   UNK     1       3.762   3.865  19.638  0.00  0.00    +0.000 NA
ATOM      9  C   UNK     1       2.681   3.114  20.120  0.00  0.00    +0.000 A 
ATOM     10  C   UNK     1       2.183   2.176  19.234  0.00  0.00    +0.000 A 
ATOM     11  S   UNK     1       3.011   2.279  17.741  0.00  0.00    +0.000 S 
ENDROOT
BRANCH   4  12
ATOM     12  C   UNK     1       6.493   4.393  14.365  0.00  0.00    +0.000 A 
ATOM     13  C   UNK     1       7.489   5.238  13.849  0.00  0.00    +0.000 A 
ATOM     14  C   UNK     1       7.837   5.181  12.498  0.00  0.00    +0.000 A 
ATOM     15  C   UNK     1       7.201   4.278  11.648  0.00  0.00    +0.000 A 
ATOM     16  C   UNK     1       6.217   3.427  12.149  0.00  0.00    +0.000 A 
ATOM     17  C   UNK     1       5.863   3.485  13.501  0.00  0.00    +0.000 A 
ENDBRANCH   4  12
BRANCH   9  18
ATOM     18  C   UNK     1       2.153   3.341  21.465  0.00  0.00    +0.000 C 
ATOM     19  O   UNK     1       1.574   2.498  22.133  0.00  0.00    +0.000 OA
BRANCH  18  20
ATOM     20  O   UNK     1       2.368   4.611  21.895  0.00  0.00    +0.000 OA
ATOM     21  H   UNK     1       3.325   4.705  22.097  0.00  0.00    +0.000 HD
ENDBRANCH  18  20
ENDBRANCH   9  18
TORSDOF 3
ENDMDL
MODEL 2
REMARK VINA RESULT:      -7.9      0.090      1.083
REMARK  Name = 
REMARK  4 active torsions:
REMARK  status: ('A' for Active; 'I' for Inactive)
REMARK    1  A    between atoms: C_1  and  C_2
REMARK    2  A    between atoms: C_4  and  C_5
REMARK    3  A    between atoms: C_15  and  C_16
REMARK    4  A    between atoms: C_16  and  O_18
REMARK                            x       y       z     vdW  Elec       q    Type
REMARK                         _______ _______ _______ _____ _____    ______ ____
ROOT
ATOM      1  C   UNK     1       6.393   5.312  19.341  0.00  0.00    +0.000 C 
ATOM      2  C   UNK     1       6.132   4.888  17.945  0.00  0.00    +0.000 A 
ATOM      3  C   UNK     1       6.829   5.166  16.789  0.00  0.00    +0.000 A 
ATOM      4  C   UNK     1       6.179   4.448  15.757  0.00  0.00    +0.000 A 
ATOM      5  N   UNK     1       5.145   3.753  16.249  0.00  0.00    +0.000 NA
ATOM      6  N   UNK     1       5.089   4.055  17.574  0.00  0.00    +0.000 N 
ATOM      7  C   UNK     1       4.050   3.526  18.365  0.00  0.00    +0.000 A 
ATOM      8  N   UNK     1       3.834   3.861  19.626  0.00  0.00    +0.000 NA
ATOM      9  C   UNK     1       2.722   3.152  20.100  0.00  0.00    +0.000 A 
ATOM     10  C   UNK     1       2.168   2.265  19.195  0.00  0.00    +0.000 A 
ATOM     11  S   UNK     1       2.985   2.367  17.695  0.00  0.00    +0.000 S 
ENDROOT
BRANCH   4  12
ATOM     12  C   UNK     1       6.533   4.395  14.337  0.00  0.00    +0.000 A 
ATOM     13  C   UNK     1       5.907   3.473  13.482  0.00  0.00    +0.000 A 
ATOM     14  C   UNK     1       6.253   3.411  12.131  0.00  0.00    +0.000 A 
ATOM     15  C   UNK     1       7.220   4.271  11.615  0.00  0.00    +0.000 A 
ATOM     16  C   UNK     1       7.842   5.198  12.449  0.00  0.00    +0.000 A 
ATOM     17  C   UNK     1       7.502   5.259  13.805  0.00  0.00    +0.000 A 
ENDBRANCH   4  12
BRANCH   9  18
ATOM     18  C   UNK     1       2.220   3.368  21.456  0.00  0.00    +0.000 C 
ATOM     19  O   UNK     1       1.731   2.499  22.161  0.00  0.00    +0.000 OA
BRANCH  18  20
ATOM     20  O   UNK     1       2.346   4.661  21.852  0.00  0.00    +0.000 OA
ATOM     21  H   UNK     1       1.453   4.996  22.085  0.00  0.00    +0.000 HD
ENDBRANCH  18  20
ENDBRANCH   9  18
TORSDOF 3
ENDMDL
MODEL 3
REMARK VINA RESULT:      -7.5      1.166      1.182
REMARK  Name = 
REMARK  4 active torsions:
REMARK  status: ('A' for Active; 'I' for Inactive)
REMARK    1  A    between atoms: C_1  and  C_2
REMARK    2  A    between atoms: C_4  and  C_5
REMARK    3  A    between atoms: C_15  and  C_16
REMARK    4  A    between atoms: C_16  and  O_18
REMARK                            x       y       z     vdW  Elec       q    Type
REMARK                         _______ _______ _______ _____ _____    ______ ____
ROOT
ATOM      1  C   UNK     1       3.885   6.640  18.308  0.00  0.00    +0.000 C 
ATOM      2  C   UNK     1       4.378   5.748  17.230  0.00  0.00    +0.000 A 
ATOM      3  C   UNK     1       5.078   6.049  16.082  0.00  0.00    +0.000 A 
ATOM      4  C   UNK     1       5.349   4.810  15.453  0.00  0.00    +0.000 A 
ATOM      5  N   UNK     1       4.856   3.799  16.179  0.00  0.00    +0.000 NA
ATOM      6  N   UNK     1       4.226   4.371  17.238  0.00  0.00    +0.000 N 
ATOM      7  C   UNK     1       3.536   3.559  18.160  0.00  0.00    +0.000 A 
ATOM      8  N   UNK     1       2.788   4.027  19.145  0.00  0.00    +0.000 NA
ATOM      9  C   UNK     1       2.251   2.946  19.859  0.00  0.00    +0.000 A 
ATOM     10  C   UNK     1       2.656   1.699  19.420  0.00  0.00    +0.000 A 
ATOM     11  S   UNK     1       3.657   1.857  18.042  0.00  0.00    +0.000 S 
ENDROOT
BRANCH   4  12
ATOM     12  C   UNK     1       6.078   4.576  14.204  0.00  0.00    +0.000 A 
ATOM     13  C   UNK     1       7.249   5.298  13.919  0.00  0.00    +0.000 A 
ATOM     14  C   UNK     1       7.938   5.088  12.722  0.00  0.00    +0.000 A 
ATOM     15  C   UNK     1       7.472   4.151  11.802  0.00  0.00    +0.000 A 
ATOM     16  C   UNK     1       6.318   3.420  12.077  0.00  0.00    +0.000 A 
ATOM     17  C   UNK     1       5.623   3.633  13.272  0.00  0.00    +0.000 A 
ENDBRANCH   4  12
BRANCH   9  18
ATOM     18  C   UNK     1       1.334   3.170  20.976  0.00  0.00    +0.000 C 
ATOM     19  O   UNK     1       1.411   2.610  22.058  0.00  0.00    +0.000 OA
BRANCH  18  20
ATOM     20  O   UNK     1       0.366   4.073  20.675  0.00  0.00    +0.000 OA
ATOM     21  H   UNK     1      -0.193   3.693  19.962  0.00  0.00    +0.000 HD
ENDBRANCH  18  20
ENDBRANCH   9  18
TORSDOF 3
ENDMDL
MODEL 4
REMARK VINA RESULT:      -7.3      0.961      1.504
REMARK  Name = 
REMARK  4 active torsions:
REMARK  status: ('A' for Active; 'I' for Inactive)
REMARK    1  A    between atoms: C_1  and  C_2
REMARK    2  A    between atoms: C_4  and  C_5
REMARK    3  A    between atoms: C_15  and  C_16
REMARK    4  A    between atoms: C_16  and  O_18
REMARK                            x       y       z     vdW  Elec       q    Type
REMARK                         _______ _______ _______ _____ _____    ______ ____
ROOT
ATOM      1  C   UNK     1       4.378   6.491  18.579  0.00  0.00    +0.000 C 
ATOM      2  C   UNK     1       4.728   5.640  17.417  0.00  0.00    +0.000 A 
ATOM      3  C   UNK     1       5.375   5.965  16.244  0.00  0.00    +0.000 A 
ATOM      4  C   UNK     1       5.506   4.755  15.521  0.00  0.00    +0.000 A 
ATOM      5  N   UNK     1       4.981   3.736  16.214  0.00  0.00    +0.000 NA
ATOM      6  N   UNK     1       4.468   4.281  17.348  0.00  0.00    +0.000 N 
ATOM      7  C   UNK     1       3.776   3.462  18.263  0.00  0.00    +0.000 A 
ATOM      8  N   UNK     1       3.132   3.917  19.324  0.00  0.00    +0.000 NA
ATOM      9  C   UNK     1       2.557   2.833  20.005  0.00  0.00    +0.000 A 
ATOM     10  C   UNK     1       2.833   1.592  19.461  0.00  0.00    +0.000 A 
ATOM     11  S   UNK     1       3.753   1.768  18.029  0.00  0.00    +0.000 S 
ENDROOT
BRANCH   4  12
ATOM     12  C   UNK     1       6.133   4.553  14.213  0.00  0.00    +0.000 A 
ATOM     13  C   UNK     1       5.619   3.598  13.319  0.00  0.00    +0.000 A 
ATOM     14  C   UNK     1       6.223   3.393  12.077  0.00  0.00    +0.000 A 
ATOM     15  C   UNK     1       7.340   4.140  11.709  0.00  0.00    +0.000 A 
ATOM     16  C   UNK     1       7.854   5.098  12.581  0.00  0.00    +0.000 A 
ATOM     17  C   UNK     1       7.255   5.302  13.828  0.00  0.00    +0.000 A 
ENDBRANCH   4  12
BRANCH   9  18
ATOM     18  C   UNK     1       1.735   3.049  21.194  0.00  0.00    +0.000 C 
ATOM     19  O   UNK     1       2.166   3.095  22.335  0.00  0.00    +0.000 OA
BRANCH  18  20
ATOM     20  O   UNK     1       0.418   3.184  20.892  0.00  0.00    +0.000 OA
ATOM     21  H   UNK     1       0.279   4.089  20.535  0.00  0.00    +0.000 HD
ENDBRANCH  18  20
ENDBRANCH   9  18
TORSDOF 3
ENDMDL
MODEL 5
REMARK VINA RESULT:      -7.2      3.917      4.889
REMARK  Name = 
REMARK  4 active torsions:
REMARK  status: ('A' for Active; 'I' for Inactive)
REMARK    1  A    between atoms: C_1  and  C_2
REMARK    2  A    between atoms: C_4  and  C_5
REMARK    3  A    between atoms: C_15  and  C_16
REMARK    4  A    between atoms: C_16  and  O_18
REMARK                            x       y       z     vdW  Elec       q    Type
REMARK                         _______ _______ _______ _____ _____    ______ ____
ROOT
ATOM      1  C   UNK     1       2.150   4.732  21.172  0.00  0.00    +0.000 C 
ATOM      2  C   UNK     1       2.803   5.172  19.917  0.00  0.00    +0.000 A 
ATOM      3  C   UNK     1       3.629   4.480  19.057  0.00  0.00    +0.000 A 
ATOM      4  C   UNK     1       3.904   5.361  17.985  0.00  0.00    +0.000 A 
ATOM      5  N   UNK     1       3.274   6.529  18.164  0.00  0.00    +0.000 NA
ATOM      6  N   UNK     1       2.639   6.431  19.362  0.00  0.00    +0.000 N 
ATOM      7  C   UNK     1       1.935   7.541  19.870  0.00  0.00    +0.000 A 
ATOM      8  N   UNK     1       1.397   7.587  21.077  0.00  0.00    +0.000 NA
ATOM      9  C   UNK     1       0.782   8.836  21.251  0.00  0.00    +0.000 A 
ATOM     10  C   UNK     1       0.832   9.669  20.149  0.00  0.00    +0.000 A 
ATOM     11  S   UNK     1       1.731   8.930  18.894  0.00  0.00    +0.000 S 
ENDROOT
BRANCH   4  12
ATOM     12  C   UNK     1       4.727   5.107  16.800  0.00  0.00    +0.000 A 
ATOM     13  C   UNK     1       5.119   3.797  16.475  0.00  0.00    +0.000 A 
ATOM     14  C   UNK     1       5.915   3.553  15.354  0.00  0.00    +0.000 A 
ATOM     15  C   UNK     1       6.323   4.609  14.541  0.00  0.00    +0.000 A 
ATOM     16  C   UNK     1       5.933   5.911  14.846  0.00  0.00    +0.000 A 
ATOM     17  C   UNK     1       5.140   6.160  15.971  0.00  0.00    +0.000 A 
ENDBRANCH   4  12
BRANCH   9  18
ATOM     18  C   UNK     1       0.150   9.187  22.522  0.00  0.00    +0.000 C 
ATOM     19  O   UNK     1       0.597   9.998  23.317  0.00  0.00    +0.000 OA
BRANCH  18  20
ATOM     20  O   UNK     1      -1.000   8.496  22.733  0.00  0.00    +0.000 OA
ATOM     21  H   UNK     1      -0.761   7.571  22.963  0.00  0.00    +0.000 HD
ENDBRANCH  18  20
ENDBRANCH   9  18
TORSDOF 3
ENDMDL
MODEL 6
REMARK VINA RESULT:      -6.9      4.983      7.051
REMARK  Name = 
REMARK  4 active torsions:
REMARK  status: ('A' for Active; 'I' for Inactive)
REMARK    1  A    between atoms: C_1  and  C_2
REMARK    2  A    between atoms: C_4  and  C_5
REMARK    3  A    between atoms: C_15  and  C_16
REMARK    4  A    between atoms: C_16  and  O_18
REMARK                            x       y       z     vdW  Elec       q    Type
REMARK                         _______ _______ _______ _____ _____    ______ ____
ROOT
ATOM      1  C   UNK     1       4.295   6.058  17.169  0.00  0.00    +0.000 C 
ATOM      2  C   UNK     1       3.351   6.801  18.037  0.00  0.00    +0.000 A 
ATOM      3  C   UNK     1       2.909   8.104  17.956  0.00  0.00    +0.000 A 
ATOM      4  C   UNK     1       1.964   8.263  18.996  0.00  0.00    +0.000 A 
ATOM      5  N   UNK     1       1.818   7.119  19.676  0.00  0.00    +0.000 NA
ATOM      6  N   UNK     1       2.694   6.240  19.121  0.00  0.00    +0.000 N 
ATOM      7  C   UNK     1       2.829   4.949  19.670  0.00  0.00    +0.000 A 
ATOM      8  N   UNK     1       3.740   4.072  19.286  0.00  0.00    +0.000 NA
ATOM      9  C   UNK     1       3.591   2.901  20.044  0.00  0.00    +0.000 A 
ATOM     10  C   UNK     1       2.537   2.917  20.938  0.00  0.00    +0.000 A 
ATOM     11  S   UNK     1       1.760   4.442  20.905  0.00  0.00    +0.000 S 
ENDROOT
BRANCH   4  12
ATOM     12  C   UNK     1       1.193   9.461  19.336  0.00  0.00    +0.000 A 
ATOM     13  C   UNK     1       0.414   9.498  20.504  0.00  0.00    +0.000 A 
ATOM     14  C   UNK     1      -0.334  10.634  20.823  0.00  0.00    +0.000 A 
ATOM     15  C   UNK     1      -0.308  11.747  19.985  0.00  0.00    +0.000 A 
ATOM     16  C   UNK     1       0.468  11.728  18.828  0.00  0.00    +0.000 A 
ATOM     17  C   UNK     1       1.214  10.590  18.503  0.00  0.00    +0.000 A 
ENDBRANCH   4  12
BRANCH   9  18
ATOM     18  C   UNK     1       4.507   1.775  19.868  0.00  0.00    +0.000 C 
ATOM     19  O   UNK     1       5.370   1.453  20.670  0.00  0.00    +0.000 OA
BRANCH  18  20
ATOM     20  O   UNK     1       4.301   1.122  18.696  0.00  0.00    +0.000 OA
ATOM     21  H   UNK     1       4.455   0.164  18.851  0.00  0.00    +0.000 HD
ENDBRANCH  18  20
ENDBRANCH   9  18
TORSDOF 3
ENDMDL
MODEL 7
REMARK VINA RESULT:      -6.9      4.941      7.926
REMARK  Name = 
REMARK  4 active torsions:
REMARK  status: ('A' for Active; 'I' for Inactive)
REMARK    1  A    between atoms: C_1  and  C_2
REMARK    2  A    between atoms: C_4  and  C_5
REMARK    3  A    between atoms: C_15  and  C_16
REMARK    4  A    between atoms: C_16  and  O_18
REMARK                            x       y       z     vdW  Elec       q    Type
REMARK                         _______ _______ _______ _____ _____    ______ ____
ROOT
ATOM      1  C   UNK     1       3.389   6.543  17.692  0.00  0.00    +0.000 C 
ATOM      2  C   UNK     1       2.614   7.019  18.863  0.00  0.00    +0.000 A 
ATOM      3  C   UNK     1       2.152   8.282  19.166  0.00  0.00    +0.000 A 
ATOM      4  C   UNK     1       1.414   8.151  20.366  0.00  0.00    +0.000 A 
ATOM      5  N   UNK     1       1.407   6.877  20.776  0.00  0.00    +0.000 NA
ATOM      6  N   UNK     1       2.174   6.193  19.885  0.00  0.00    +0.000 N 
ATOM      7  C   UNK     1       2.420   4.821  20.087  0.00  0.00    +0.000 A 
ATOM      8  N   UNK     1       3.253   4.102  19.354  0.00  0.00    +0.000 NA
ATOM      9  C   UNK     1       3.258   2.784  19.833  0.00  0.00    +0.000 A 
ATOM     10  C   UNK     1       2.386   2.542  20.878  0.00  0.00    +0.000 A 
ATOM     11  S   UNK     1       1.602   3.992  21.339  0.00  0.00    +0.000 S 
ENDROOT
BRANCH   4  12
ATOM     12  C   UNK     1       0.707   9.200  21.105  0.00  0.00    +0.000 A 
ATOM     13  C   UNK     1       0.197   8.943  22.389  0.00  0.00    +0.000 A 
ATOM     14  C   UNK     1      -0.490   9.936  23.091  0.00  0.00    +0.000 A 
ATOM     15  C   UNK     1      -0.669  11.197  22.525  0.00  0.00    +0.000 A 
ATOM     16  C   UNK     1      -0.160  11.468  21.256  0.00  0.00    +0.000 A 
ATOM     17  C   UNK     1       0.524  10.474  20.549  0.00  0.00    +0.000 A 
ENDBRANCH   4  12
BRANCH   9  18
ATOM     18  C   UNK     1       4.136   1.777  19.240  0.00  0.00    +0.000 C 
ATOM     19  O   UNK     1       3.897   1.170  18.209  0.00  0.00    +0.000 OA
BRANCH  18  20
ATOM     20  O   UNK     1       5.260   1.576  19.976  0.00  0.00    +0.000 OA
ATOM     21  H   UNK     1       5.913   2.266  19.726  0.00  0.00    +0.000 HD
ENDBRANCH  18  20
ENDBRANCH   9  18
TORSDOF 3
ENDMDL
MODEL 8
REMARK VINA RESULT:      -6.9      3.856      4.722
REMARK  Name = 
REMARK  4 active torsions:
REMARK  status: ('A' for Active; 'I' for Inactive)
REMARK    1  A    between atoms: C_1  and  C_2
REMARK    2  A    between atoms: C_4  and  C_5
REMARK    3  A    between atoms: C_15  and  C_16
REMARK    4  A    between atoms: C_16  and  O_18
REMARK                            x       y       z     vdW  Elec       q    Type
REMARK                         _______ _______ _______ _____ _____    ______ ____
ROOT
ATOM      1  C   UNK     1       2.338   4.771  20.949  0.00  0.00    +0.000 C 
ATOM      2  C   UNK     1       3.064   5.191  19.727  0.00  0.00    +0.000 A 
ATOM      3  C   UNK     1       3.973   4.500  18.955  0.00  0.00    +0.000 A 
ATOM      4  C   UNK     1       4.294   5.353  17.872  0.00  0.00    +0.000 A 
ATOM      5  N   UNK     1       3.611   6.502  17.961  0.00  0.00    +0.000 NA
ATOM      6  N   UNK     1       2.896   6.422  19.114  0.00  0.00    +0.000 N 
ATOM      7  C   UNK     1       2.119   7.522  19.529  0.00  0.00    +0.000 A 
ATOM      8  N   UNK     1       1.494   7.591  20.692  0.00  0.00    +0.000 NA
ATOM      9  C   UNK     1       0.825   8.821  20.776  0.00  0.00    +0.000 A 
ATOM     10  C   UNK     1       0.925   9.615  19.649  0.00  0.00    +0.000 A 
ATOM     11  S   UNK     1       1.937   8.867  18.489  0.00  0.00    +0.000 S 
ENDROOT
BRANCH   4  12
ATOM     12  C   UNK     1       5.208   5.088  16.758  0.00  0.00    +0.000 A 
ATOM     13  C   UNK     1       4.754   4.415  15.611  0.00  0.00    +0.000 A 
ATOM     14  C   UNK     1       5.627   4.148  14.554  0.00  0.00    +0.000 A 
ATOM     15  C   UNK     1       6.958   4.554  14.626  0.00  0.00    +0.000 A 
ATOM     16  C   UNK     1       7.419   5.231  15.753  0.00  0.00    +0.000 A 
ATOM     17  C   UNK     1       6.549   5.496  16.816  0.00  0.00    +0.000 A 
ENDBRANCH   4  12
BRANCH   9  18
ATOM     18  C   UNK     1       0.091   9.192  21.984  0.00  0.00    +0.000 C 
ATOM     19  O   UNK     1      -0.794   8.521  22.491  0.00  0.00    +0.000 OA
BRANCH  18  20
ATOM     20  O   UNK     1       0.497  10.387  22.487  0.00  0.00    +0.000 OA
ATOM     21  H   UNK     1       1.347  10.625  22.056  0.00  0.00    +0.000 HD
ENDBRANCH  18  20
ENDBRANCH   9  18
TORSDOF 3
ENDMDL
MODEL 9
REMARK VINA RESULT:      -6.8      5.040      7.070
REMARK  Name = 
REMARK  4 active torsions:
REMARK  status: ('A' for Active; 'I' for Inactive)
REMARK    1  A    between atoms: C_1  and  C_2
REMARK    2  A    between atoms: C_4  and  C_5
REMARK    3  A    between atoms: C_15  and  C_16
REMARK    4  A    between atoms: C_16  and  O_18
REMARK                            x       y       z     vdW  Elec       q    Type
REMARK                         _______ _______ _______ _____ _____    ______ ____
ROOT
ATOM      1  C   UNK     1       4.287   6.169  17.217  0.00  0.00    +0.000 C 
ATOM      2  C   UNK     1       3.327   6.902  18.076  0.00  0.00    +0.000 A 
ATOM      3  C   UNK     1       2.885   8.205  18.000  0.00  0.00    +0.000 A 
ATOM      4  C   UNK     1       1.922   8.353  19.027  0.00  0.00    +0.000 A 
ATOM      5  N   UNK     1       1.769   7.202  19.694  0.00  0.00    +0.000 NA
ATOM      6  N   UNK     1       2.655   6.330  19.145  0.00  0.00    +0.000 N 
ATOM      7  C   UNK     1       2.784   5.035  19.684  0.00  0.00    +0.000 A 
ATOM      8  N   UNK     1       3.704   4.163  19.306  0.00  0.00    +0.000 NA
ATOM      9  C   UNK     1       3.545   2.985  20.051  0.00  0.00    +0.000 A 
ATOM     10  C   UNK     1       2.477   2.991  20.928  0.00  0.00    +0.000 A 
ATOM     11  S   UNK     1       1.697   4.514  20.897  0.00  0.00    +0.000 S 
ENDROOT
BRANCH   4  12
ATOM     12  C   UNK     1       1.143   9.546  19.365  0.00  0.00    +0.000 A 
ATOM     13  C   UNK     1       1.157  10.667  18.518  0.00  0.00    +0.000 A 
ATOM     14  C   UNK     1       0.427  11.811  18.844  0.00  0.00    +0.000 A 
ATOM     15  C   UNK     1      -0.330  11.849  20.014  0.00  0.00    +0.000 A 
ATOM     16  C   UNK     1      -0.361  10.741  20.858  0.00  0.00    +0.000 A 
ATOM     17  C   UNK     1       0.374   9.595  20.537  0.00  0.00    +0.000 A 
ENDBRANCH   4  12
BRANCH   9  18
ATOM     18  C   UNK     1       4.466   1.863  19.879  0.00  0.00    +0.000 C 
ATOM     19  O   UNK     1       5.335   1.551  20.678  0.00  0.00    +0.000 OA
BRANCH  18  20
ATOM     20  O   UNK     1       4.257   1.198  18.714  0.00  0.00    +0.000 OA
ATOM     21  H   UNK     1       4.209   0.238  18.916  0.00  0.00    +0.000 HD
ENDBRANCH  18  20
ENDBRANCH   9  18
TORSDOF 3
ENDMDL
