MODEL 1
REMARK VINA RESULT:      -7.9      0.000      0.000
REMARK  Name = 
REMARK  8 active torsions:
REMARK  status: ('A' for Active; 'I' for Inactive)
REMARK    1  A    between atoms: C_1  and  C_2
REMARK    2  A    between atoms: C_5  and  C_6
REMARK    3  A    between atoms: C_6  and  N_7
REMARK    4  A    between atoms: N_7  and  C_8
REMARK    5  A    between atoms: N_16  and  C_17
REMARK    6  A    between atoms: C_17  and  C_18
REMARK    7  A    between atoms: C_17  and  C_19
REMARK    8  A    between atoms: C_17  and  C_20
REMARK                            x       y       z     vdW  Elec       q    Type
REMARK                         _______ _______ _______ _____ _____    ______ ____
ROOT
ATOM      1  C   UNL     1       5.448   5.547  17.239  0.00  0.00    +0.000 A 
ATOM      2  C   UNL     1       4.093   5.902  17.250  0.00  0.00    +0.000 A 
ATOM      3  C   UNL     1       3.151   5.276  18.084  0.00  0.00    +0.000 A 
ATOM      4  C   UNL     1       3.609   4.243  18.912  0.00  0.00    +0.000 A 
ATOM      5  C   UNL     1       4.943   3.845  18.892  0.00  0.00    +0.000 A 
ATOM      6  C   UNL     1       5.867   4.492  18.053  0.00  0.00    +0.000 A 
ATOM      7  N   UNL     1       5.172   2.817  19.763  0.00  0.00    +0.000 NA
ATOM      8  C   UNL     1       4.014   2.593  20.329  0.00  0.00    +0.000 A 
ATOM      9  N   UNL     1       3.020   3.421  19.861  0.00  0.00    +0.000 N 
ENDROOT
BRANCH   9  10
ATOM     10  C   UNL     1       1.617   3.421  20.326  0.00  0.00    +0.000 C 
ATOM     11  C   UNL     1       1.443   2.619  21.642  0.00  0.00    +0.000 C 
ATOM     12  C   UNL     1       1.138   4.859  20.611  0.00  0.00    +0.000 C 
ATOM     13  C   UNL     1       0.689   2.764  19.285  0.00  0.00    +0.000 C 
ENDBRANCH   9  10
BRANCH   1  14
ATOM     14  N   UNL     1       6.309   6.278  16.418  0.00  0.00    +0.000 N 
ATOM     15  H   UNL     1       5.808   6.942  15.833  0.00  0.00    +0.000 HD
BRANCH  14  16
ATOM     16  C   UNL     1       7.382   5.597  15.702  0.00  0.00    +0.000 C 
BRANCH  16  21
ATOM     17  C   UNL     1       5.232   2.679  11.138  0.00  0.00    +0.000 C 
ATOM     18  C   UNL     1       5.778   3.448  12.304  0.00  0.00    +0.000 A 
ATOM     19  C   UNL     1       7.009   4.105  12.215  0.00  0.00    +0.000 A 
ATOM     20  C   UNL     1       7.513   4.804  13.312  0.00  0.00    +0.000 A 
ATOM     21  C   UNL     1       6.796   4.867  14.517  0.00  0.00    +0.000 A 
ATOM     22  C   UNL     1       5.565   4.206  14.605  0.00  0.00    +0.000 A 
ATOM     23  C   UNL     1       5.060   3.504  13.507  0.00  0.00    +0.000 A 
ENDBRANCH  16  21
ENDBRANCH  14  16
ENDBRANCH   1  14
TORSDOF 4
ENDMDL
MODEL 2
REMARK VINA RESULT:      -7.8      0.066      1.380
REMARK  Name = 
REMARK  8 active torsions:
REMARK  status: ('A' for Active; 'I' for Inactive)
REMARK    1  A    between atoms: C_1  and  C_2
REMARK    2  A    between atoms: C_5  and  C_6
REMARK    3  A    between atoms: C_6  and  N_7
REMARK    4  A    between atoms: N_7  and  C_8
REMARK    5  A    between atoms: N_16  and  C_17
REMARK    6  A    between atoms: C_17  and  C_18
REMARK    7  A    between atoms: C_17  and  C_19
REMARK    8  A    between atoms: C_17  and  C_20
REMARK                            x       y       z     vdW  Elec       q    Type
REMARK                         _______ _______ _______ _____ _____    ______ ____
ROOT
ATOM      1  C   UNL     1       5.453   5.500  17.257  0.00  0.00    +0.000 A 
ATOM      2  C   UNL     1       4.095   5.847  17.247  0.00  0.00    +0.000 A 
ATOM      3  C   UNL     1       3.146   5.225  18.076  0.00  0.00    +0.000 A 
ATOM      4  C   UNL     1       3.599   4.204  18.921  0.00  0.00    +0.000 A 
ATOM      5  C   UNL     1       4.937   3.814  18.923  0.00  0.00    +0.000 A 
ATOM      6  C   UNL     1       5.867   4.457  18.088  0.00  0.00    +0.000 A 
ATOM      7  N   UNL     1       5.161   2.798  19.808  0.00  0.00    +0.000 NA
ATOM      8  C   UNL     1       3.997   2.573  20.362  0.00  0.00    +0.000 A 
ATOM      9  N   UNL     1       3.004   3.390  19.872  0.00  0.00    +0.000 N 
ENDROOT
BRANCH   9  10
ATOM     10  C   UNL     1       1.595   3.386  20.319  0.00  0.00    +0.000 C 
ATOM     11  C   UNL     1       1.074   4.818  20.605  0.00  0.00    +0.000 C 
ATOM     12  C   UNL     1       0.682   2.786  19.231  0.00  0.00    +0.000 C 
ATOM     13  C   UNL     1       1.431   2.589  21.629  0.00  0.00    +0.000 C 
ENDBRANCH   9  10
BRANCH   1  14
ATOM     14  N   UNL     1       6.319   6.227  16.439  0.00  0.00    +0.000 N 
ATOM     15  H   UNL     1       5.821   6.880  15.838  0.00  0.00    +0.000 HD
BRANCH  14  16
ATOM     16  C   UNL     1       7.406   5.545  15.745  0.00  0.00    +0.000 C 
BRANCH  16  21
ATOM     17  C   UNL     1       5.122   2.807  11.136  0.00  0.00    +0.000 C 
ATOM     18  C   UNL     1       5.717   3.493  12.329  0.00  0.00    +0.000 A 
ATOM     19  C   UNL     1       5.043   3.511  13.554  0.00  0.00    +0.000 A 
ATOM     20  C   UNL     1       5.601   4.166  14.652  0.00  0.00    +0.000 A 
ATOM     21  C   UNL     1       6.844   4.810  14.552  0.00  0.00    +0.000 A 
ATOM     22  C   UNL     1       7.515   4.793  13.324  0.00  0.00    +0.000 A 
ATOM     23  C   UNL     1       6.956   4.139  12.222  0.00  0.00    +0.000 A 
ENDBRANCH  16  21
ENDBRANCH  14  16
ENDBRANCH   1  14
TORSDOF 4
ENDMDL
MODEL 3
REMARK VINA RESULT:      -7.7      4.993      7.884
REMARK  Name = 
REMARK  8 active torsions:
REMARK  status: ('A' for Active; 'I' for Inactive)
REMARK    1  A    between atoms: C_1  and  C_2
REMARK    2  A    between atoms: C_5  and  C_6
REMARK    3  A    between atoms: C_6  and  N_7
REMARK    4  A    between atoms: N_7  and  C_8
REMARK    5  A    between atoms: N_16  and  C_17
REMARK    6  A    between atoms: C_17  and  C_18
REMARK    7  A    between atoms: C_17  and  C_19
REMARK    8  A    between atoms: C_17  and  C_20
REMARK                            x       y       z     vdW  Elec       q    Type
REMARK                         _______ _______ _______ _____ _____    ______ ____
ROOT
ATOM      1  C   UNL     1       2.003   8.707  18.441  0.00  0.00    +0.000 A 
ATOM      2  C   UNL     1       2.967   8.171  17.576  0.00  0.00    +0.000 A 
ATOM      3  C   UNL     1       3.529   6.896  17.761  0.00  0.00    +0.000 A 
ATOM      4  C   UNL     1       3.106   6.161  18.877  0.00  0.00    +0.000 A 
ATOM      5  C   UNL     1       2.177   6.687  19.773  0.00  0.00    +0.000 A 
ATOM      6  C   UNL     1       1.626   7.962  19.561  0.00  0.00    +0.000 A 
ATOM      7  N   UNL     1       1.915   5.815  20.791  0.00  0.00    +0.000 NA
ATOM      8  C   UNL     1       2.645   4.761  20.527  0.00  0.00    +0.000 A 
ATOM      9  N   UNL     1       3.392   4.902  19.380  0.00  0.00    +0.000 N 
ENDROOT
BRANCH   9  10
ATOM     10  C   UNL     1       4.293   3.875  18.815  0.00  0.00    +0.000 C 
ATOM     11  C   UNL     1       3.815   3.387  17.423  0.00  0.00    +0.000 C 
ATOM     12  C   UNL     1       5.714   4.444  18.626  0.00  0.00    +0.000 C 
ATOM     13  C   UNL     1       4.351   2.629  19.721  0.00  0.00    +0.000 C 
ENDBRANCH   9  10
BRANCH   1  14
ATOM     14  N   UNL     1       1.466   9.956  18.126  0.00  0.00    +0.000 N 
ATOM     15  H   UNL     1       2.140  10.557  17.659  0.00  0.00    +0.000 HD
BRANCH  14  16
ATOM     16  C   UNL     1       0.667  10.672  19.115  0.00  0.00    +0.000 C 
BRANCH  16  21
ATOM     17  C   UNL     1      -4.799  11.179  17.157  0.00  0.00    +0.000 C 
ATOM     18  C   UNL     1      -3.400  11.036  17.677  0.00  0.00    +0.000 A 
ATOM     19  C   UNL     1      -2.949  11.819  18.743  0.00  0.00    +0.000 A 
ATOM     20  C   UNL     1      -1.640  11.687  19.207  0.00  0.00    +0.000 A 
ATOM     21  C   UNL     1      -0.757  10.767  18.620  0.00  0.00    +0.000 A 
ATOM     22  C   UNL     1      -1.209   9.986  17.550  0.00  0.00    +0.000 A 
ATOM     23  C   UNL     1      -2.520  10.119  17.083  0.00  0.00    +0.000 A 
ENDBRANCH  16  21
ENDBRANCH  14  16
ENDBRANCH   1  14
TORSDOF 4
ENDMDL
MODEL 4
REMARK VINA RESULT:      -7.7      4.988      7.874
REMARK  Name = 
REMARK  8 active torsions:
REMARK  status: ('A' for Active; 'I' for Inactive)
REMARK    1  A    between atoms: C_1  and  C_2
REMARK    2  A    between atoms: C_5  and  C_6
REMARK    3  A    between atoms: C_6  and  N_7
REMARK    4  A    between atoms: N_7  and  C_8
REMARK    5  A    between atoms: N_16  and  C_17
REMARK    6  A    between atoms: C_17  and  C_18
REMARK    7  A    between atoms: C_17  and  C_19
REMARK    8  A    between atoms: C_17  and  C_20
REMARK                            x       y       z     vdW  Elec       q    Type
REMARK                         _______ _______ _______ _____ _____    ______ ____
ROOT
ATOM      1  C   UNL     1       1.990   8.702  18.376  0.00  0.00    +0.000 A 
ATOM      2  C   UNL     1       2.962   8.158  17.525  0.00  0.00    +0.000 A 
ATOM      3  C   UNL     1       3.526   6.888  17.732  0.00  0.00    +0.000 A 
ATOM      4  C   UNL     1       3.098   6.166  18.854  0.00  0.00    +0.000 A 
ATOM      5  C   UNL     1       2.161   6.700  19.736  0.00  0.00    +0.000 A 
ATOM      6  C   UNL     1       1.607   7.971  19.503  0.00  0.00    +0.000 A 
ATOM      7  N   UNL     1       1.895   5.841  20.764  0.00  0.00    +0.000 NA
ATOM      8  C   UNL     1       2.630   4.787  20.519  0.00  0.00    +0.000 A 
ATOM      9  N   UNL     1       3.385   4.914  19.376  0.00  0.00    +0.000 N 
ENDROOT
BRANCH   9  10
ATOM     10  C   UNL     1       4.294   3.883  18.831  0.00  0.00    +0.000 C 
ATOM     11  C   UNL     1       4.381   2.642  19.756  0.00  0.00    +0.000 C 
ATOM     12  C   UNL     1       3.791   3.386  17.460  0.00  0.00    +0.000 C 
ATOM     13  C   UNL     1       5.729   4.428  18.689  0.00  0.00    +0.000 C 
ENDBRANCH   9  10
BRANCH   1  14
ATOM     14  N   UNL     1       1.451   9.945  18.041  0.00  0.00    +0.000 N 
ATOM     15  H   UNL     1       2.106  10.517  17.513  0.00  0.00    +0.000 HD
BRANCH  14  16
ATOM     16  C   UNL     1       0.717  10.712  19.042  0.00  0.00    +0.000 C 
BRANCH  16  21
ATOM     17  C   UNL     1      -4.855  11.110  17.382  0.00  0.00    +0.000 C 
ATOM     18  C   UNL     1      -3.416  11.020  17.793  0.00  0.00    +0.000 A 
ATOM     19  C   UNL     1      -2.555  10.101  17.186  0.00  0.00    +0.000 A 
ATOM     20  C   UNL     1      -1.222  10.016  17.587  0.00  0.00    +0.000 A 
ATOM     21  C   UNL     1      -0.720  10.851  18.598  0.00  0.00    +0.000 A 
ATOM     22  C   UNL     1      -1.584  11.768  19.207  0.00  0.00    +0.000 A 
ATOM     23  C   UNL     1      -2.921  11.853  18.806  0.00  0.00    +0.000 A 
ENDBRANCH  16  21
ENDBRANCH  14  16
ENDBRANCH   1  14
TORSDOF 4
ENDMDL
MODEL 5
REMARK VINA RESULT:      -7.7      4.854      7.778
REMARK  Name = 
REMARK  8 active torsions:
REMARK  status: ('A' for Active; 'I' for Inactive)
REMARK    1  A    between atoms: C_1  and  C_2
REMARK    2  A    between atoms: C_5  and  C_6
REMARK    3  A    between atoms: C_6  and  N_7
REMARK    4  A    between atoms: N_7  and  C_8
REMARK    5  A    between atoms: N_16  and  C_17
REMARK    6  A    between atoms: C_17  and  C_18
REMARK    7  A    between atoms: C_17  and  C_19
REMARK    8  A    between atoms: C_17  and  C_20
REMARK                            x       y       z     vdW  Elec       q    Type
REMARK                         _______ _______ _______ _____ _____    ______ ____
ROOT
ATOM      1  C   UNL     1       1.631   8.290  19.645  0.00  0.00    +0.000 A 
ATOM      2  C   UNL     1       2.249   7.944  18.436  0.00  0.00    +0.000 A 
ATOM      3  C   UNL     1       2.730   6.649  18.173  0.00  0.00    +0.000 A 
ATOM      4  C   UNL     1       2.592   5.692  19.187  0.00  0.00    +0.000 A 
ATOM      5  C   UNL     1       2.015   6.021  20.411  0.00  0.00    +0.000 A 
ATOM      6  C   UNL     1       1.537   7.321  20.647  0.00  0.00    +0.000 A 
ATOM      7  N   UNL     1       1.990   4.948  21.257  0.00  0.00    +0.000 NA
ATOM      8  C   UNL     1       2.517   3.967  20.571  0.00  0.00    +0.000 A 
ATOM      9  N   UNL     1       2.905   4.346  19.306  0.00  0.00    +0.000 N 
ENDROOT
BRANCH   9  10
ATOM     10  C   UNL     1       3.509   3.455  18.293  0.00  0.00    +0.000 C 
ATOM     11  C   UNL     1       2.611   3.313  17.037  0.00  0.00    +0.000 C 
ATOM     12  C   UNL     1       4.863   4.017  17.815  0.00  0.00    +0.000 C 
ATOM     13  C   UNL     1       3.709   2.033  18.854  0.00  0.00    +0.000 C 
ENDBRANCH   9  10
BRANCH   1  14
ATOM     14  N   UNL     1       1.134   9.588  19.775  0.00  0.00    +0.000 N 
ATOM     15  H   UNL     1       0.343   9.633  20.413  0.00  0.00    +0.000 HD
BRANCH  14  16
ATOM     16  C   UNL     1       0.944  10.415  18.588  0.00  0.00    +0.000 C 
BRANCH  16  21
ATOM     17  C   UNL     1      -4.791  11.050  17.769  0.00  0.00    +0.000 C 
ATOM     18  C   UNL     1      -3.311  10.898  17.962  0.00  0.00    +0.000 A 
ATOM     19  C   UNL     1      -2.597   9.915  17.271  0.00  0.00    +0.000 A 
ATOM     20  C   UNL     1      -1.224   9.774  17.471  0.00  0.00    +0.000 A 
ATOM     21  C   UNL     1      -0.535  10.615  18.359  0.00  0.00    +0.000 A 
ATOM     22  C   UNL     1      -1.253  11.597  19.052  0.00  0.00    +0.000 A 
ATOM     23  C   UNL     1      -2.630  11.738  18.854  0.00  0.00    +0.000 A 
ENDBRANCH  16  21
ENDBRANCH  14  16
ENDBRANCH   1  14
TORSDOF 4
ENDMDL
MODEL 6
REMARK VINA RESULT:      -7.7      4.863      7.802
REMARK  Name = 
REMARK  8 active torsions:
REMARK  status: ('A' for Active; 'I' for Inactive)
REMARK    1  A    between atoms: C_1  and  C_2
REMARK    2  A    between atoms: C_5  and  C_6
REMARK    3  A    between atoms: C_6  and  N_7
REMARK    4  A    between atoms: N_7  and  C_8
REMARK    5  A    between atoms: N_16  and  C_17
REMARK    6  A    between atoms: C_17  and  C_18
REMARK    7  A    between atoms: C_17  and  C_19
REMARK    8  A    between atoms: C_17  and  C_20
REMARK                            x       y       z     vdW  Elec       q    Type
REMARK                         _______ _______ _______ _____ _____    ______ ____
ROOT
ATOM      1  C   UNL     1       1.617   8.247  19.728  0.00  0.00    +0.000 A 
ATOM      2  C   UNL     1       2.224   7.933  18.505  0.00  0.00    +0.000 A 
ATOM      3  C   UNL     1       2.714   6.650  18.208  0.00  0.00    +0.000 A 
ATOM      4  C   UNL     1       2.597   5.669  19.202  0.00  0.00    +0.000 A 
ATOM      5  C   UNL     1       2.032   5.965  20.440  0.00  0.00    +0.000 A 
ATOM      6  C   UNL     1       1.544   7.255  20.710  0.00  0.00    +0.000 A 
ATOM      7  N   UNL     1       2.027   4.874  21.262  0.00  0.00    +0.000 NA
ATOM      8  C   UNL     1       2.556   3.914  20.548  0.00  0.00    +0.000 A 
ATOM      9  N   UNL     1       2.925   4.325  19.288  0.00  0.00    +0.000 N 
ENDROOT
BRANCH   9  10
ATOM     10  C   UNL     1       3.526   3.462  18.249  0.00  0.00    +0.000 C 
ATOM     11  C   UNL     1       4.872   4.032  17.731  0.00  0.00    +0.000 C 
ATOM     12  C   UNL     1       3.823   2.058  18.813  0.00  0.00    +0.000 C 
ATOM     13  C   UNL     1       2.599   3.342  17.023  0.00  0.00    +0.000 C 
ENDBRANCH   9  10
BRANCH   1  14
ATOM     14  N   UNL     1       1.108   9.536  19.893  0.00  0.00    +0.000 N 
ATOM     15  H   UNL     1       0.301   9.554  20.512  0.00  0.00    +0.000 HD
BRANCH  14  16
ATOM     16  C   UNL     1       0.944  10.406  18.732  0.00  0.00    +0.000 C 
BRANCH  16  21
ATOM     17  C   UNL     1      -4.716  11.231  17.614  0.00  0.00    +0.000 C 
ATOM     18  C   UNL     1      -3.265  11.007  17.919  0.00  0.00    +0.000 A 
ATOM     19  C   UNL     1      -2.607  11.784  18.876  0.00  0.00    +0.000 A 
ATOM     20  C   UNL     1      -1.253  11.576  19.139  0.00  0.00    +0.000 A 
ATOM     21  C   UNL     1      -0.530  10.584  18.457  0.00  0.00    +0.000 A 
ATOM     22  C   UNL     1      -1.191   9.808  17.497  0.00  0.00    +0.000 A 
ATOM     23  C   UNL     1      -2.547  10.018  17.231  0.00  0.00    +0.000 A 
ENDBRANCH  16  21
ENDBRANCH  14  16
ENDBRANCH   1  14
TORSDOF 4
ENDMDL
MODEL 7
REMARK VINA RESULT:      -7.6      6.007      8.587
REMARK  Name = 
REMARK  8 active torsions:
REMARK  status: ('A' for Active; 'I' for Inactive)
REMARK    1  A    between atoms: C_1  and  C_2
REMARK    2  A    between atoms: C_5  and  C_6
REMARK    3  A    between atoms: C_6  and  N_7
REMARK    4  A    between atoms: N_7  and  C_8
REMARK    5  A    between atoms: N_16  and  C_17
REMARK    6  A    between atoms: C_17  and  C_18
REMARK    7  A    between atoms: C_17  and  C_19
REMARK    8  A    between atoms: C_17  and  C_20
REMARK                            x       y       z     vdW  Elec       q    Type
REMARK                         _______ _______ _______ _____ _____    ______ ____
ROOT
ATOM      1  C   UNL     1       1.104   8.809  21.060  0.00  0.00    +0.000 A 
ATOM      2  C   UNL     1       0.703   9.467  19.889  0.00  0.00    +0.000 A 
ATOM      3  C   UNL     1      -0.186  10.556  19.897  0.00  0.00    +0.000 A 
ATOM      4  C   UNL     1      -0.692  10.966  21.138  0.00  0.00    +0.000 A 
ATOM      5  C   UNL     1      -0.338  10.305  22.311  0.00  0.00    +0.000 A 
ATOM      6  C   UNL     1       0.557   9.222  22.277  0.00  0.00    +0.000 A 
ATOM      7  N   UNL     1      -0.952  10.856  23.401  0.00  0.00    +0.000 NA
ATOM      8  C   UNL     1      -1.655  11.850  22.922  0.00  0.00    +0.000 A 
ATOM      9  N   UNL     1      -1.544  11.976  21.557  0.00  0.00    +0.000 N 
ENDROOT
BRANCH   9  10
ATOM     10  C   UNL     1      -2.201  13.017  20.737  0.00  0.00    +0.000 C 
ATOM     11  C   UNL     1      -3.040  13.992  21.603  0.00  0.00    +0.000 C 
ATOM     12  C   UNL     1      -1.150  13.868  19.996  0.00  0.00    +0.000 C 
ATOM     13  C   UNL     1      -3.171  12.388  19.717  0.00  0.00    +0.000 C 
ENDBRANCH   9  10
BRANCH   1  14
ATOM     14  N   UNL     1       2.040   7.780  20.942  0.00  0.00    +0.000 N 
ATOM     15  H   UNL     1       2.816   7.893  21.590  0.00  0.00    +0.000 HD
BRANCH  14  16
ATOM     16  C   UNL     1       2.473   7.339  19.620  0.00  0.00    +0.000 C 
BRANCH  16  21
ATOM     17  C   UNL     1       0.878   1.800  18.767  0.00  0.00    +0.000 C 
ATOM     18  C   UNL     1       1.269   3.231  18.978  0.00  0.00    +0.000 A 
ATOM     19  C   UNL     1       1.767   4.001  17.923  0.00  0.00    +0.000 A 
ATOM     20  C   UNL     1       2.142   5.327  18.137  0.00  0.00    +0.000 A 
ATOM     21  C   UNL     1       2.022   5.914  19.406  0.00  0.00    +0.000 A 
ATOM     22  C   UNL     1       1.526   5.141  20.462  0.00  0.00    +0.000 A 
ATOM     23  C   UNL     1       1.152   3.811  20.249  0.00  0.00    +0.000 A 
ENDBRANCH  16  21
ENDBRANCH  14  16
ENDBRANCH   1  14
TORSDOF 4
ENDMDL
MODEL 8
REMARK VINA RESULT:      -7.6      5.044      6.705
REMARK  Name = 
REMARK  8 active torsions:
REMARK  status: ('A' for Active; 'I' for Inactive)
REMARK    1  A    between atoms: C_1  and  C_2
REMARK    2  A    between atoms: C_5  and  C_6
REMARK    3  A    between atoms: C_6  and  N_7
REMARK    4  A    between atoms: N_7  and  C_8
REMARK    5  A    between atoms: N_16  and  C_17
REMARK    6  A    between atoms: C_17  and  C_18
REMARK    7  A    between atoms: C_17  and  C_19
REMARK    8  A    between atoms: C_17  and  C_20
REMARK                            x       y       z     vdW  Elec       q    Type
REMARK                         _______ _______ _______ _____ _____    ______ ____
ROOT
ATOM      1  C   UNL     1       2.086   7.770  19.451  0.00  0.00    +0.000 A 
ATOM      2  C   UNL     1       1.841   8.533  18.301  0.00  0.00    +0.000 A 
ATOM      3  C   UNL     1       1.042   9.689  18.313  0.00  0.00    +0.000 A 
ATOM      4  C   UNL     1       0.459  10.058  19.533  0.00  0.00    +0.000 A 
ATOM      5  C   UNL     1       0.656   9.295  20.682  0.00  0.00    +0.000 A 
ATOM      6  C   UNL     1       1.466   8.147  20.645  0.00  0.00    +0.000 A 
ATOM      7  N   UNL     1      -0.009   9.823  21.753  0.00  0.00    +0.000 NA
ATOM      8  C   UNL     1      -0.588  10.901  21.289  0.00  0.00    +0.000 A 
ATOM      9  N   UNL     1      -0.347  11.105  19.950  0.00  0.00    +0.000 N 
ENDROOT
BRANCH   9  10
ATOM     10  C   UNL     1      -0.847  12.247  19.156  0.00  0.00    +0.000 C 
ATOM     11  C   UNL     1       0.310  13.068  18.530  0.00  0.00    +0.000 C 
ATOM     12  C   UNL     1      -1.727  11.753  17.989  0.00  0.00    +0.000 C 
ATOM     13  C   UNL     1      -1.654  13.223  20.034  0.00  0.00    +0.000 C 
ENDBRANCH   9  10
BRANCH   1  14
ATOM     14  N   UNL     1       2.948   6.678  19.339  0.00  0.00    +0.000 N 
ATOM     15  H   UNL     1       3.920   6.964  19.256  0.00  0.00    +0.000 HD
BRANCH  14  16
ATOM     16  C   UNL     1       2.609   5.575  18.445  0.00  0.00    +0.000 C 
BRANCH  16  21
ATOM     17  C   UNL     1       6.878   4.737  14.568  0.00  0.00    +0.000 C 
ATOM     18  C   UNL     1       5.793   4.948  15.581  0.00  0.00    +0.000 A 
ATOM     19  C   UNL     1       5.084   3.864  16.106  0.00  0.00    +0.000 A 
ATOM     20  C   UNL     1       4.067   4.075  17.036  0.00  0.00    +0.000 A 
ATOM     21  C   UNL     1       3.741   5.371  17.467  0.00  0.00    +0.000 A 
ATOM     22  C   UNL     1       4.451   6.455  16.938  0.00  0.00    +0.000 A 
ATOM     23  C   UNL     1       5.469   6.245  16.004  0.00  0.00    +0.000 A 
ENDBRANCH  16  21
ENDBRANCH  14  16
ENDBRANCH   1  14
TORSDOF 4
ENDMDL
MODEL 9
REMARK VINA RESULT:      -7.6      6.300      9.024
REMARK  Name = 
REMARK  8 active torsions:
REMARK  status: ('A' for Active; 'I' for Inactive)
REMARK    1  A    between atoms: C_1  and  C_2
REMARK    2  A    between atoms: C_5  and  C_6
REMARK    3  A    between atoms: C_6  and  N_7
REMARK    4  A    between atoms: N_7  and  C_8
REMARK    5  A    between atoms: N_16  and  C_17
REMARK    6  A    between atoms: C_17  and  C_18
REMARK    7  A    between atoms: C_17  and  C_19
REMARK    8  A    between atoms: C_17  and  C_20
REMARK                            x       y       z     vdW  Elec       q    Type
REMARK                         _______ _______ _______ _____ _____    ______ ____
ROOT
ATOM      1  C   UNL     1       0.713   9.003  21.406  0.00  0.00    +0.000 A 
ATOM      2  C   UNL     1       0.340   9.398  22.697  0.00  0.00    +0.000 A 
ATOM      3  C   UNL     1      -0.481  10.512  22.943  0.00  0.00    +0.000 A 
ATOM      4  C   UNL     1      -0.911  11.253  21.835  0.00  0.00    +0.000 A 
ATOM      5  C   UNL     1      -0.524  10.903  20.543  0.00  0.00    +0.000 A 
ATOM      6  C   UNL     1       0.293   9.780  20.324  0.00  0.00    +0.000 A 
ATOM      7  N   UNL     1      -1.042  11.762  19.615  0.00  0.00    +0.000 NA
ATOM      8  C   UNL     1      -1.754  12.614  20.307  0.00  0.00    +0.000 A 
ATOM      9  N   UNL     1      -1.721  12.365  21.660  0.00  0.00    +0.000 N 
ENDROOT
BRANCH   9  10
ATOM     10  C   UNL     1      -2.443  13.141  22.691  0.00  0.00    +0.000 C 
ATOM     11  C   UNL     1      -3.390  14.196  22.063  0.00  0.00    +0.000 C 
ATOM     12  C   UNL     1      -3.317  12.212  23.557  0.00  0.00    +0.000 C 
ATOM     13  C   UNL     1      -1.460  13.914  23.592  0.00  0.00    +0.000 C 
ENDBRANCH   9  10
BRANCH   1  14
ATOM     14  N   UNL     1       1.478   7.843  21.273  0.00  0.00    +0.000 N 
ATOM     15  H   UNL     1       2.067   7.678  22.086  0.00  0.00    +0.000 HD
BRANCH  14  16
ATOM     16  C   UNL     1       2.166   7.567  20.016  0.00  0.00    +0.000 C 
BRANCH  16  21
ATOM     17  C   UNL     1       1.276   1.967  18.669  0.00  0.00    +0.000 C 
ATOM     18  C   UNL     1       1.524   3.403  19.024  0.00  0.00    +0.000 A 
ATOM     19  C   UNL     1       1.324   3.863  20.328  0.00  0.00    +0.000 A 
ATOM     20  C   UNL     1       1.544   5.204  20.641  0.00  0.00    +0.000 A 
ATOM     21  C   UNL     1       1.973   6.112  19.660  0.00  0.00    +0.000 A 
ATOM     22  C   UNL     1       2.170   5.650  18.354  0.00  0.00    +0.000 A 
ATOM     23  C   UNL     1       1.948   4.306  18.039  0.00  0.00    +0.000 A 
ENDBRANCH  16  21
ENDBRANCH  14  16
ENDBRANCH   1  14
TORSDOF 4
ENDMDL
