MODEL 1
REMARK VINA RESULT:      -5.9      0.000      0.000
REMARK  Name = 
REMARK  6 active torsions:
REMARK  status: ('A' for Active; 'I' for Inactive)
REMARK    1  A    between atoms: C_1  and  C_2
REMARK    2  A    between atoms: C_4  and  C_5
REMARK    3  A    between atoms: C_5  and  N_6
REMARK    4  A    between atoms: N_6  and  C_7
REMARK    5  A    between atoms: C_7  and  C_8
REMARK    6  A    between atoms: N_10  and  C_11
REMARK                            x       y       z     vdW  Elec       q    Type
REMARK                         _______ _______ _______ _____ _____    ______ ____
ROOT
ATOM      1  N   UNL     1       3.973   4.848  17.059  0.00  0.00    +0.000 NA
ATOM      2  H   UNL     1       3.117   5.285  16.714  0.00  0.00    +0.000 HD
ENDROOT
BRANCH   1   3
ATOM      3  C   UNL     1       5.082   5.246  16.196  0.00  0.00    +0.000 C 
BRANCH   3   7
ATOM      4  C   UNL     1       8.195   8.690  17.917  0.00  0.00    +0.000 C 
ATOM      5  C   UNL     1       7.534   7.363  17.800  0.00  0.00    +0.000 A 
ATOM      6  N   UNL     1       6.653   7.054  16.872  0.00  0.00    +0.000 NA
ATOM      7  C   UNL     1       6.177   5.761  17.081  0.00  0.00    +0.000 A 
ATOM      8  C   UNL     1       6.772   5.089  18.129  0.00  0.00    +0.000 A 
ATOM      9  S   UNL     1       7.920   6.104  18.904  0.00  0.00    +0.000 S 
ENDBRANCH   3   7
ENDBRANCH   1   3
BRANCH   1  10
ATOM     10  C   UNL     1       3.807   3.401  17.129  0.00  0.00    +0.000 C 
BRANCH  10  11
ATOM     11  C   UNL     1       3.331   2.869  18.503  0.00  0.00    +0.000 C 
ATOM     12  C   UNL     1       3.210   3.975  19.583  0.00  0.00    +0.000 C 
ATOM     13  N   UNL     1       1.854   4.537  19.694  0.00  0.00    +0.000 NA
ATOM     14  C   UNL     1       1.793   5.592  20.691  0.00  0.00    +0.000 C 
ATOM     15  C   UNL     1       0.942   3.431  19.984  0.00  0.00    +0.000 C 
ATOM     16  C   UNL     1       0.937   2.472  18.787  0.00  0.00    +0.000 C 
ATOM     17  O   UNL     1       2.222   1.953  18.424  0.00  0.00    +0.000 OA
ENDBRANCH  10  11
ENDBRANCH   1  10
TORSDOF 4
ENDMDL
MODEL 2
REMARK VINA RESULT:      -5.8      2.860      5.963
REMARK  Name = 
REMARK  6 active torsions:
REMARK  status: ('A' for Active; 'I' for Inactive)
REMARK    1  A    between atoms: C_1  and  C_2
REMARK    2  A    between atoms: C_4  and  C_5
REMARK    3  A    between atoms: C_5  and  N_6
REMARK    4  A    between atoms: N_6  and  C_7
REMARK    5  A    between atoms: C_7  and  C_8
REMARK    6  A    between atoms: N_10  and  C_11
REMARK                            x       y       z     vdW  Elec       q    Type
REMARK                         _______ _______ _______ _____ _____    ______ ____
ROOT
ATOM      1  N   UNL     1       6.522   4.276  18.700  0.00  0.00    +0.000 NA
ATOM      2  H   UNL     1       6.190   3.893  17.814  0.00  0.00    +0.000 HD
ENDROOT
BRANCH   1   3
ATOM      3  C   UNL     1       5.372   4.748  19.466  0.00  0.00    +0.000 C 
BRANCH   3   7
ATOM      4  C   UNL     1       0.766   2.993  19.942  0.00  0.00    +0.000 C 
ATOM      5  C   UNL     1       2.117   3.178  19.350  0.00  0.00    +0.000 A 
ATOM      6  N   UNL     1       3.081   3.880  19.907  0.00  0.00    +0.000 NA
ATOM      7  C   UNL     1       4.193   3.910  19.069  0.00  0.00    +0.000 A 
ATOM      8  C   UNL     1       4.070   3.158  17.919  0.00  0.00    +0.000 A 
ATOM      9  S   UNL     1       2.515   2.431  17.854  0.00  0.00    +0.000 S 
ENDBRANCH   3   7
ENDBRANCH   1   3
BRANCH   1  10
ATOM     10  C   UNL     1       7.505   5.326  18.458  0.00  0.00    +0.000 C 
BRANCH  10  11
ATOM     11  C   UNL     1       7.318   6.095  17.128  0.00  0.00    +0.000 C 
ATOM     12  C   UNL     1       7.343   5.178  15.877  0.00  0.00    +0.000 C 
ATOM     13  N   UNL     1       6.005   4.748  15.442  0.00  0.00    +0.000 NA
ATOM     14  C   UNL     1       6.077   3.863  14.291  0.00  0.00    +0.000 C 
ATOM     15  C   UNL     1       5.218   5.953  15.181  0.00  0.00    +0.000 C 
ATOM     16  C   UNL     1       5.041   6.718  16.498  0.00  0.00    +0.000 C 
ATOM     17  O   UNL     1       6.260   7.073  17.159  0.00  0.00    +0.000 OA
ENDBRANCH  10  11
ENDBRANCH   1  10
TORSDOF 4
ENDMDL
MODEL 3
REMARK VINA RESULT:      -5.8      2.727      3.503
REMARK  Name = 
REMARK  6 active torsions:
REMARK  status: ('A' for Active; 'I' for Inactive)
REMARK    1  A    between atoms: C_1  and  C_2
REMARK    2  A    between atoms: C_4  and  C_5
REMARK    3  A    between atoms: C_5  and  N_6
REMARK    4  A    between atoms: N_6  and  C_7
REMARK    5  A    between atoms: C_7  and  C_8
REMARK    6  A    between atoms: N_10  and  C_11
REMARK                            x       y       z     vdW  Elec       q    Type
REMARK                         _______ _______ _______ _____ _____    ______ ____
ROOT
ATOM      1  N   UNL     1       5.793   4.491  18.281  0.00  0.00    +0.000 NA
ATOM      2  H   UNL     1       5.957   3.963  19.139  0.00  0.00    +0.000 HD
ENDROOT
BRANCH   1   3
ATOM      3  C   UNL     1       7.068   4.672  17.591  0.00  0.00    +0.000 C 
BRANCH   3   7
ATOM      4  C   UNL     1       8.007   5.478  12.797  0.00  0.00    +0.000 C 
ATOM      5  C   UNL     1       7.299   4.954  13.994  0.00  0.00    +0.000 A 
ATOM      6  N   UNL     1       7.616   5.259  15.235  0.00  0.00    +0.000 NA
ATOM      7  C   UNL     1       6.803   4.552  16.120  0.00  0.00    +0.000 A 
ATOM      8  C   UNL     1       5.831   3.780  15.520  0.00  0.00    +0.000 A 
ATOM      9  S   UNL     1       5.956   3.897  13.811  0.00  0.00    +0.000 S 
ENDBRANCH   3   7
ENDBRANCH   1   3
BRANCH   1  10
ATOM     10  C   UNL     1       5.136   5.757  18.585  0.00  0.00    +0.000 C 
BRANCH  10  11
ATOM     11  C   UNL     1       3.600   5.752  18.395  0.00  0.00    +0.000 C 
ATOM     12  C   UNL     1       3.054   4.417  17.824  0.00  0.00    +0.000 C 
ATOM     13  N   UNL     1       2.604   3.478  18.865  0.00  0.00    +0.000 NA
ATOM     14  C   UNL     1       2.134   2.228  18.289  0.00  0.00    +0.000 C 
ATOM     15  C   UNL     1       1.579   4.157  19.656  0.00  0.00    +0.000 C 
ATOM     16  C   UNL     1       2.222   5.350  20.373  0.00  0.00    +0.000 C 
ATOM     17  O   UNL     1       2.869   6.294  19.512  0.00  0.00    +0.000 OA
ENDBRANCH  10  11
ENDBRANCH   1  10
TORSDOF 4
ENDMDL
MODEL 4
REMARK VINA RESULT:      -5.7      1.361      1.480
REMARK  Name = 
REMARK  6 active torsions:
REMARK  status: ('A' for Active; 'I' for Inactive)
REMARK    1  A    between atoms: C_1  and  C_2
REMARK    2  A    between atoms: C_4  and  C_5
REMARK    3  A    between atoms: C_5  and  N_6
REMARK    4  A    between atoms: N_6  and  C_7
REMARK    5  A    between atoms: C_7  and  C_8
REMARK    6  A    between atoms: N_10  and  C_11
REMARK                            x       y       z     vdW  Elec       q    Type
REMARK                         _______ _______ _______ _____ _____    ______ ____
ROOT
ATOM      1  N   UNL     1       5.086   4.092  15.866  0.00  0.00    +0.000 NA
ATOM      2  H   UNL     1       4.717   3.311  15.323  0.00  0.00    +0.000 HD
ENDROOT
BRANCH   1   3
ATOM      3  C   UNL     1       6.539   4.119  15.719  0.00  0.00    +0.000 C 
BRANCH   3   7
ATOM      4  C   UNL     1       7.802   8.513  17.620  0.00  0.00    +0.000 C 
ATOM      5  C   UNL     1       7.614   7.040  17.559  0.00  0.00    +0.000 A 
ATOM      6  N   UNL     1       7.222   6.387  16.485  0.00  0.00    +0.000 NA
ATOM      7  C   UNL     1       7.081   5.032  16.779  0.00  0.00    +0.000 A 
ATOM      8  C   UNL     1       7.445   4.677  18.061  0.00  0.00    +0.000 A 
ATOM      9  S   UNL     1       7.934   6.069  18.941  0.00  0.00    +0.000 S 
ENDBRANCH   3   7
ENDBRANCH   1   3
BRANCH   1  10
ATOM     10  C   UNL     1       4.665   3.982  17.258  0.00  0.00    +0.000 C 
BRANCH  10  11
ATOM     11  C   UNL     1       3.514   2.979  17.510  0.00  0.00    +0.000 C 
ATOM     12  C   UNL     1       3.486   2.426  18.959  0.00  0.00    +0.000 C 
ATOM     13  N   UNL     1       2.592   3.180  19.854  0.00  0.00    +0.000 NA
ATOM     14  C   UNL     1       2.622   2.651  21.208  0.00  0.00    +0.000 C 
ATOM     15  C   UNL     1       1.253   3.150  19.265  0.00  0.00    +0.000 C 
ATOM     16  C   UNL     1       1.290   3.899  17.927  0.00  0.00    +0.000 C 
ATOM     17  O   UNL     1       2.242   3.400  16.982  0.00  0.00    +0.000 OA
ENDBRANCH  10  11
ENDBRANCH   1  10
TORSDOF 4
ENDMDL
MODEL 5
REMARK VINA RESULT:      -5.6      1.538      2.126
REMARK  Name = 
REMARK  6 active torsions:
REMARK  status: ('A' for Active; 'I' for Inactive)
REMARK    1  A    between atoms: C_1  and  C_2
REMARK    2  A    between atoms: C_4  and  C_5
REMARK    3  A    between atoms: C_5  and  N_6
REMARK    4  A    between atoms: N_6  and  C_7
REMARK    5  A    between atoms: C_7  and  C_8
REMARK    6  A    between atoms: N_10  and  C_11
REMARK                            x       y       z     vdW  Elec       q    Type
REMARK                         _______ _______ _______ _____ _____    ______ ____
ROOT
ATOM      1  N   UNL     1       4.119   4.566  17.037  0.00  0.00    +0.000 NA
ATOM      2  H   UNL     1       4.304   3.879  17.769  0.00  0.00    +0.000 HD
ENDROOT
BRANCH   1   3
ATOM      3  C   UNL     1       5.331   4.743  16.243  0.00  0.00    +0.000 C 
BRANCH   3   7
ATOM      4  C   UNL     1       8.062   8.589  17.750  0.00  0.00    +0.000 C 
ATOM      5  C   UNL     1       7.524   7.203  17.730  0.00  0.00    +0.000 A 
ATOM      6  N   UNL     1       6.711   6.737  16.806  0.00  0.00    +0.000 NA
ATOM      7  C   UNL     1       6.342   5.429  17.114  0.00  0.00    +0.000 A 
ATOM      8  C   UNL     1       6.951   4.905  18.235  0.00  0.00    +0.000 A 
ATOM      9  S   UNL     1       7.975   6.083  18.953  0.00  0.00    +0.000 S 
ENDBRANCH   3   7
ENDBRANCH   1   3
BRANCH   1  10
ATOM     10  C   UNL     1       3.646   5.814  17.626  0.00  0.00    +0.000 C 
BRANCH  10  11
ATOM     11  C   UNL     1       2.235   5.740  18.258  0.00  0.00    +0.000 C 
ATOM     12  C   UNL     1       1.505   4.400  17.979  0.00  0.00    +0.000 C 
ATOM     13  N   UNL     1       1.683   3.404  19.048  0.00  0.00    +0.000 NA
ATOM     14  C   UNL     1       1.013   2.154  18.731  0.00  0.00    +0.000 C 
ATOM     15  C   UNL     1       1.201   4.005  20.292  0.00  0.00    +0.000 C 
ATOM     16  C   UNL     1       2.093   5.202  20.637  0.00  0.00    +0.000 C 
ATOM     17  O   UNL     1       2.176   6.207  19.619  0.00  0.00    +0.000 OA
ENDBRANCH  10  11
ENDBRANCH   1  10
TORSDOF 4
ENDMDL
MODEL 6
REMARK VINA RESULT:      -5.6      1.863      2.394
REMARK  Name = 
REMARK  6 active torsions:
REMARK  status: ('A' for Active; 'I' for Inactive)
REMARK    1  A    between atoms: C_1  and  C_2
REMARK    2  A    between atoms: C_4  and  C_5
REMARK    3  A    between atoms: C_5  and  N_6
REMARK    4  A    between atoms: N_6  and  C_7
REMARK    5  A    between atoms: C_7  and  C_8
REMARK    6  A    between atoms: N_10  and  C_11
REMARK                            x       y       z     vdW  Elec       q    Type
REMARK                         _______ _______ _______ _____ _____    ______ ____
ROOT
ATOM      1  N   UNL     1       4.022   3.252  17.539  0.00  0.00    +0.000 NA
ATOM      2  H   UNL     1       4.194   3.808  18.378  0.00  0.00    +0.000 HD
ENDROOT
BRANCH   1   3
ATOM      3  C   UNL     1       4.941   3.687  16.491  0.00  0.00    +0.000 C 
BRANCH   3   7
ATOM      4  C   UNL     1       8.076   5.645  19.785  0.00  0.00    +0.000 C 
ATOM      5  C   UNL     1       7.204   5.577  18.583  0.00  0.00    +0.000 A 
ATOM      6  N   UNL     1       6.427   4.556  18.289  0.00  0.00    +0.000 NA
ATOM      7  C   UNL     1       5.794   4.777  17.067  0.00  0.00    +0.000 A 
ATOM      8  C   UNL     1       6.052   6.007  16.498  0.00  0.00    +0.000 A 
ATOM      9  S   UNL     1       7.145   6.895  17.482  0.00  0.00    +0.000 S 
ENDBRANCH   3   7
ENDBRANCH   1   3
BRANCH   1  10
ATOM     10  C   UNL     1       2.623   3.362  17.140  0.00  0.00    +0.000 C 
BRANCH  10  11
ATOM     11  C   UNL     1       1.740   4.198  18.098  0.00  0.00    +0.000 C 
ATOM     12  C   UNL     1       1.221   3.392  19.318  0.00  0.00    +0.000 C 
ATOM     13  N   UNL     1       2.074   3.524  20.510  0.00  0.00    +0.000 NA
ATOM     14  C   UNL     1       1.572   2.727  21.617  0.00  0.00    +0.000 C 
ATOM     15  C   UNL     1       2.161   4.949  20.832  0.00  0.00    +0.000 C 
ATOM     16  C   UNL     1       2.876   5.668  19.683  0.00  0.00    +0.000 C 
ATOM     17  O   UNL     1       2.270   5.503  18.396  0.00  0.00    +0.000 OA
ENDBRANCH  10  11
ENDBRANCH   1  10
TORSDOF 4
ENDMDL
MODEL 7
REMARK VINA RESULT:      -5.5      2.057      3.020
REMARK  Name = 
REMARK  6 active torsions:
REMARK  status: ('A' for Active; 'I' for Inactive)
REMARK    1  A    between atoms: C_1  and  C_2
REMARK    2  A    between atoms: C_4  and  C_5
REMARK    3  A    between atoms: C_5  and  N_6
REMARK    4  A    between atoms: N_6  and  C_7
REMARK    5  A    between atoms: C_7  and  C_8
REMARK    6  A    between atoms: N_10  and  C_11
REMARK                            x       y       z     vdW  Elec       q    Type
REMARK                         _______ _______ _______ _____ _____    ______ ____
ROOT
ATOM      1  N   UNL     1       6.859   4.868  19.409  0.00  0.00    +0.000 NA
ATOM      2  H   UNL     1       7.230   4.907  20.359  0.00  0.00    +0.000 HD
ENDROOT
BRANCH   1   3
ATOM      3  C   UNL     1       7.517   5.894  18.606  0.00  0.00    +0.000 C 
BRANCH   3   7
ATOM      4  C   UNL     1       6.510   4.153  14.082  0.00  0.00    +0.000 C 
ATOM      5  C   UNL     1       6.443   5.064  15.255  0.00  0.00    +0.000 A 
ATOM      6  N   UNL     1       7.202   4.949  16.325  0.00  0.00    +0.000 NA
ATOM      7  C   UNL     1       6.846   5.914  17.266  0.00  0.00    +0.000 A 
ATOM      8  C   UNL     1       5.867   6.793  16.850  0.00  0.00    +0.000 A 
ATOM      9  S   UNL     1       5.342   6.383  15.266  0.00  0.00    +0.000 S 
ENDBRANCH   3   7
ENDBRANCH   1   3
BRANCH   1  10
ATOM     10  C   UNL     1       5.408   5.015  19.429  0.00  0.00    +0.000 C 
BRANCH  10  11
ATOM     11  C   UNL     1       4.619   3.707  19.179  0.00  0.00    +0.000 C 
ATOM     12  C   UNL     1       3.353   3.573  20.065  0.00  0.00    +0.000 C 
ATOM     13  N   UNL     1       2.127   4.056  19.407  0.00  0.00    +0.000 NA
ATOM     14  C   UNL     1       0.973   3.945  20.283  0.00  0.00    +0.000 C 
ATOM     15  C   UNL     1       1.969   3.302  18.164  0.00  0.00    +0.000 C 
ATOM     16  C   UNL     1       3.141   3.637  17.235  0.00  0.00    +0.000 C 
ATOM     17  O   UNL     1       4.439   3.387  17.786  0.00  0.00    +0.000 OA
ENDBRANCH  10  11
ENDBRANCH   1  10
TORSDOF 4
ENDMDL
MODEL 8
REMARK VINA RESULT:      -5.4      2.009      2.755
REMARK  Name = 
REMARK  6 active torsions:
REMARK  status: ('A' for Active; 'I' for Inactive)
REMARK    1  A    between atoms: C_1  and  C_2
REMARK    2  A    between atoms: C_4  and  C_5
REMARK    3  A    between atoms: C_5  and  N_6
REMARK    4  A    between atoms: N_6  and  C_7
REMARK    5  A    between atoms: C_7  and  C_8
REMARK    6  A    between atoms: N_10  and  C_11
REMARK                            x       y       z     vdW  Elec       q    Type
REMARK                         _______ _______ _______ _____ _____    ______ ____
ROOT
ATOM      1  N   UNL     1       3.171   6.099  18.680  0.00  0.00    +0.000 NA
ATOM      2  H   UNL     1       2.951   6.710  19.467  0.00  0.00    +0.000 HD
ENDROOT
BRANCH   1   3
ATOM      3  C   UNL     1       3.935   6.860  17.695  0.00  0.00    +0.000 C 
BRANCH   3   7
ATOM      4  C   UNL     1       6.930   4.689  14.405  0.00  0.00    +0.000 C 
ATOM      5  C   UNL     1       6.397   5.079  15.736  0.00  0.00    +0.000 A 
ATOM      6  N   UNL     1       5.279   5.750  15.918  0.00  0.00    +0.000 NA
ATOM      7  C   UNL     1       5.098   6.011  17.275  0.00  0.00    +0.000 A 
ATOM      8  C   UNL     1       6.054   5.460  18.103  0.00  0.00    +0.000 A 
ATOM      9  S   UNL     1       7.235   4.633  17.169  0.00  0.00    +0.000 S 
ENDBRANCH   3   7
ENDBRANCH   1   3
BRANCH   1  10
ATOM     10  C   UNL     1       1.948   5.531  18.125  0.00  0.00    +0.000 C 
BRANCH  10  11
ATOM     11  C   UNL     1       1.640   4.084  18.578  0.00  0.00    +0.000 C 
ATOM     12  C   UNL     1       2.900   3.182  18.654  0.00  0.00    +0.000 C 
ATOM     13  N   UNL     1       3.501   3.130  19.997  0.00  0.00    +0.000 NA
ATOM     14  C   UNL     1       4.696   2.304  20.016  0.00  0.00    +0.000 C 
ATOM     15  C   UNL     1       2.471   2.656  20.921  0.00  0.00    +0.000 C 
ATOM     16  C   UNL     1       1.342   3.692  20.971  0.00  0.00    +0.000 C 
ATOM     17  O   UNL     1       0.747   3.998  19.704  0.00  0.00    +0.000 OA
ENDBRANCH  10  11
ENDBRANCH   1  10
TORSDOF 4
ENDMDL
MODEL 9
REMARK VINA RESULT:      -5.4      2.889      5.891
REMARK  Name = 
REMARK  6 active torsions:
REMARK  status: ('A' for Active; 'I' for Inactive)
REMARK    1  A    between atoms: C_1  and  C_2
REMARK    2  A    between atoms: C_4  and  C_5
REMARK    3  A    between atoms: C_5  and  N_6
REMARK    4  A    between atoms: N_6  and  C_7
REMARK    5  A    between atoms: C_7  and  C_8
REMARK    6  A    between atoms: N_10  and  C_11
REMARK                            x       y       z     vdW  Elec       q    Type
REMARK                         _______ _______ _______ _____ _____    ______ ____
ROOT
ATOM      1  N   UNL     1       3.934   6.380  18.279  0.00  0.00    +0.000 NA
ATOM      2  H   UNL     1       4.433   7.257  18.121  0.00  0.00    +0.000 HD
ENDROOT
BRANCH   1   3
ATOM      3  C   UNL     1       2.601   6.686  18.791  0.00  0.00    +0.000 C 
BRANCH   3   7
ATOM      4  C   UNL     1       0.853   2.055  18.669  0.00  0.00    +0.000 C 
ATOM      5  C   UNL     1       1.287   3.350  19.256  0.00  0.00    +0.000 A 
ATOM      6  N   UNL     1       1.640   4.402  18.548  0.00  0.00    +0.000 NA
ATOM      7  C   UNL     1       2.054   5.428  19.397  0.00  0.00    +0.000 A 
ATOM      8  C   UNL     1       1.930   5.150  20.742  0.00  0.00    +0.000 A 
ATOM      9  S   UNL     1       1.327   3.556  20.962  0.00  0.00    +0.000 S 
ENDBRANCH   3   7
ENDBRANCH   1   3
BRANCH   1  10
ATOM     10  C   UNL     1       4.697   5.522  19.178  0.00  0.00    +0.000 C 
BRANCH  10  11
ATOM     11  C   UNL     1       5.430   4.347  18.487  0.00  0.00    +0.000 C 
ATOM     12  C   UNL     1       4.991   4.128  17.015  0.00  0.00    +0.000 C 
ATOM     13  N   UNL     1       5.853   4.815  16.040  0.00  0.00    +0.000 NA
ATOM     14  C   UNL     1       5.386   4.613  14.679  0.00  0.00    +0.000 C 
ATOM     15  C   UNL     1       7.220   4.336  16.247  0.00  0.00    +0.000 C 
ATOM     16  C   UNL     1       7.684   4.767  17.643  0.00  0.00    +0.000 C 
ATOM     17  O   UNL     1       6.852   4.323  18.720  0.00  0.00    +0.000 OA
ENDBRANCH  10  11
ENDBRANCH   1  10
TORSDOF 4
ENDMDL
