MODEL 1
REMARK VINA RESULT:      -8.1      0.000      0.000
REMARK  Name = 
REMARK  4 active torsions:
REMARK  status: ('A' for Active; 'I' for Inactive)
REMARK    1  A    between atoms: C_2  and  C_3
REMARK    2  A    between atoms: C_3  and  N_4
REMARK    3  A    between atoms: N_7  and  C_8
REMARK    4  A    between atoms: C_8  and  C_9
REMARK                            x       y       z     vdW  Elec       q    Type
REMARK                         _______ _______ _______ _____ _____    ______ ____
ROOT
ATOM      1  C   UNL     1       7.938   7.648  18.113  0.00  0.00    +0.000 C 
ENDROOT
BRANCH   1   3
ATOM      2  O   UNL     1       7.488   9.882  17.389  0.00  0.00    +0.000 OA
ATOM      3  C   UNL     1       8.214   9.147  18.063  0.00  0.00    +0.000 C 
ATOM      4  N   UNL     1       9.339   9.564  18.763  0.00  0.00    +0.000 N 
ATOM      5  C   UNL     1       9.706  10.870  18.567  0.00  0.00    +0.000 A 
ATOM      6  N   UNL     1      10.778  11.256  17.927  0.00  0.00    +0.000 NA
ATOM      7  C   UNL     1      10.711  12.630  17.759  0.00  0.00    +0.000 A 
ATOM      8  C   UNL     1      11.556  13.411  16.945  0.00  0.00    +0.000 A 
ATOM      9  C   UNL     1      11.367  14.795  16.865  0.00  0.00    +0.000 A 
ATOM     10  C   UNL     1      10.369  15.415  17.611  0.00  0.00    +0.000 A 
ATOM     11  C   UNL     1       9.516  14.669  18.429  0.00  0.00    +0.000 A 
ATOM     12  C   UNL     1       9.685  13.275  18.464  0.00  0.00    +0.000 A 
ATOM     13  S   UNL     1       8.742  12.086  19.278  0.00  0.00    +0.000 S 
ATOM     14  H   UNL     1      10.099   8.900  18.723  0.00  0.00    +0.000 HD
ENDBRANCH   1   3
BRANCH   1  15
ATOM     15  N   UNL     1       6.935   7.203  17.117  0.00  0.00    +0.000 NA
ATOM     16  C   UNL     1       7.360   5.970  16.405  0.00  0.00    +0.000 C 
ATOM     17  C   UNL     1       7.327   4.680  17.255  0.00  0.00    +0.000 C 
ATOM     18  N   UNL     1       6.021   4.408  17.891  0.00  0.00    +0.000 NA
ATOM     19  C   UNL     1       5.596   5.615  18.629  0.00  0.00    +0.000 C 
ATOM     20  C   UNL     1       5.647   6.931  17.804  0.00  0.00    +0.000 C 
BRANCH  18  21
ATOM     21  C   UNL     1       4.987   3.986  16.926  0.00  0.00    +0.000 C 
BRANCH  21  22
ATOM     22  C   UNL     1       3.694   3.570  17.597  0.00  0.00    +0.000 A 
ATOM     23  C   UNL     1       3.600   2.327  18.246  0.00  0.00    +0.000 A 
ATOM     24  C   UNL     1       2.379   1.891  18.760  0.00  0.00    +0.000 A 
ATOM     25  C   UNL     1       1.256   2.701  18.636  0.00  0.00    +0.000 A 
ATOM     26  F   UNL     1       0.076   2.268  19.099  0.00  0.00    +0.000 F 
ATOM     27  C   UNL     1       1.334   3.948  18.027  0.00  0.00    +0.000 A 
ATOM     28  C   UNL     1       2.554   4.386  17.511  0.00  0.00    +0.000 A 
ENDBRANCH  21  22
ENDBRANCH  18  21
ENDBRANCH   1  15
TORSDOF 4
ENDMDL
MODEL 2
REMARK VINA RESULT:      -7.2      8.420     11.688
REMARK  Name = 
REMARK  4 active torsions:
REMARK  status: ('A' for Active; 'I' for Inactive)
REMARK    1  A    between atoms: C_2  and  C_3
REMARK    2  A    between atoms: C_3  and  N_4
REMARK    3  A    between atoms: N_7  and  C_8
REMARK    4  A    between atoms: C_8  and  C_9
REMARK                            x       y       z     vdW  Elec       q    Type
REMARK                         _______ _______ _______ _____ _____    ______ ____
ROOT
ATOM      1  C   UNL     1       1.286   9.681  19.828  0.00  0.00    +0.000 C 
ENDROOT
BRANCH   1   3
ATOM      2  O   UNL     1       1.774   8.013  18.186  0.00  0.00    +0.000 OA
ATOM      3  C   UNL     1       1.750   8.297  19.387  0.00  0.00    +0.000 C 
ATOM      4  N   UNL     1       2.063   7.422  20.419  0.00  0.00    +0.000 N 
ATOM      5  C   UNL     1       2.292   6.123  20.043  0.00  0.00    +0.000 A 
ATOM      6  N   UNL     1       1.506   5.117  20.318  0.00  0.00    +0.000 NA
ATOM      7  C   UNL     1       1.954   4.011  19.613  0.00  0.00    +0.000 A 
ATOM      8  C   UNL     1       1.273   2.786  19.465  0.00  0.00    +0.000 A 
ATOM      9  C   UNL     1       1.846   1.753  18.714  0.00  0.00    +0.000 A 
ATOM     10  C   UNL     1       3.103   1.914  18.138  0.00  0.00    +0.000 A 
ATOM     11  C   UNL     1       3.804   3.115  18.267  0.00  0.00    +0.000 A 
ATOM     12  C   UNL     1       3.199   4.161  18.983  0.00  0.00    +0.000 A 
ATOM     13  S   UNL     1       3.750   5.774  19.227  0.00  0.00    +0.000 S 
ATOM     14  H   UNL     1       1.465   7.530  21.225  0.00  0.00    +0.000 HD
ENDBRANCH   1   3
BRANCH   1  15
ATOM     15  N   UNL     1      -0.151   9.731  20.188  0.00  0.00    +0.000 NA
ATOM     16  C   UNL     1      -0.405   9.220  21.559  0.00  0.00    +0.000 C 
ATOM     17  C   UNL     1       0.078  10.142  22.700  0.00  0.00    +0.000 C 
ATOM     18  N   UNL     1      -0.446  11.522  22.627  0.00  0.00    +0.000 NA
ATOM     19  C   UNL     1      -0.176  12.058  21.277  0.00  0.00    +0.000 C 
ATOM     20  C   UNL     1      -0.628  11.135  20.111  0.00  0.00    +0.000 C 
BRANCH  18  21
ATOM     21  C   UNL     1      -1.883  11.610  22.953  0.00  0.00    +0.000 C 
BRANCH  21  22
ATOM     22  C   UNL     1      -2.285  12.978  23.466  0.00  0.00    +0.000 A 
ATOM     23  C   UNL     1      -1.305  13.929  23.794  0.00  0.00    +0.000 A 
ATOM     24  C   UNL     1      -1.667  15.142  24.377  0.00  0.00    +0.000 A 
ATOM     25  C   UNL     1      -3.008  15.411  24.622  0.00  0.00    +0.000 A 
ATOM     26  F   UNL     1      -3.354  16.562  25.213  0.00  0.00    +0.000 F 
ATOM     27  C   UNL     1      -3.998  14.498  24.276  0.00  0.00    +0.000 A 
ATOM     28  C   UNL     1      -3.638  13.282  23.693  0.00  0.00    +0.000 A 
ENDBRANCH  21  22
ENDBRANCH  18  21
ENDBRANCH   1  15
TORSDOF 4
ENDMDL
MODEL 3
REMARK VINA RESULT:      -7.2      6.431      8.078
REMARK  Name = 
REMARK  4 active torsions:
REMARK  status: ('A' for Active; 'I' for Inactive)
REMARK    1  A    between atoms: C_2  and  C_3
REMARK    2  A    between atoms: C_3  and  N_4
REMARK    3  A    between atoms: N_7  and  C_8
REMARK    4  A    between atoms: C_8  and  C_9
REMARK                            x       y       z     vdW  Elec       q    Type
REMARK                         _______ _______ _______ _____ _____    ______ ____
ROOT
ATOM      1  C   UNL     1       2.766   4.496  20.469  0.00  0.00    +0.000 C 
ENDROOT
BRANCH   1   3
ATOM      2  O   UNL     1       0.694   5.668  20.691  0.00  0.00    +0.000 OA
ATOM      3  C   UNL     1       1.913   5.759  20.523  0.00  0.00    +0.000 C 
ATOM      4  N   UNL     1       2.601   6.946  20.312  0.00  0.00    +0.000 N 
ATOM      5  C   UNL     1       1.820   8.064  20.164  0.00  0.00    +0.000 A 
ATOM      6  N   UNL     1       1.668   8.726  19.049  0.00  0.00    +0.000 NA
ATOM      7  C   UNL     1       0.662   9.662  19.234  0.00  0.00    +0.000 A 
ATOM      8  C   UNL     1       0.048  10.434  18.227  0.00  0.00    +0.000 A 
ATOM      9  C   UNL     1      -0.965  11.340  18.560  0.00  0.00    +0.000 A 
ATOM     10  C   UNL     1      -1.349  11.511  19.887  0.00  0.00    +0.000 A 
ATOM     11  C   UNL     1      -0.759  10.763  20.908  0.00  0.00    +0.000 A 
ATOM     12  C   UNL     1       0.223   9.822  20.556  0.00  0.00    +0.000 A 
ATOM     13  S   UNL     1       1.051   8.690  21.554  0.00  0.00    +0.000 S 
ATOM     14  H   UNL     1       3.345   6.858  19.635  0.00  0.00    +0.000 HD
ENDBRANCH   1   3
BRANCH   1  15
ATOM     15  N   UNL     1       2.602   3.730  19.211  0.00  0.00    +0.000 NA
ATOM     16  C   UNL     1       2.449   4.617  18.029  0.00  0.00    +0.000 C 
ATOM     17  C   UNL     1       3.732   5.360  17.599  0.00  0.00    +0.000 C 
ATOM     18  N   UNL     1       4.891   4.475  17.353  0.00  0.00    +0.000 NA
ATOM     19  C   UNL     1       5.077   3.604  18.532  0.00  0.00    +0.000 C 
ATOM     20  C   UNL     1       3.793   2.867  19.003  0.00  0.00    +0.000 C 
BRANCH  18  21
ATOM     21  C   UNL     1       4.753   3.674  16.121  0.00  0.00    +0.000 C 
BRANCH  21  22
ATOM     22  C   UNL     1       5.745   4.074  15.048  0.00  0.00    +0.000 A 
ATOM     23  C   UNL     1       6.771   4.990  15.336  0.00  0.00    +0.000 A 
ATOM     24  C   UNL     1       7.611   5.449  14.322  0.00  0.00    +0.000 A 
ATOM     25  C   UNL     1       7.434   4.985  13.025  0.00  0.00    +0.000 A 
ATOM     26  F   UNL     1       8.219   5.451  12.044  0.00  0.00    +0.000 F 
ATOM     27  C   UNL     1       6.447   4.053  12.723  0.00  0.00    +0.000 A 
ATOM     28  C   UNL     1       5.604   3.593  13.735  0.00  0.00    +0.000 A 
ENDBRANCH  21  22
ENDBRANCH  18  21
ENDBRANCH   1  15
TORSDOF 4
ENDMDL
MODEL 4
REMARK VINA RESULT:      -7.2      8.101     11.449
REMARK  Name = 
REMARK  4 active torsions:
REMARK  status: ('A' for Active; 'I' for Inactive)
REMARK    1  A    between atoms: C_2  and  C_3
REMARK    2  A    between atoms: C_3  and  N_4
REMARK    3  A    between atoms: N_7  and  C_8
REMARK    4  A    between atoms: C_8  and  C_9
REMARK                            x       y       z     vdW  Elec       q    Type
REMARK                         _______ _______ _______ _____ _____    ______ ____
ROOT
ATOM      1  C   UNL     1       1.399   9.718  19.329  0.00  0.00    +0.000 C 
ENDROOT
BRANCH   1   3
ATOM      2  O   UNL     1       1.940   7.917  17.854  0.00  0.00    +0.000 OA
ATOM      3  C   UNL     1       1.869   8.300  19.024  0.00  0.00    +0.000 C 
ATOM      4  N   UNL     1       2.131   7.513  20.137  0.00  0.00    +0.000 N 
ATOM      5  C   UNL     1       2.364   6.186  19.880  0.00  0.00    +0.000 A 
ATOM      6  N   UNL     1       1.558   5.211  20.205  0.00  0.00    +0.000 NA
ATOM      7  C   UNL     1       2.025   4.047  19.613  0.00  0.00    +0.000 A 
ATOM      8  C   UNL     1       1.340   2.818  19.539  0.00  0.00    +0.000 A 
ATOM      9  C   UNL     1       1.935   1.723  18.901  0.00  0.00    +0.000 A 
ATOM     10  C   UNL     1       3.215   1.828  18.367  0.00  0.00    +0.000 A 
ATOM     11  C   UNL     1       3.922   3.032  18.426  0.00  0.00    +0.000 A 
ATOM     12  C   UNL     1       3.296   4.138  19.026  0.00  0.00    +0.000 A 
ATOM     13  S   UNL     1       3.851   5.762  19.159  0.00  0.00    +0.000 S 
ATOM     14  H   UNL     1       1.500   7.690  20.906  0.00  0.00    +0.000 HD
ENDBRANCH   1   3
BRANCH   1  15
ATOM     15  N   UNL     1      -0.059   9.813  19.579  0.00  0.00    +0.000 NA
ATOM     16  C   UNL     1      -0.365  10.220  20.975  0.00  0.00    +0.000 C 
ATOM     17  C   UNL     1      -0.048  11.694  21.310  0.00  0.00    +0.000 C 
ATOM     18  N   UNL     1      -0.687  12.671  20.404  0.00  0.00    +0.000 NA
ATOM     19  C   UNL     1      -0.369  12.299  19.010  0.00  0.00    +0.000 C 
ATOM     20  C   UNL     1      -0.652  10.813  18.655  0.00  0.00    +0.000 C 
BRANCH  18  21
ATOM     21  C   UNL     1      -2.145  12.776  20.604  0.00  0.00    +0.000 C 
BRANCH  21  22
ATOM     22  C   UNL     1      -2.513  13.342  21.960  0.00  0.00    +0.000 A 
ATOM     23  C   UNL     1      -1.998  14.582  22.374  0.00  0.00    +0.000 A 
ATOM     24  C   UNL     1      -2.238  15.049  23.666  0.00  0.00    +0.000 A 
ATOM     25  C   UNL     1      -3.001  14.284  24.539  0.00  0.00    +0.000 A 
ATOM     26  F   UNL     1      -3.204  14.716  25.791  0.00  0.00    +0.000 F 
ATOM     27  C   UNL     1      -3.548  13.070  24.140  0.00  0.00    +0.000 A 
ATOM     28  C   UNL     1      -3.308  12.599  22.849  0.00  0.00    +0.000 A 
ENDBRANCH  21  22
ENDBRANCH  18  21
ENDBRANCH   1  15
TORSDOF 4
ENDMDL
MODEL 5
REMARK VINA RESULT:      -7.1      8.231     11.556
REMARK  Name = 
REMARK  4 active torsions:
REMARK  status: ('A' for Active; 'I' for Inactive)
REMARK    1  A    between atoms: C_2  and  C_3
REMARK    2  A    between atoms: C_3  and  N_4
REMARK    3  A    between atoms: N_7  and  C_8
REMARK    4  A    between atoms: C_8  and  C_9
REMARK                            x       y       z     vdW  Elec       q    Type
REMARK                         _______ _______ _______ _____ _____    ______ ____
ROOT
ATOM      1  C   UNL     1       1.339   9.656  19.868  0.00  0.00    +0.000 C 
ENDROOT
BRANCH   1   3
ATOM      2  O   UNL     1       1.751   8.003  18.191  0.00  0.00    +0.000 OA
ATOM      3  C   UNL     1       1.779   8.275  19.394  0.00  0.00    +0.000 C 
ATOM      4  N   UNL     1       2.133   7.389  20.403  0.00  0.00    +0.000 N 
ATOM      5  C   UNL     1       2.342   6.093  20.005  0.00  0.00    +0.000 A 
ATOM      6  N   UNL     1       1.564   5.087  20.305  0.00  0.00    +0.000 NA
ATOM      7  C   UNL     1       1.978   3.987  19.570  0.00  0.00    +0.000 A 
ATOM      8  C   UNL     1       1.288   2.765  19.440  0.00  0.00    +0.000 A 
ATOM      9  C   UNL     1       1.824   1.738  18.656  0.00  0.00    +0.000 A 
ATOM     10  C   UNL     1       3.056   1.900  18.028  0.00  0.00    +0.000 A 
ATOM     11  C   UNL     1       3.766   3.098  18.138  0.00  0.00    +0.000 A 
ATOM     12  C   UNL     1       3.195   4.139  18.889  0.00  0.00    +0.000 A 
ATOM     13  S   UNL     1       3.762   5.747  19.125  0.00  0.00    +0.000 S 
ATOM     14  H   UNL     1       1.570   7.491  21.235  0.00  0.00    +0.000 HD
ENDBRANCH   1   3
BRANCH   1  15
ATOM     15  N   UNL     1      -0.101   9.726  20.214  0.00  0.00    +0.000 NA
ATOM     16  C   UNL     1      -0.389   9.125  21.541  0.00  0.00    +0.000 C 
ATOM     17  C   UNL     1       0.108   9.945  22.752  0.00  0.00    +0.000 C 
ATOM     18  N   UNL     1      -0.372  11.343  22.774  0.00  0.00    +0.000 NA
ATOM     19  C   UNL     1      -0.067  11.967  21.470  0.00  0.00    +0.000 C 
ATOM     20  C   UNL     1      -0.532  11.147  20.235  0.00  0.00    +0.000 C 
BRANCH  18  21
ATOM     21  C   UNL     1      -1.809  11.454  23.090  0.00  0.00    +0.000 C 
BRANCH  21  22
ATOM     22  C   UNL     1      -2.310  12.884  23.050  0.00  0.00    +0.000 A 
ATOM     23  C   UNL     1      -3.383  13.236  22.214  0.00  0.00    +0.000 A 
ATOM     24  C   UNL     1      -3.768  14.570  22.086  0.00  0.00    +0.000 A 
ATOM     25  C   UNL     1      -3.090  15.549  22.801  0.00  0.00    +0.000 A 
ATOM     26  F   UNL     1      -3.437  16.835  22.652  0.00  0.00    +0.000 F 
ATOM     27  C   UNL     1      -2.047  15.220  23.658  0.00  0.00    +0.000 A 
ATOM     28  C   UNL     1      -1.658  13.886  23.788  0.00  0.00    +0.000 A 
ENDBRANCH  21  22
ENDBRANCH  18  21
ENDBRANCH   1  15
TORSDOF 4
ENDMDL
MODEL 6
REMARK VINA RESULT:      -7.1      6.390      8.316
REMARK  Name = 
REMARK  4 active torsions:
REMARK  status: ('A' for Active; 'I' for Inactive)
REMARK    1  A    between atoms: C_2  and  C_3
REMARK    2  A    between atoms: C_3  and  N_4
REMARK    3  A    between atoms: N_7  and  C_8
REMARK    4  A    between atoms: C_8  and  C_9
REMARK                            x       y       z     vdW  Elec       q    Type
REMARK                         _______ _______ _______ _____ _____    ______ ____
ROOT
ATOM      1  C   UNL     1       2.957   6.442  20.172  0.00  0.00    +0.000 C 
ENDROOT
BRANCH   1   3
ATOM      2  O   UNL     1       0.882   7.385  20.892  0.00  0.00    +0.000 OA
ATOM      3  C   UNL     1       1.874   7.515  20.170  0.00  0.00    +0.000 C 
ATOM      4  N   UNL     1       2.079   8.559  19.277  0.00  0.00    +0.000 N 
ATOM      5  C   UNL     1       1.024   9.423  19.126  0.00  0.00    +0.000 A 
ATOM      6  N   UNL     1       0.292   9.525  18.050  0.00  0.00    +0.000 NA
ATOM      7  C   UNL     1      -0.788  10.346  18.337  0.00  0.00    +0.000 A 
ATOM      8  C   UNL     1      -1.921  10.547  17.522  0.00  0.00    +0.000 A 
ATOM      9  C   UNL     1      -2.943  11.404  17.944  0.00  0.00    +0.000 A 
ATOM     10  C   UNL     1      -2.836  12.089  19.151  0.00  0.00    +0.000 A 
ATOM     11  C   UNL     1      -1.725  11.912  19.981  0.00  0.00    +0.000 A 
ATOM     12  C   UNL     1      -0.728  11.013  19.569  0.00  0.00    +0.000 A 
ATOM     13  S   UNL     1       0.690  10.505  20.403  0.00  0.00    +0.000 S 
ATOM     14  H   UNL     1       2.509   8.263  18.413  0.00  0.00    +0.000 HD
ENDBRANCH   1   3
BRANCH   1  15
ATOM     15  N   UNL     1       2.710   5.356  19.194  0.00  0.00    +0.000 NA
ATOM     16  C   UNL     1       2.823   5.829  17.790  0.00  0.00    +0.000 C 
ATOM     17  C   UNL     1       4.260   6.144  17.320  0.00  0.00    +0.000 C 
ATOM     18  N   UNL     1       5.214   5.030  17.500  0.00  0.00    +0.000 NA
ATOM     19  C   UNL     1       5.137   4.566  18.901  0.00  0.00    +0.000 C 
ATOM     20  C   UNL     1       3.698   4.268  19.407  0.00  0.00    +0.000 C 
BRANCH  18  21
ATOM     21  C   UNL     1       4.984   3.916  16.561  0.00  0.00    +0.000 C 
BRANCH  21  22
ATOM     22  C   UNL     1       5.754   4.072  15.265  0.00  0.00    +0.000 A 
ATOM     23  C   UNL     1       6.891   4.896  15.211  0.00  0.00    +0.000 A 
ATOM     24  C   UNL     1       7.531   5.135  13.996  0.00  0.00    +0.000 A 
ATOM     25  C   UNL     1       7.043   4.542  12.838  0.00  0.00    +0.000 A 
ATOM     26  F   UNL     1       7.637   4.798  11.665  0.00  0.00    +0.000 F 
ATOM     27  C   UNL     1       5.940   3.697  12.873  0.00  0.00    +0.000 A 
ATOM     28  C   UNL     1       5.297   3.457  14.088  0.00  0.00    +0.000 A 
ENDBRANCH  21  22
ENDBRANCH  18  21
ENDBRANCH   1  15
TORSDOF 4
ENDMDL
MODEL 7
REMARK VINA RESULT:      -7.1      8.202     11.468
REMARK  Name = 
REMARK  4 active torsions:
REMARK  status: ('A' for Active; 'I' for Inactive)
REMARK    1  A    between atoms: C_2  and  C_3
REMARK    2  A    between atoms: C_3  and  N_4
REMARK    3  A    between atoms: N_7  and  C_8
REMARK    4  A    between atoms: C_8  and  C_9
REMARK                            x       y       z     vdW  Elec       q    Type
REMARK                         _______ _______ _______ _____ _____    ______ ____
ROOT
ATOM      1  C   UNL     1       1.442   9.863  18.941  0.00  0.00    +0.000 C 
ENDROOT
BRANCH   1   3
ATOM      2  O   UNL     1       1.817   7.953  17.553  0.00  0.00    +0.000 OA
ATOM      3  C   UNL     1       1.872   8.421  18.693  0.00  0.00    +0.000 C 
ATOM      4  N   UNL     1       2.249   7.714  19.827  0.00  0.00    +0.000 N 
ATOM      5  C   UNL     1       2.448   6.370  19.645  0.00  0.00    +0.000 A 
ATOM      6  N   UNL     1       1.678   5.430  20.124  0.00  0.00    +0.000 NA
ATOM      7  C   UNL     1       2.076   4.221  19.573  0.00  0.00    +0.000 A 
ATOM      8  C   UNL     1       1.383   2.997  19.663  0.00  0.00    +0.000 A 
ATOM      9  C   UNL     1       1.902   1.852  19.048  0.00  0.00    +0.000 A 
ATOM     10  C   UNL     1       3.120   1.904  18.375  0.00  0.00    +0.000 A 
ATOM     11  C   UNL     1       3.832   3.101  18.270  0.00  0.00    +0.000 A 
ATOM     12  C   UNL     1       3.277   4.254  18.850  0.00  0.00    +0.000 A 
ATOM     13  S   UNL     1       3.849   5.877  18.803  0.00  0.00    +0.000 S 
ATOM     14  H   UNL     1       1.704   7.954  20.643  0.00  0.00    +0.000 HD
ENDBRANCH   1   3
BRANCH   1  15
ATOM     15  N   UNL     1      -0.009  10.005  19.210  0.00  0.00    +0.000 NA
ATOM     16  C   UNL     1      -0.359   9.638  20.606  0.00  0.00    +0.000 C 
ATOM     17  C   UNL     1       0.104  10.643  21.683  0.00  0.00    +0.000 C 
ATOM     18  N   UNL     1      -0.352  12.030  21.452  0.00  0.00    +0.000 NA
ATOM     19  C   UNL     1       0.014  12.424  20.076  0.00  0.00    +0.000 C 
ATOM     20  C   UNL     1      -0.416  11.414  18.977  0.00  0.00    +0.000 C 
BRANCH  18  21
ATOM     21  C   UNL     1      -1.799  12.207  21.685  0.00  0.00    +0.000 C 
BRANCH  21  22
ATOM     22  C   UNL     1      -2.097  13.117  22.859  0.00  0.00    +0.000 A 
ATOM     23  C   UNL     1      -3.402  13.209  23.371  0.00  0.00    +0.000 A 
ATOM     24  C   UNL     1      -3.704  14.132  24.372  0.00  0.00    +0.000 A 
ATOM     25  C   UNL     1      -2.699  14.953  24.869  0.00  0.00    +0.000 A 
ATOM     26  F   UNL     1      -2.995  15.863  25.807  0.00  0.00    +0.000 F 
ATOM     27  C   UNL     1      -1.394  14.857  24.401  0.00  0.00    +0.000 A 
ATOM     28  C   UNL     1      -1.091  13.935  23.398  0.00  0.00    +0.000 A 
ENDBRANCH  21  22
ENDBRANCH  18  21
ENDBRANCH   1  15
TORSDOF 4
ENDMDL
MODEL 8
REMARK VINA RESULT:      -6.9      6.182      8.979
REMARK  Name = 
REMARK  4 active torsions:
REMARK  status: ('A' for Active; 'I' for Inactive)
REMARK    1  A    between atoms: C_2  and  C_3
REMARK    2  A    between atoms: C_3  and  N_4
REMARK    3  A    between atoms: N_7  and  C_8
REMARK    4  A    between atoms: C_8  and  C_9
REMARK                            x       y       z     vdW  Elec       q    Type
REMARK                         _______ _______ _______ _____ _____    ______ ____
ROOT
ATOM      1  C   UNL     1       2.361   8.064  19.512  0.00  0.00    +0.000 C 
ENDROOT
BRANCH   1   3
ATOM      2  O   UNL     1       0.364   8.808  20.595  0.00  0.00    +0.000 OA
ATOM      3  C   UNL     1       1.091   8.903  19.602  0.00  0.00    +0.000 C 
ATOM      4  N   UNL     1       0.822   9.690  18.490  0.00  0.00    +0.000 N 
ATOM      5  C   UNL     1      -0.409  10.294  18.478  0.00  0.00    +0.000 A 
ATOM      6  N   UNL     1      -1.385   9.982  17.668  0.00  0.00    +0.000 NA
ATOM      7  C   UNL     1      -2.523  10.659  18.081  0.00  0.00    +0.000 A 
ATOM      8  C   UNL     1      -3.835  10.445  17.612  0.00  0.00    +0.000 A 
ATOM      9  C   UNL     1      -4.894  11.201  18.125  0.00  0.00    +0.000 A 
ATOM     10  C   UNL     1      -4.658  12.191  19.075  0.00  0.00    +0.000 A 
ATOM     11  C   UNL     1      -3.369  12.429  19.559  0.00  0.00    +0.000 A 
ATOM     12  C   UNL     1      -2.321  11.631  19.071  0.00  0.00    +0.000 A 
ATOM     13  S   UNL     1      -0.664  11.606  19.539  0.00  0.00    +0.000 S 
ATOM     14  H   UNL     1       1.085   9.249  17.620  0.00  0.00    +0.000 HD
ENDBRANCH   1   3
BRANCH   1  15
ATOM     15  N   UNL     1       2.239   6.912  18.588  0.00  0.00    +0.000 NA
ATOM     16  C   UNL     1       3.250   6.954  17.501  0.00  0.00    +0.000 C 
ATOM     17  C   UNL     1       4.699   6.653  17.944  0.00  0.00    +0.000 C 
ATOM     18  N   UNL     1       4.859   5.370  18.661  0.00  0.00    +0.000 NA
ATOM     19  C   UNL     1       3.879   5.322  19.765  0.00  0.00    +0.000 C 
ATOM     20  C   UNL     1       2.418   5.650  19.350  0.00  0.00    +0.000 C 
BRANCH  18  21
ATOM     21  C   UNL     1       4.718   4.195  17.778  0.00  0.00    +0.000 C 
BRANCH  21  22
ATOM     22  C   UNL     1       5.522   4.321  16.500  0.00  0.00    +0.000 A 
ATOM     23  C   UNL     1       6.870   4.711  16.547  0.00  0.00    +0.000 A 
ATOM     24  C   UNL     1       7.578   4.943  15.368  0.00  0.00    +0.000 A 
ATOM     25  C   UNL     1       6.942   4.774  14.144  0.00  0.00    +0.000 A 
ATOM     26  F   UNL     1       7.611   5.029  13.012  0.00  0.00    +0.000 F 
ATOM     27  C   UNL     1       5.618   4.357  14.074  0.00  0.00    +0.000 A 
ATOM     28  C   UNL     1       4.907   4.126  15.252  0.00  0.00    +0.000 A 
ENDBRANCH  21  22
ENDBRANCH  18  21
ENDBRANCH   1  15
TORSDOF 4
ENDMDL
MODEL 9
REMARK VINA RESULT:      -6.9      4.347     11.066
REMARK  Name = 
REMARK  4 active torsions:
REMARK  status: ('A' for Active; 'I' for Inactive)
REMARK    1  A    between atoms: C_2  and  C_3
REMARK    2  A    between atoms: C_3  and  N_4
REMARK    3  A    between atoms: N_7  and  C_8
REMARK    4  A    between atoms: C_8  and  C_9
REMARK                            x       y       z     vdW  Elec       q    Type
REMARK                         _______ _______ _______ _____ _____    ______ ____
ROOT
ATOM      1  C   UNL     1       9.051   9.208  18.220  0.00  0.00    +0.000 C 
ENDROOT
BRANCH   1   3
ATOM      2  O   UNL     1       7.044   8.438  17.174  0.00  0.00    +0.000 OA
ATOM      3  C   UNL     1       8.007   8.147  17.888  0.00  0.00    +0.000 C 
ATOM      4  N   UNL     1       8.208   6.912  18.490  0.00  0.00    +0.000 N 
ATOM      5  C   UNL     1       7.179   6.016  18.358  0.00  0.00    +0.000 A 
ATOM      6  N   UNL     1       6.404   5.621  19.332  0.00  0.00    +0.000 NA
ATOM      7  C   UNL     1       5.367   4.879  18.787  0.00  0.00    +0.000 A 
ATOM      8  C   UNL     1       4.208   4.447  19.462  0.00  0.00    +0.000 A 
ATOM      9  C   UNL     1       3.236   3.707  18.781  0.00  0.00    +0.000 A 
ATOM     10  C   UNL     1       3.420   3.362  17.445  0.00  0.00    +0.000 A 
ATOM     11  C   UNL     1       4.559   3.773  16.748  0.00  0.00    +0.000 A 
ATOM     12  C   UNL     1       5.505   4.556  17.429  0.00  0.00    +0.000 A 
ATOM     13  S   UNL     1       6.939   5.295  16.829  0.00  0.00    +0.000 S 
ATOM     14  H   UNL     1       8.590   6.983  19.422  0.00  0.00    +0.000 HD
ENDBRANCH   1   3
BRANCH   1  15
ATOM     15  N   UNL     1       8.481  10.408  18.875  0.00  0.00    +0.000 NA
ATOM     16  C   UNL     1       9.128  10.696  20.181  0.00  0.00    +0.000 C 
ATOM     17  C   UNL     1      10.573  11.234  20.090  0.00  0.00    +0.000 C 
ATOM     18  N   UNL     1      10.720  12.433  19.238  0.00  0.00    +0.000 NA
ATOM     19  C   UNL     1      10.107  12.154  17.923  0.00  0.00    +0.000 C 
ATOM     20  C   UNL     1       8.663  11.586  17.988  0.00  0.00    +0.000 C 
BRANCH  18  21
ATOM     21  C   UNL     1      10.140  13.646  19.845  0.00  0.00    +0.000 C 
BRANCH  21  22
ATOM     22  C   UNL     1      10.570  14.917  19.142  0.00  0.00    +0.000 A 
ATOM     23  C   UNL     1       9.618  15.735  18.511  0.00  0.00    +0.000 A 
ATOM     24  C   UNL     1      10.022  16.840  17.763  0.00  0.00    +0.000 A 
ATOM     25  C   UNL     1      11.376  17.135  17.655  0.00  0.00    +0.000 A 
ATOM     26  F   UNL     1      11.768  18.176  16.909  0.00  0.00    +0.000 F 
ATOM     27  C   UNL     1      12.333  16.358  18.298  0.00  0.00    +0.000 A 
ATOM     28  C   UNL     1      11.932  15.251  19.046  0.00  0.00    +0.000 A 
ENDBRANCH  21  22
ENDBRANCH  18  21
ENDBRANCH   1  15
TORSDOF 4
ENDMDL
