MODEL 1
REMARK VINA RESULT:      -8.2      0.000      0.000
REMARK  Name = 
REMARK  5 active torsions:
REMARK  status: ('A' for Active; 'I' for Inactive)
REMARK    1  A    between atoms: C_1  and  C_2
REMARK    2  A    between atoms: C_4  and  N_5
REMARK    3  A    between atoms: N_5  and  C_6
REMARK    4  A    between atoms: N_5  and  C_7
REMARK    5  A    between atoms: N_14  and  C_15
REMARK                            x       y       z     vdW  Elec       q    Type
REMARK                         _______ _______ _______ _____ _____    ______ ____
ROOT
ATOM      1  N   UNL     1       5.463   5.047  18.344  0.00  0.00    +0.000 N 
ATOM      2  C   UNL     1       6.551   5.143  19.339  0.00  0.00    +0.000 C 
ENDROOT
BRANCH   1   6
ATOM      3  C   UNL     1       1.935   8.549  18.574  0.00  0.00    +0.000 C 
ATOM      4  C   UNL     1       2.430   7.165  18.863  0.00  0.00    +0.000 A 
ATOM      5  C   UNL     1       3.670   6.733  18.415  0.00  0.00    +0.000 A 
ATOM      6  C   UNL     1       4.154   5.457  18.761  0.00  0.00    +0.000 A 
ATOM      7  C   UNL     1       3.293   4.628  19.560  0.00  0.00    +0.000 A 
ATOM      8  C   UNL     1       3.599   3.330  20.060  0.00  0.00    +0.000 A 
ATOM      9  C   UNL     1       2.670   2.565  20.771  0.00  0.00    +0.000 A 
ATOM     10  C   UNL     1       1.421   3.093  21.053  0.00  0.00    +0.000 A 
ATOM     11  C   UNL     1       1.122   4.385  20.634  0.00  0.00    +0.000 A 
ATOM     12  C   UNL     1       2.021   5.152  19.907  0.00  0.00    +0.000 A 
ATOM     13  N   UNL     1       1.612   6.382  19.583  0.00  0.00    +0.000 NA
ENDBRANCH   1   6
BRANCH   1  14
ATOM     14  C   UNL     1       5.969   4.975  17.010  0.00  0.00    +0.000 A 
ATOM     15  C   UNL     1       7.082   5.711  16.574  0.00  0.00    +0.000 A 
ATOM     16  N   UNL     1       7.609   5.747  15.319  0.00  0.00    +0.000 NA
ATOM     17  C   UNL     1       6.958   4.946  14.452  0.00  0.00    +0.000 A 
ATOM     18  C   UNL     1       5.871   4.127  14.735  0.00  0.00    +0.000 A 
ATOM     19  C   UNL     1       5.539   3.438  13.539  0.00  0.00    +0.000 A 
ATOM     20  C   UNL     1       6.405   3.872  12.556  0.00  0.00    +0.000 A 
ATOM     21  N   UNL     1       7.245   4.800  13.120  0.00  0.00    +0.000 N 
ATOM     22  C   UNL     1       8.261   5.545  12.423  0.00  0.00    +0.000 C 
ATOM     23  C   UNL     1       5.359   4.154  16.042  0.00  0.00    +0.000 A 
ENDBRANCH   1  14
TORSDOF 2
ENDMDL
MODEL 2
REMARK VINA RESULT:      -8.2      0.983      1.001
REMARK  Name = 
REMARK  5 active torsions:
REMARK  status: ('A' for Active; 'I' for Inactive)
REMARK    1  A    between atoms: C_1  and  C_2
REMARK    2  A    between atoms: C_4  and  N_5
REMARK    3  A    between atoms: N_5  and  C_6
REMARK    4  A    between atoms: N_5  and  C_7
REMARK    5  A    between atoms: N_14  and  C_15
REMARK                            x       y       z     vdW  Elec       q    Type
REMARK                         _______ _______ _______ _____ _____    ______ ____
ROOT
ATOM      1  N   UNL     1       5.530   4.948  18.419  0.00  0.00    +0.000 N 
ATOM      2  C   UNL     1       6.589   5.326  19.378  0.00  0.00    +0.000 C 
ENDROOT
BRANCH   1   6
ATOM      3  C   UNL     1       1.862   7.816  20.178  0.00  0.00    +0.000 C 
ATOM      4  C   UNL     1       2.380   6.492  19.703  0.00  0.00    +0.000 A 
ATOM      5  C   UNL     1       3.674   6.353  19.223  0.00  0.00    +0.000 A 
ATOM      6  C   UNL     1       4.171   5.088  18.855  0.00  0.00    +0.000 A 
ATOM      7  C   UNL     1       3.268   3.974  18.969  0.00  0.00    +0.000 A 
ATOM      8  C   UNL     1       3.574   2.611  18.697  0.00  0.00    +0.000 A 
ATOM      9  C   UNL     1       2.609   1.601  18.766  0.00  0.00    +0.000 A 
ATOM     10  C   UNL     1       1.319   1.912  19.161  0.00  0.00    +0.000 A 
ATOM     11  C   UNL     1       1.013   3.226  19.497  0.00  0.00    +0.000 A 
ATOM     12  C   UNL     1       1.949   4.247  19.413  0.00  0.00    +0.000 A 
ATOM     13  N   UNL     1       1.526   5.460  19.781  0.00  0.00    +0.000 NA
ENDBRANCH   1   6
BRANCH   1  14
ATOM     14  C   UNL     1       6.015   4.919  17.076  0.00  0.00    +0.000 A 
ATOM     15  C   UNL     1       7.099   5.695  16.639  0.00  0.00    +0.000 A 
ATOM     16  N   UNL     1       7.605   5.773  15.376  0.00  0.00    +0.000 NA
ATOM     17  C   UNL     1       6.961   4.973  14.503  0.00  0.00    +0.000 A 
ATOM     18  C   UNL     1       5.902   4.117  14.785  0.00  0.00    +0.000 A 
ATOM     19  C   UNL     1       5.570   3.445  13.580  0.00  0.00    +0.000 A 
ATOM     20  C   UNL     1       6.407   3.925  12.593  0.00  0.00    +0.000 A 
ATOM     21  N   UNL     1       7.230   4.864  13.164  0.00  0.00    +0.000 N 
ATOM     22  C   UNL     1       8.213   5.651  12.466  0.00  0.00    +0.000 C 
ATOM     23  C   UNL     1       5.412   4.103  16.101  0.00  0.00    +0.000 A 
ENDBRANCH   1  14
TORSDOF 2
ENDMDL
MODEL 3
REMARK VINA RESULT:      -7.6      1.983      7.031
REMARK  Name = 
REMARK  5 active torsions:
REMARK  status: ('A' for Active; 'I' for Inactive)
REMARK    1  A    between atoms: C_1  and  C_2
REMARK    2  A    between atoms: C_4  and  N_5
REMARK    3  A    between atoms: N_5  and  C_6
REMARK    4  A    between atoms: N_5  and  C_7
REMARK    5  A    between atoms: N_14  and  C_15
REMARK                            x       y       z     vdW  Elec       q    Type
REMARK                         _______ _______ _______ _____ _____    ______ ____
ROOT
ATOM      1  N   UNL     1       3.600   5.238  18.626  0.00  0.00    +0.000 N 
ATOM      2  C   UNL     1       2.713   4.156  18.152  0.00  0.00    +0.000 C 
ENDROOT
BRANCH   1   6
ATOM      3  C   UNL     1       8.384   5.570  19.956  0.00  0.00    +0.000 C 
ATOM      4  C   UNL     1       7.322   5.301  18.933  0.00  0.00    +0.000 A 
ATOM      5  C   UNL     1       5.976   5.325  19.267  0.00  0.00    +0.000 A 
ATOM      6  C   UNL     1       4.988   5.148  18.279  0.00  0.00    +0.000 A 
ATOM      7  C   UNL     1       5.444   4.911  16.936  0.00  0.00    +0.000 A 
ATOM      8  C   UNL     1       4.624   4.753  15.784  0.00  0.00    +0.000 A 
ATOM      9  C   UNL     1       5.154   4.452  14.525  0.00  0.00    +0.000 A 
ATOM     10  C   UNL     1       6.525   4.352  14.366  0.00  0.00    +0.000 A 
ATOM     11  C   UNL     1       7.352   4.569  15.463  0.00  0.00    +0.000 A 
ATOM     12  C   UNL     1       6.845   4.845  16.725  0.00  0.00    +0.000 A 
ATOM     13  N   UNL     1       7.751   5.049  17.687  0.00  0.00    +0.000 NA
ENDBRANCH   1   6
BRANCH   1  14
ATOM     14  C   UNL     1       2.865   6.411  18.978  0.00  0.00    +0.000 A 
ATOM     15  C   UNL     1       2.218   6.565  20.214  0.00  0.00    +0.000 A 
ATOM     16  N   UNL     1       1.458   7.618  20.624  0.00  0.00    +0.000 NA
ATOM     17  C   UNL     1       1.378   8.599  19.703  0.00  0.00    +0.000 A 
ATOM     18  C   UNL     1       1.992   8.617  18.455  0.00  0.00    +0.000 A 
ATOM     19  C   UNL     1       1.666   9.857  17.843  0.00  0.00    +0.000 A 
ATOM     20  C   UNL     1       0.845  10.545  18.712  0.00  0.00    +0.000 A 
ATOM     21  N   UNL     1       0.664   9.762  19.825  0.00  0.00    +0.000 N 
ATOM     22  C   UNL     1      -0.177  10.084  20.949  0.00  0.00    +0.000 C 
ATOM     23  C   UNL     1       2.741   7.490  18.083  0.00  0.00    +0.000 A 
ENDBRANCH   1  14
TORSDOF 2
ENDMDL
MODEL 4
REMARK VINA RESULT:      -7.5      3.543      7.353
REMARK  Name = 
REMARK  5 active torsions:
REMARK  status: ('A' for Active; 'I' for Inactive)
REMARK    1  A    between atoms: C_1  and  C_2
REMARK    2  A    between atoms: C_4  and  N_5
REMARK    3  A    between atoms: N_5  and  C_6
REMARK    4  A    between atoms: N_5  and  C_7
REMARK    5  A    between atoms: N_14  and  C_15
REMARK                            x       y       z     vdW  Elec       q    Type
REMARK                         _______ _______ _______ _____ _____    ______ ____
ROOT
ATOM      1  N   UNL     1       2.740   7.163  18.357  0.00  0.00    +0.000 N 
ATOM      2  C   UNL     1       3.014   7.875  17.091  0.00  0.00    +0.000 C 
ENDROOT
BRANCH   1   6
ATOM      3  C   UNL     1       7.240   5.275  19.327  0.00  0.00    +0.000 C 
ATOM      4  C   UNL     1       5.761   5.115  19.149  0.00  0.00    +0.000 A 
ATOM      5  C   UNL     1       4.941   6.208  18.909  0.00  0.00    +0.000 A 
ATOM      6  C   UNL     1       3.565   6.032  18.665  0.00  0.00    +0.000 A 
ATOM      7  C   UNL     1       3.060   4.687  18.713  0.00  0.00    +0.000 A 
ATOM      8  C   UNL     1       1.722   4.279  18.454  0.00  0.00    +0.000 A 
ATOM      9  C   UNL     1       1.304   2.953  18.595  0.00  0.00    +0.000 A 
ATOM     10  C   UNL     1       2.222   1.979  18.949  0.00  0.00    +0.000 A 
ATOM     11  C   UNL     1       3.551   2.341  19.142  0.00  0.00    +0.000 A 
ATOM     12  C   UNL     1       3.982   3.656  19.030  0.00  0.00    +0.000 A 
ATOM     13  N   UNL     1       5.288   3.862  19.225  0.00  0.00    +0.000 NA
ENDBRANCH   1   6
BRANCH   1  14
ATOM     14  C   UNL     1       1.993   7.971  19.268  0.00  0.00    +0.000 A 
ATOM     15  C   UNL     1       1.797   7.622  20.613  0.00  0.00    +0.000 A 
ATOM     16  N   UNL     1       1.066   8.296  21.544  0.00  0.00    +0.000 NA
ATOM     17  C   UNL     1       0.516   9.428  21.062  0.00  0.00    +0.000 A 
ATOM     18  C   UNL     1       0.650   9.932  19.772  0.00  0.00    +0.000 A 
ATOM     19  C   UNL     1      -0.062  11.159  19.723  0.00  0.00    +0.000 A 
ATOM     20  C   UNL     1      -0.632  11.358  20.963  0.00  0.00    +0.000 A 
ATOM     21  N   UNL     1      -0.289  10.292  21.757  0.00  0.00    +0.000 N 
ATOM     22  C   UNL     1      -0.730  10.078  23.111  0.00  0.00    +0.000 C 
ATOM     23  C   UNL     1       1.395   9.176  18.854  0.00  0.00    +0.000 A 
ENDBRANCH   1  14
TORSDOF 2
ENDMDL
MODEL 5
REMARK VINA RESULT:      -7.4      2.077      7.098
REMARK  Name = 
REMARK  5 active torsions:
REMARK  status: ('A' for Active; 'I' for Inactive)
REMARK    1  A    between atoms: C_1  and  C_2
REMARK    2  A    between atoms: C_4  and  N_5
REMARK    3  A    between atoms: N_5  and  C_6
REMARK    4  A    between atoms: N_5  and  C_7
REMARK    5  A    between atoms: N_14  and  C_15
REMARK                            x       y       z     vdW  Elec       q    Type
REMARK                         _______ _______ _______ _____ _____    ______ ____
ROOT
ATOM      1  N   UNL     1       3.548   5.379  18.504  0.00  0.00    +0.000 N 
ATOM      2  C   UNL     1       2.649   4.300  18.045  0.00  0.00    +0.000 C 
ENDROOT
BRANCH   1   6
ATOM      3  C   UNL     1       8.295   5.597  19.979  0.00  0.00    +0.000 C 
ATOM      4  C   UNL     1       7.258   5.341  18.928  0.00  0.00    +0.000 A 
ATOM      5  C   UNL     1       5.904   5.409  19.219  0.00  0.00    +0.000 A 
ATOM      6  C   UNL     1       4.943   5.244  18.203  0.00  0.00    +0.000 A 
ATOM      7  C   UNL     1       5.434   4.970  16.879  0.00  0.00    +0.000 A 
ATOM      8  C   UNL     1       4.646   4.816  15.704  0.00  0.00    +0.000 A 
ATOM      9  C   UNL     1       5.206   4.478  14.468  0.00  0.00    +0.000 A 
ATOM     10  C   UNL     1       6.578   4.337  14.354  0.00  0.00    +0.000 A 
ATOM     11  C   UNL     1       7.376   4.549  15.473  0.00  0.00    +0.000 A 
ATOM     12  C   UNL     1       6.838   4.861  16.714  0.00  0.00    +0.000 A 
ATOM     13  N   UNL     1       7.719   5.055  17.701  0.00  0.00    +0.000 NA
ENDBRANCH   1   6
BRANCH   1  14
ATOM     14  C   UNL     1       2.831   6.582  18.787  0.00  0.00    +0.000 A 
ATOM     15  C   UNL     1       2.660   7.609  17.846  0.00  0.00    +0.000 A 
ATOM     16  N   UNL     1       2.038   8.806  18.033  0.00  0.00    +0.000 NA
ATOM     17  C   UNL     1       1.531   8.948  19.274  0.00  0.00    +0.000 A 
ATOM     18  C   UNL     1       1.580   8.012  20.302  0.00  0.00    +0.000 A 
ATOM     19  C   UNL     1       0.889   8.568  21.411  0.00  0.00    +0.000 A 
ATOM     20  C   UNL     1       0.466   9.829  21.046  0.00  0.00    +0.000 A 
ATOM     21  N   UNL     1       0.880  10.052  19.756  0.00  0.00    +0.000 N 
ATOM     22  C   UNL     1       0.695  11.273  19.015  0.00  0.00    +0.000 C 
ATOM     23  C   UNL     1       2.258   6.808  20.053  0.00  0.00    +0.000 A 
ENDBRANCH   1  14
TORSDOF 2
ENDMDL
MODEL 6
REMARK VINA RESULT:      -7.4      1.908      6.684
REMARK  Name = 
REMARK  5 active torsions:
REMARK  status: ('A' for Active; 'I' for Inactive)
REMARK    1  A    between atoms: C_1  and  C_2
REMARK    2  A    between atoms: C_4  and  N_5
REMARK    3  A    between atoms: N_5  and  C_6
REMARK    4  A    between atoms: N_5  and  C_7
REMARK    5  A    between atoms: N_14  and  C_15
REMARK                            x       y       z     vdW  Elec       q    Type
REMARK                         _______ _______ _______ _____ _____    ______ ____
ROOT
ATOM      1  N   UNL     1       3.706   6.641  17.603  0.00  0.00    +0.000 N 
ATOM      2  C   UNL     1       2.999   7.939  17.598  0.00  0.00    +0.000 C 
ENDROOT
BRANCH   1   6
ATOM      3  C   UNL     1       8.286   8.553  17.960  0.00  0.00    +0.000 C 
ATOM      4  C   UNL     1       7.316   7.570  17.378  0.00  0.00    +0.000 A 
ATOM      5  C   UNL     1       5.998   7.517  17.806  0.00  0.00    +0.000 A 
ATOM      6  C   UNL     1       5.080   6.642  17.194  0.00  0.00    +0.000 A 
ATOM      7  C   UNL     1       5.584   5.796  16.146  0.00  0.00    +0.000 A 
ATOM      8  C   UNL     1       4.825   4.878  15.367  0.00  0.00    +0.000 A 
ATOM      9  C   UNL     1       5.415   4.042  14.414  0.00  0.00    +0.000 A 
ATOM     10  C   UNL     1       6.774   4.134  14.169  0.00  0.00    +0.000 A 
ATOM     11  C   UNL     1       7.526   5.072  14.870  0.00  0.00    +0.000 A 
ATOM     12  C   UNL     1       6.964   5.894  15.836  0.00  0.00    +0.000 A 
ATOM     13  N   UNL     1       7.796   6.761  16.421  0.00  0.00    +0.000 NA
ENDBRANCH   1   6
BRANCH   1  14
ATOM     14  C   UNL     1       3.041   5.678  18.423  0.00  0.00    +0.000 A 
ATOM     15  C   UNL     1       3.116   5.686  19.824  0.00  0.00    +0.000 A 
ATOM     16  N   UNL     1       2.560   4.790  20.687  0.00  0.00    +0.000 NA
ATOM     17  C   UNL     1       1.854   3.827  20.061  0.00  0.00    +0.000 A 
ATOM     18  C   UNL     1       1.651   3.704  18.691  0.00  0.00    +0.000 A 
ATOM     19  C   UNL     1       0.817   2.572  18.489  0.00  0.00    +0.000 A 
ATOM     20  C   UNL     1       0.560   2.020  19.726  0.00  0.00    +0.000 A 
ATOM     21  N   UNL     1       1.211   2.780  20.666  0.00  0.00    +0.000 N 
ATOM     22  C   UNL     1       1.251   2.510  22.080  0.00  0.00    +0.000 C 
ATOM     23  C   UNL     1       2.271   4.646  17.855  0.00  0.00    +0.000 A 
ENDBRANCH   1  14
TORSDOF 2
ENDMDL
MODEL 7
REMARK VINA RESULT:      -7.3      0.681      2.771
REMARK  Name = 
REMARK  5 active torsions:
REMARK  status: ('A' for Active; 'I' for Inactive)
REMARK    1  A    between atoms: C_1  and  C_2
REMARK    2  A    between atoms: C_4  and  N_5
REMARK    3  A    between atoms: N_5  and  C_6
REMARK    4  A    between atoms: N_5  and  C_7
REMARK    5  A    between atoms: N_14  and  C_15
REMARK                            x       y       z     vdW  Elec       q    Type
REMARK                         _______ _______ _______ _____ _____    ______ ____
ROOT
ATOM      1  N   UNL     1       5.793   4.904  18.479  0.00  0.00    +0.000 N 
ATOM      2  C   UNL     1       6.943   5.219  19.353  0.00  0.00    +0.000 C 
ENDROOT
BRANCH   1   6
ATOM      3  C   UNL     1       2.017   3.320  21.306  0.00  0.00    +0.000 C 
ATOM      4  C   UNL     1       2.645   4.342  20.408  0.00  0.00    +0.000 A 
ATOM      5  C   UNL     1       3.935   4.183  19.925  0.00  0.00    +0.000 A 
ATOM      6  C   UNL     1       4.482   5.113  19.019  0.00  0.00    +0.000 A 
ATOM      7  C   UNL     1       3.657   6.234  18.658  0.00  0.00    +0.000 A 
ATOM      8  C   UNL     1       3.990   7.260  17.730  0.00  0.00    +0.000 A 
ATOM      9  C   UNL     1       3.153   8.354  17.493  0.00  0.00    +0.000 A 
ATOM     10  C   UNL     1       1.929   8.432  18.136  0.00  0.00    +0.000 A 
ATOM     11  C   UNL     1       1.551   7.407  18.997  0.00  0.00    +0.000 A 
ATOM     12  C   UNL     1       2.378   6.324  19.263  0.00  0.00    +0.000 A 
ATOM     13  N   UNL     1       1.884   5.403  20.096  0.00  0.00    +0.000 NA
ENDBRANCH   1   6
BRANCH   1  14
ATOM     14  C   UNL     1       6.170   4.857  17.102  0.00  0.00    +0.000 A 
ATOM     15  C   UNL     1       7.214   5.628  16.569  0.00  0.00    +0.000 A 
ATOM     16  N   UNL     1       7.617   5.689  15.269  0.00  0.00    +0.000 NA
ATOM     17  C   UNL     1       6.909   4.876  14.461  0.00  0.00    +0.000 A 
ATOM     18  C   UNL     1       5.878   4.022  14.839  0.00  0.00    +0.000 A 
ATOM     19  C   UNL     1       5.453   3.333  13.673  0.00  0.00    +0.000 A 
ATOM     20  C   UNL     1       6.207   3.800  12.617  0.00  0.00    +0.000 A 
ATOM     21  N   UNL     1       7.070   4.748  13.106  0.00  0.00    +0.000 N 
ATOM     22  C   UNL     1       7.992   5.527  12.322  0.00  0.00    +0.000 C 
ATOM     23  C   UNL     1       5.494   4.025  16.189  0.00  0.00    +0.000 A 
ENDBRANCH   1  14
TORSDOF 2
ENDMDL
MODEL 8
REMARK VINA RESULT:      -7.3      1.956      6.875
REMARK  Name = 
REMARK  5 active torsions:
REMARK  status: ('A' for Active; 'I' for Inactive)
REMARK    1  A    between atoms: C_1  and  C_2
REMARK    2  A    between atoms: C_4  and  N_5
REMARK    3  A    between atoms: N_5  and  C_6
REMARK    4  A    between atoms: N_5  and  C_7
REMARK    5  A    between atoms: N_14  and  C_15
REMARK                            x       y       z     vdW  Elec       q    Type
REMARK                         _______ _______ _______ _____ _____    ______ ____
ROOT
ATOM      1  N   UNL     1       3.111   4.946  17.912  0.00  0.00    +0.000 N 
ATOM      2  C   UNL     1       2.028   4.010  17.545  0.00  0.00    +0.000 C 
ENDROOT
BRANCH   1   6
ATOM      3  C   UNL     1       5.696   3.721  13.841  0.00  0.00    +0.000 C 
ATOM      4  C   UNL     1       5.632   4.191  15.262  0.00  0.00    +0.000 A 
ATOM      5  C   UNL     1       4.418   4.414  15.895  0.00  0.00    +0.000 A 
ATOM      6  C   UNL     1       4.373   4.779  17.254  0.00  0.00    +0.000 A 
ATOM      7  C   UNL     1       5.633   4.939  17.928  0.00  0.00    +0.000 A 
ATOM      8  C   UNL     1       5.819   5.256  19.303  0.00  0.00    +0.000 A 
ATOM      9  C   UNL     1       7.085   5.464  19.858  0.00  0.00    +0.000 A 
ATOM     10  C   UNL     1       8.212   5.308  19.069  0.00  0.00    +0.000 A 
ATOM     11  C   UNL     1       8.060   4.932  17.739  0.00  0.00    +0.000 A 
ATOM     12  C   UNL     1       6.812   4.745  17.163  0.00  0.00    +0.000 A 
ATOM     13  N   UNL     1       6.810   4.369  15.880  0.00  0.00    +0.000 NA
ENDBRANCH   1   6
BRANCH   1  14
ATOM     14  C   UNL     1       2.603   6.127  18.535  0.00  0.00    +0.000 A 
ATOM     15  C   UNL     1       2.218   6.174  19.883  0.00  0.00    +0.000 A 
ATOM     16  N   UNL     1       1.682   7.232  20.554  0.00  0.00    +0.000 NA
ATOM     17  C   UNL     1       1.555   8.332  19.785  0.00  0.00    +0.000 A 
ATOM     18  C   UNL     1       1.926   8.459  18.450  0.00  0.00    +0.000 A 
ATOM     19  C   UNL     1       1.648   9.796  18.061  0.00  0.00    +0.000 A 
ATOM     20  C   UNL     1       1.092  10.437  19.148  0.00  0.00    +0.000 A 
ATOM     21  N   UNL     1       1.024   9.532  20.178  0.00  0.00    +0.000 N 
ATOM     22  C   UNL     1       0.450   9.780  21.476  0.00  0.00    +0.000 C 
ATOM     23  C   UNL     1       2.450   7.324  17.811  0.00  0.00    +0.000 A 
ENDBRANCH   1  14
TORSDOF 2
ENDMDL
MODEL 9
REMARK VINA RESULT:      -7.3      1.053      1.687
REMARK  Name = 
REMARK  5 active torsions:
REMARK  status: ('A' for Active; 'I' for Inactive)
REMARK    1  A    between atoms: C_1  and  C_2
REMARK    2  A    between atoms: C_4  and  N_5
REMARK    3  A    between atoms: N_5  and  C_6
REMARK    4  A    between atoms: N_5  and  C_7
REMARK    5  A    between atoms: N_14  and  C_15
REMARK                            x       y       z     vdW  Elec       q    Type
REMARK                         _______ _______ _______ _____ _____    ______ ____
ROOT
ATOM      1  N   UNL     1       5.659   5.326  17.717  0.00  0.00    +0.000 N 
ATOM      2  C   UNL     1       6.885   5.976  18.226  0.00  0.00    +0.000 C 
ENDROOT
BRANCH   1   6
ATOM      3  C   UNL     1       1.939   8.434  18.844  0.00  0.00    +0.000 C 
ATOM      4  C   UNL     1       2.618   7.103  18.961  0.00  0.00    +0.000 A 
ATOM      5  C   UNL     1       3.768   6.813  18.241  0.00  0.00    +0.000 A 
ATOM      6  C   UNL     1       4.438   5.588  18.421  0.00  0.00    +0.000 A 
ATOM      7  C   UNL     1       3.856   4.657  19.350  0.00  0.00    +0.000 A 
ATOM      8  C   UNL     1       4.389   3.389  19.716  0.00  0.00    +0.000 A 
ATOM      9  C   UNL     1       3.715   2.516  20.576  0.00  0.00    +0.000 A 
ATOM     10  C   UNL     1       2.512   2.903  21.140  0.00  0.00    +0.000 A 
ATOM     11  C   UNL     1       2.004   4.165  20.851  0.00  0.00    +0.000 A 
ATOM     12  C   UNL     1       2.645   5.037  19.982  0.00  0.00    +0.000 A 
ATOM     13  N   UNL     1       2.056   6.224  19.805  0.00  0.00    +0.000 NA
ENDBRANCH   1   6
BRANCH   1  14
ATOM     14  C   UNL     1       5.809   4.897  16.362  0.00  0.00    +0.000 A 
ATOM     15  C   UNL     1       4.966   3.948  15.765  0.00  0.00    +0.000 A 
ATOM     16  N   UNL     1       5.054   3.442  14.503  0.00  0.00    +0.000 NA
ATOM     17  C   UNL     1       6.072   3.971  13.795  0.00  0.00    +0.000 A 
ATOM     18  C   UNL     1       6.965   4.946  14.226  0.00  0.00    +0.000 A 
ATOM     19  C   UNL     1       7.837   5.227  13.142  0.00  0.00    +0.000 A 
ATOM     20  C   UNL     1       7.478   4.404  12.095  0.00  0.00    +0.000 A 
ATOM     21  N   UNL     1       6.419   3.635  12.513  0.00  0.00    +0.000 N 
ATOM     22  C   UNL     1       5.780   2.601  11.743  0.00  0.00    +0.000 C 
ATOM     23  C   UNL     1       6.835   5.408  15.545  0.00  0.00    +0.000 A 
ENDBRANCH   1  14
TORSDOF 2
ENDMDL
