MODEL 1
REMARK VINA RESULT:      -6.6      0.000      0.000
REMARK  Name = 
REMARK  11 active torsions:
REMARK  status: ('A' for Active; 'I' for Inactive)
REMARK    1  A    between atoms: C_1  and  O_2
REMARK    2  A    between atoms: O_2  and  C_3
REMARK    3  A    between atoms: C_5  and  C_6
REMARK    4  A    between atoms: C_7  and  C_8
REMARK    5  A    between atoms: N_10  and  C_11
REMARK    6  A    between atoms: C_11  and  C_12
REMARK    7  A    between atoms: C_12  and  O_13
REMARK    8  A    between atoms: C_15  and  O_16
REMARK    9  A    between atoms: O_16  and  C_17
REMARK   10  A    between atoms: C_18  and  O_19
REMARK   11  A    between atoms: O_19  and  C_20
REMARK                            x       y       z     vdW  Elec       q    Type
REMARK                         _______ _______ _______ _____ _____    ______ ____
ROOT
ATOM      1  C   UNL     1       6.138   4.061  14.604  0.00  0.00    +0.000 A 
ATOM      2  C   UNL     1       5.173   3.761  15.581  0.00  0.00    +0.000 A 
ATOM      3  C   UNL     1       5.062   4.517  16.750  0.00  0.00    +0.000 A 
ATOM      4  C   UNL     1       5.983   5.545  16.960  0.00  0.00    +0.000 A 
ATOM      5  C   UNL     1       7.010   5.810  16.035  0.00  0.00    +0.000 A 
ATOM      6  C   UNL     1       7.101   5.064  14.838  0.00  0.00    +0.000 A 
ENDROOT
BRANCH   1   8
ATOM      7  C   UNL     1       5.038   3.528  12.567  0.00  0.00    +0.000 C 
ATOM      8  O   UNL     1       6.163   3.348  13.429  0.00  0.00    +0.000 OA
ENDBRANCH   1   8
BRANCH   3   9
ATOM      9  C   UNL     1       3.909   4.289  17.634  0.00  0.00    +0.000 C 
ATOM     10  C   UNL     1       2.836   3.547  17.321  0.00  0.00    +0.000 C 
BRANCH  10  11
ATOM     11  C   UNL     1       1.796   3.292  18.351  0.00  0.00    +0.000 C 
ATOM     12  O   UNL     1       0.786   2.638  18.136  0.00  0.00    +0.000 OA
ATOM     13  N   UNL     1       2.082   3.897  19.551  0.00  0.00    +0.000 N 
ATOM     14  H   UNL     1       2.928   4.435  19.665  0.00  0.00    +0.000 HD
BRANCH  13  15
ATOM     15  C   UNL     1       1.139   3.875  20.658  0.00  0.00    +0.000 C 
BRANCH  15  16
ATOM     16  C   UNL     1       1.376   2.691  21.594  0.00  0.00    +0.000 C 
BRANCH  16  17
ATOM     17  O   UNL     1       2.746   2.657  21.997  0.00  0.00    +0.000 OA
ATOM     18  H   UNL     1       2.746   2.316  22.908  0.00  0.00    +0.000 HD
ENDBRANCH  16  17
ENDBRANCH  15  16
ENDBRANCH  13  15
ENDBRANCH  10  11
ENDBRANCH   3   9
BRANCH   5  19
ATOM     19  O   UNL     1       7.793   6.852  16.467  0.00  0.00    +0.000 OA
ATOM     20  C   UNL     1       7.450   7.549  17.654  0.00  0.00    +0.000 C 
ENDBRANCH   5  19
BRANCH   6  21
ATOM     21  O   UNL     1       8.143   5.390  14.011  0.00  0.00    +0.000 OA
ATOM     22  C   UNL     1       7.939   5.592  12.624  0.00  0.00    +0.000 C 
ENDBRANCH   6  21
TORSDOF 8
ENDMDL
MODEL 2
REMARK VINA RESULT:      -6.5      5.905      9.265
REMARK  Name = 
REMARK  11 active torsions:
REMARK  status: ('A' for Active; 'I' for Inactive)
REMARK    1  A    between atoms: C_1  and  O_2
REMARK    2  A    between atoms: O_2  and  C_3
REMARK    3  A    between atoms: C_5  and  C_6
REMARK    4  A    between atoms: C_7  and  C_8
REMARK    5  A    between atoms: N_10  and  C_11
REMARK    6  A    between atoms: C_11  and  C_12
REMARK    7  A    between atoms: C_12  and  O_13
REMARK    8  A    between atoms: C_15  and  O_16
REMARK    9  A    between atoms: O_16  and  C_17
REMARK   10  A    between atoms: C_18  and  O_19
REMARK   11  A    between atoms: O_19  and  C_20
REMARK                            x       y       z     vdW  Elec       q    Type
REMARK                         _______ _______ _______ _____ _____    ______ ____
ROOT
ATOM      1  C   UNL     1       9.891  12.602  20.938  0.00  0.00    +0.000 A 
ATOM      2  C   UNL     1       9.258  11.417  20.522  0.00  0.00    +0.000 A 
ATOM      3  C   UNL     1       9.578  10.809  19.306  0.00  0.00    +0.000 A 
ATOM      4  C   UNL     1      10.502  11.444  18.475  0.00  0.00    +0.000 A 
ATOM      5  C   UNL     1      11.087  12.673  18.832  0.00  0.00    +0.000 A 
ATOM      6  C   UNL     1      10.784  13.272  20.076  0.00  0.00    +0.000 A 
ENDROOT
BRANCH   1   8
ATOM      7  C   UNL     1       8.722  12.359  22.991  0.00  0.00    +0.000 C 
ATOM      8  O   UNL     1       9.610  13.126  22.177  0.00  0.00    +0.000 OA
ENDBRANCH   1   8
BRANCH   3   9
ATOM      9  C   UNL     1       9.039   9.471  19.020  0.00  0.00    +0.000 C 
ATOM     10  C   UNL     1       8.229   9.173  17.993  0.00  0.00    +0.000 C 
BRANCH  10  11
ATOM     11  C   UNL     1       7.856   7.757  17.741  0.00  0.00    +0.000 C 
ATOM     12  O   UNL     1       7.317   7.379  16.711  0.00  0.00    +0.000 OA
ATOM     13  N   UNL     1       8.154   6.936  18.801  0.00  0.00    +0.000 N 
ATOM     14  H   UNL     1       8.589   7.309  19.632  0.00  0.00    +0.000 HD
BRANCH  13  15
ATOM     15  C   UNL     1       7.764   5.535  18.812  0.00  0.00    +0.000 C 
BRANCH  15  16
ATOM     16  C   UNL     1       6.315   5.343  19.257  0.00  0.00    +0.000 C 
BRANCH  16  17
ATOM     17  O   UNL     1       5.893   4.008  18.979  0.00  0.00    +0.000 OA
ATOM     18  H   UNL     1       5.076   3.876  19.490  0.00  0.00    +0.000 HD
ENDBRANCH  16  17
ENDBRANCH  15  16
ENDBRANCH  13  15
ENDBRANCH  10  11
ENDBRANCH   3   9
BRANCH   5  19
ATOM     19  O   UNL     1      11.946  13.104  17.852  0.00  0.00    +0.000 OA
ATOM     20  C   UNL     1      11.443  13.437  16.568  0.00  0.00    +0.000 C 
ENDBRANCH   5  19
BRANCH   6  21
ATOM     21  O   UNL     1      11.394  14.472  20.323  0.00  0.00    +0.000 OA
ATOM     22  C   UNL     1      10.777  15.694  19.957  0.00  0.00    +0.000 C 
ENDBRANCH   6  21
TORSDOF 8
ENDMDL
MODEL 3
REMARK VINA RESULT:      -6.4      0.517      2.946
REMARK  Name = 
REMARK  11 active torsions:
REMARK  status: ('A' for Active; 'I' for Inactive)
REMARK    1  A    between atoms: C_1  and  O_2
REMARK    2  A    between atoms: O_2  and  C_3
REMARK    3  A    between atoms: C_5  and  C_6
REMARK    4  A    between atoms: C_7  and  C_8
REMARK    5  A    between atoms: N_10  and  C_11
REMARK    6  A    between atoms: C_11  and  C_12
REMARK    7  A    between atoms: C_12  and  O_13
REMARK    8  A    between atoms: C_15  and  O_16
REMARK    9  A    between atoms: O_16  and  C_17
REMARK   10  A    between atoms: C_18  and  O_19
REMARK   11  A    between atoms: O_19  and  C_20
REMARK                            x       y       z     vdW  Elec       q    Type
REMARK                         _______ _______ _______ _____ _____    ______ ____
ROOT
ATOM      1  C   UNL     1       6.932   5.698  15.851  0.00  0.00    +0.000 A 
ATOM      2  C   UNL     1       5.787   5.348  16.589  0.00  0.00    +0.000 A 
ATOM      3  C   UNL     1       4.946   4.312  16.180  0.00  0.00    +0.000 A 
ATOM      4  C   UNL     1       5.232   3.667  14.976  0.00  0.00    +0.000 A 
ATOM      5  C   UNL     1       6.324   4.054  14.177  0.00  0.00    +0.000 A 
ATOM      6  C   UNL     1       7.193   5.083  14.608  0.00  0.00    +0.000 A 
ENDROOT
BRANCH   1   8
ATOM      7  C   UNL     1       7.343   7.360  17.497  0.00  0.00    +0.000 C 
ATOM      8  O   UNL     1       7.781   6.667  16.327  0.00  0.00    +0.000 OA
ENDBRANCH   1   8
BRANCH   3   9
ATOM      9  C   UNL     1       3.887   3.857  17.094  0.00  0.00    +0.000 C 
ATOM     10  C   UNL     1       2.914   4.637  17.590  0.00  0.00    +0.000 C 
BRANCH  10  11
ATOM     11  C   UNL     1       1.830   4.027  18.403  0.00  0.00    +0.000 C 
ATOM     12  O   UNL     1       0.887   3.420  17.915  0.00  0.00    +0.000 OA
ATOM     13  N   UNL     1       1.990   4.249  19.749  0.00  0.00    +0.000 N 
ATOM     14  H   UNL     1       2.784   4.769  20.092  0.00  0.00    +0.000 HD
BRANCH  13  15
ATOM     15  C   UNL     1       0.980   3.842  20.713  0.00  0.00    +0.000 C 
BRANCH  15  16
ATOM     16  C   UNL     1       1.418   2.626  21.528  0.00  0.00    +0.000 C 
BRANCH  16  17
ATOM     17  O   UNL     1       2.767   2.795  21.966  0.00  0.00    +0.000 OA
ATOM     18  H   UNL     1       3.159   3.457  21.371  0.00  0.00    +0.000 HD
ENDBRANCH  16  17
ENDBRANCH  15  16
ENDBRANCH  13  15
ENDBRANCH  10  11
ENDBRANCH   3   9
BRANCH   5  19
ATOM     19  O   UNL     1       6.389   3.287  13.041  0.00  0.00    +0.000 OA
ATOM     20  C   UNL     1       5.328   3.326  12.101  0.00  0.00    +0.000 C 
ENDBRANCH   5  19
BRANCH   6  21
ATOM     21  O   UNL     1       8.216   5.395  13.754  0.00  0.00    +0.000 OA
ATOM     22  C   UNL     1       7.957   5.889  12.452  0.00  0.00    +0.000 C 
ENDBRANCH   6  21
TORSDOF 8
ENDMDL
MODEL 4
REMARK VINA RESULT:      -6.4      2.741      7.107
REMARK  Name = 
REMARK  11 active torsions:
REMARK  status: ('A' for Active; 'I' for Inactive)
REMARK    1  A    between atoms: C_1  and  O_2
REMARK    2  A    between atoms: O_2  and  C_3
REMARK    3  A    between atoms: C_5  and  C_6
REMARK    4  A    between atoms: C_7  and  C_8
REMARK    5  A    between atoms: N_10  and  C_11
REMARK    6  A    between atoms: C_11  and  C_12
REMARK    7  A    between atoms: C_12  and  O_13
REMARK    8  A    between atoms: C_15  and  O_16
REMARK    9  A    between atoms: O_16  and  C_17
REMARK   10  A    between atoms: C_18  and  O_19
REMARK   11  A    between atoms: O_19  and  C_20
REMARK                            x       y       z     vdW  Elec       q    Type
REMARK                         _______ _______ _______ _____ _____    ______ ____
ROOT
ATOM      1  C   UNL     1       3.776   3.469  19.199  0.00  0.00    +0.000 A 
ATOM      2  C   UNL     1       4.253   3.526  17.877  0.00  0.00    +0.000 A 
ATOM      3  C   UNL     1       4.237   4.717  17.148  0.00  0.00    +0.000 A 
ATOM      4  C   UNL     1       3.671   5.846  17.743  0.00  0.00    +0.000 A 
ATOM      5  C   UNL     1       3.112   5.794  19.033  0.00  0.00    +0.000 A 
ATOM      6  C   UNL     1       3.157   4.594  19.782  0.00  0.00    +0.000 A 
ENDROOT
BRANCH   1   8
ATOM      7  C   UNL     1       3.907   1.098  19.140  0.00  0.00    +0.000 C 
ATOM      8  O   UNL     1       3.884   2.300  19.913  0.00  0.00    +0.000 OA
ENDBRANCH   1   8
BRANCH   3   9
ATOM      9  C   UNL     1       4.933   4.765  15.854  0.00  0.00    +0.000 C 
ATOM     10  C   UNL     1       6.265   4.716  15.696  0.00  0.00    +0.000 C 
BRANCH  10  11
ATOM     11  C   UNL     1       6.838   4.645  14.327  0.00  0.00    +0.000 C 
ATOM     12  O   UNL     1       7.694   5.415  13.919  0.00  0.00    +0.000 OA
ATOM     13  N   UNL     1       6.276   3.645  13.570  0.00  0.00    +0.000 N 
ATOM     14  H   UNL     1       5.562   3.047  13.960  0.00  0.00    +0.000 HD
BRANCH  13  15
ATOM     15  C   UNL     1       6.606   3.478  12.164  0.00  0.00    +0.000 C 
BRANCH  15  16
ATOM     16  C   UNL     1       5.766   2.389  11.500  0.00  0.00    +0.000 C 
BRANCH  16  17
ATOM     17  O   UNL     1       6.533   1.192  11.374  0.00  0.00    +0.000 OA
ATOM     18  H   UNL     1       7.157   1.196  12.120  0.00  0.00    +0.000 HD
ENDBRANCH  16  17
ENDBRANCH  15  16
ENDBRANCH  13  15
ENDBRANCH  10  11
ENDBRANCH   3   9
BRANCH   5  19
ATOM     19  O   UNL     1       2.607   7.018  19.393  0.00  0.00    +0.000 OA
ATOM     20  C   UNL     1       2.355   7.998  18.399  0.00  0.00    +0.000 C 
ENDBRANCH   5  19
BRANCH   6  21
ATOM     21  O   UNL     1       2.574   4.643  21.019  0.00  0.00    +0.000 OA
ATOM     22  C   UNL     1       1.520   3.762  21.366  0.00  0.00    +0.000 C 
ENDBRANCH   6  21
TORSDOF 8
ENDMDL
MODEL 5
REMARK VINA RESULT:      -6.4      2.732      7.514
REMARK  Name = 
REMARK  11 active torsions:
REMARK  status: ('A' for Active; 'I' for Inactive)
REMARK    1  A    between atoms: C_1  and  O_2
REMARK    2  A    between atoms: O_2  and  C_3
REMARK    3  A    between atoms: C_5  and  C_6
REMARK    4  A    between atoms: C_7  and  C_8
REMARK    5  A    between atoms: N_10  and  C_11
REMARK    6  A    between atoms: C_11  and  C_12
REMARK    7  A    between atoms: C_12  and  O_13
REMARK    8  A    between atoms: C_15  and  O_16
REMARK    9  A    between atoms: O_16  and  C_17
REMARK   10  A    between atoms: C_18  and  O_19
REMARK   11  A    between atoms: O_19  and  C_20
REMARK                            x       y       z     vdW  Elec       q    Type
REMARK                         _______ _______ _______ _____ _____    ______ ____
ROOT
ATOM      1  C   UNL     1       3.014   6.053  18.623  0.00  0.00    +0.000 A 
ATOM      2  C   UNL     1       3.896   5.930  17.534  0.00  0.00    +0.000 A 
ATOM      3  C   UNL     1       4.169   4.689  16.956  0.00  0.00    +0.000 A 
ATOM      4  C   UNL     1       3.593   3.554  17.530  0.00  0.00    +0.000 A 
ATOM      5  C   UNL     1       2.774   3.643  18.670  0.00  0.00    +0.000 A 
ATOM      6  C   UNL     1       2.474   4.904  19.236  0.00  0.00    +0.000 A 
ENDROOT
BRANCH   1   8
ATOM      7  C   UNL     1       2.454   8.309  18.133  0.00  0.00    +0.000 C 
ATOM      8  O   UNL     1       2.705   7.300  19.112  0.00  0.00    +0.000 OA
ENDBRANCH   1   8
BRANCH   3   9
ATOM      9  C   UNL     1       4.931   4.645  15.699  0.00  0.00    +0.000 C 
ATOM     10  C   UNL     1       6.232   4.952  15.579  0.00  0.00    +0.000 C 
BRANCH  10  11
ATOM     11  C   UNL     1       6.915   4.745  14.276  0.00  0.00    +0.000 C 
ATOM     12  O   UNL     1       7.884   5.397  13.917  0.00  0.00    +0.000 OA
ATOM     13  N   UNL     1       6.317   3.769  13.515  0.00  0.00    +0.000 N 
ATOM     14  H   UNL     1       5.509   3.272  13.861  0.00  0.00    +0.000 HD
BRANCH  13  15
ATOM     15  C   UNL     1       6.753   3.490  12.156  0.00  0.00    +0.000 C 
BRANCH  15  16
ATOM     16  C   UNL     1       6.083   2.244  11.580  0.00  0.00    +0.000 C 
BRANCH  16  17
ATOM     17  O   UNL     1       7.076   1.292  11.195  0.00  0.00    +0.000 OA
ATOM     18  H   UNL     1       7.928   1.757  11.258  0.00  0.00    +0.000 HD
ENDBRANCH  16  17
ENDBRANCH  15  16
ENDBRANCH  13  15
ENDBRANCH  10  11
ENDBRANCH   3   9
BRANCH   5  19
ATOM     19  O   UNL     1       2.341   2.398  19.055  0.00  0.00    +0.000 OA
ATOM     20  C   UNL     1       1.023   1.980  18.740  0.00  0.00    +0.000 C 
ENDBRANCH   5  19
BRANCH   6  21
ATOM     21  O   UNL     1       1.680   4.883  20.351  0.00  0.00    +0.000 OA
ATOM     22  C   UNL     1       2.124   4.278  21.553  0.00  0.00    +0.000 C 
ENDBRANCH   6  21
TORSDOF 8
ENDMDL
MODEL 6
REMARK VINA RESULT:      -6.3      4.730      6.725
REMARK  Name = 
REMARK  11 active torsions:
REMARK  status: ('A' for Active; 'I' for Inactive)
REMARK    1  A    between atoms: C_1  and  O_2
REMARK    2  A    between atoms: O_2  and  C_3
REMARK    3  A    between atoms: C_5  and  C_6
REMARK    4  A    between atoms: C_7  and  C_8
REMARK    5  A    between atoms: N_10  and  C_11
REMARK    6  A    between atoms: C_11  and  C_12
REMARK    7  A    between atoms: C_12  and  O_13
REMARK    8  A    between atoms: C_15  and  O_16
REMARK    9  A    between atoms: O_16  and  C_17
REMARK   10  A    between atoms: C_18  and  O_19
REMARK   11  A    between atoms: O_19  and  C_20
REMARK                            x       y       z     vdW  Elec       q    Type
REMARK                         _______ _______ _______ _____ _____    ______ ____
ROOT
ATOM      1  C   UNL     1       5.029   4.787  18.517  0.00  0.00    +0.000 A 
ATOM      2  C   UNL     1       4.636   6.082  18.132  0.00  0.00    +0.000 A 
ATOM      3  C   UNL     1       3.289   6.432  18.028  0.00  0.00    +0.000 A 
ATOM      4  C   UNL     1       2.331   5.442  18.252  0.00  0.00    +0.000 A 
ATOM      5  C   UNL     1       2.701   4.119  18.557  0.00  0.00    +0.000 A 
ATOM      6  C   UNL     1       4.065   3.773  18.693  0.00  0.00    +0.000 A 
ENDROOT
BRANCH   1   8
ATOM      7  C   UNL     1       7.204   4.752  17.562  0.00  0.00    +0.000 C 
ATOM      8  O   UNL     1       6.363   4.502  18.689  0.00  0.00    +0.000 OA
ENDBRANCH   1   8
BRANCH   3   9
ATOM      9  C   UNL     1       2.939   7.846  17.825  0.00  0.00    +0.000 C 
ATOM     10  C   UNL     1       1.821   8.433  18.280  0.00  0.00    +0.000 C 
BRANCH  10  11
ATOM     11  C   UNL     1       1.646   9.900  18.116  0.00  0.00    +0.000 C 
ATOM     12  O   UNL     1       2.449  10.608  17.528  0.00  0.00    +0.000 OA
ATOM     13  N   UNL     1       0.505  10.366  18.724  0.00  0.00    +0.000 N 
ATOM     14  H   UNL     1      -0.115   9.733  19.206  0.00  0.00    +0.000 HD
BRANCH  13  15
ATOM     15  C   UNL     1       0.204  11.788  18.787  0.00  0.00    +0.000 C 
BRANCH  15  16
ATOM     16  C   UNL     1      -1.204  12.102  18.286  0.00  0.00    +0.000 C 
BRANCH  16  17
ATOM     17  O   UNL     1      -1.497  11.311  17.133  0.00  0.00    +0.000 OA
ATOM     18  H   UNL     1      -0.637  11.010  16.792  0.00  0.00    +0.000 HD
ENDBRANCH  16  17
ENDBRANCH  15  16
ENDBRANCH  13  15
ENDBRANCH  10  11
ENDBRANCH   3   9
BRANCH   5  19
ATOM     19  O   UNL     1       1.589   3.330  18.718  0.00  0.00    +0.000 OA
ATOM     20  C   UNL     1       0.906   3.318  19.961  0.00  0.00    +0.000 C 
ENDBRANCH   5  19
BRANCH   6  21
ATOM     21  O   UNL     1       4.321   2.459  18.977  0.00  0.00    +0.000 OA
ATOM     22  C   UNL     1       4.520   2.025  20.311  0.00  0.00    +0.000 C 
ENDBRANCH   6  21
TORSDOF 8
ENDMDL
MODEL 7
REMARK VINA RESULT:      -6.3      2.754      7.356
REMARK  Name = 
REMARK  11 active torsions:
REMARK  status: ('A' for Active; 'I' for Inactive)
REMARK    1  A    between atoms: C_1  and  O_2
REMARK    2  A    between atoms: O_2  and  C_3
REMARK    3  A    between atoms: C_5  and  C_6
REMARK    4  A    between atoms: C_7  and  C_8
REMARK    5  A    between atoms: N_10  and  C_11
REMARK    6  A    between atoms: C_11  and  C_12
REMARK    7  A    between atoms: C_12  and  O_13
REMARK    8  A    between atoms: C_15  and  O_16
REMARK    9  A    between atoms: O_16  and  C_17
REMARK   10  A    between atoms: C_18  and  O_19
REMARK   11  A    between atoms: O_19  and  C_20
REMARK                            x       y       z     vdW  Elec       q    Type
REMARK                         _______ _______ _______ _____ _____    ______ ____
ROOT
ATOM      1  C   UNL     1       3.055   5.711  18.688  0.00  0.00    +0.000 A 
ATOM      2  C   UNL     1       3.854   5.751  17.531  0.00  0.00    +0.000 A 
ATOM      3  C   UNL     1       4.486   4.606  17.043  0.00  0.00    +0.000 A 
ATOM      4  C   UNL     1       4.359   3.423  17.771  0.00  0.00    +0.000 A 
ATOM      5  C   UNL     1       3.634   3.376  18.976  0.00  0.00    +0.000 A 
ATOM      6  C   UNL     1       2.969   4.529  19.453  0.00  0.00    +0.000 A 
ENDROOT
BRANCH   1   8
ATOM      7  C   UNL     1       2.533   7.987  18.255  0.00  0.00    +0.000 C 
ATOM      8  O   UNL     1       2.382   6.839  19.091  0.00  0.00    +0.000 OA
ENDBRANCH   1   8
BRANCH   3   9
ATOM      9  C   UNL     1       5.135   4.663  15.724  0.00  0.00    +0.000 C 
ATOM     10  C   UNL     1       6.445   4.872  15.522  0.00  0.00    +0.000 C 
BRANCH  10  11
ATOM     11  C   UNL     1       6.997   4.780  14.145  0.00  0.00    +0.000 C 
ATOM     12  O   UNL     1       7.922   5.471  13.747  0.00  0.00    +0.000 OA
ATOM     13  N   UNL     1       6.331   3.862  13.369  0.00  0.00    +0.000 N 
ATOM     14  H   UNL     1       5.564   3.328  13.751  0.00  0.00    +0.000 HD
BRANCH  13  15
ATOM     15  C   UNL     1       6.631   3.700  11.955  0.00  0.00    +0.000 C 
BRANCH  15  16
ATOM     16  C   UNL     1       7.025   2.265  11.611  0.00  0.00    +0.000 C 
BRANCH  16  17
ATOM     17  O   UNL     1       5.875   1.421  11.652  0.00  0.00    +0.000 OA
ATOM     18  H   UNL     1       5.253   1.848  12.266  0.00  0.00    +0.000 HD
ENDBRANCH  16  17
ENDBRANCH  15  16
ENDBRANCH  13  15
ENDBRANCH  10  11
ENDBRANCH   3   9
BRANCH   5  19
ATOM     19  O   UNL     1       3.666   2.113  19.513  0.00  0.00    +0.000 OA
ATOM     20  C   UNL     1       4.659   1.777  20.469  0.00  0.00    +0.000 C 
ENDBRANCH   5  19
BRANCH   6  21
ATOM     21  O   UNL     1       2.303   4.385  20.640  0.00  0.00    +0.000 OA
ATOM     22  C   UNL     1       0.969   3.908  20.675  0.00  0.00    +0.000 C 
ENDBRANCH   6  21
TORSDOF 8
ENDMDL
MODEL 8
REMARK VINA RESULT:      -6.3      3.955      5.102
REMARK  Name = 
REMARK  11 active torsions:
REMARK  status: ('A' for Active; 'I' for Inactive)
REMARK    1  A    between atoms: C_1  and  O_2
REMARK    2  A    between atoms: O_2  and  C_3
REMARK    3  A    between atoms: C_5  and  C_6
REMARK    4  A    between atoms: C_7  and  C_8
REMARK    5  A    between atoms: N_10  and  C_11
REMARK    6  A    between atoms: C_11  and  C_12
REMARK    7  A    between atoms: C_12  and  O_13
REMARK    8  A    between atoms: C_15  and  O_16
REMARK    9  A    between atoms: O_16  and  C_17
REMARK   10  A    between atoms: C_18  and  O_19
REMARK   11  A    between atoms: O_19  and  C_20
REMARK                            x       y       z     vdW  Elec       q    Type
REMARK                         _______ _______ _______ _____ _____    ______ ____
ROOT
ATOM      1  C   UNL     1       5.713   6.281  16.820  0.00  0.00    +0.000 A 
ATOM      2  C   UNL     1       4.684   7.083  17.345  0.00  0.00    +0.000 A 
ATOM      3  C   UNL     1       3.486   6.527  17.797  0.00  0.00    +0.000 A 
ATOM      4  C   UNL     1       3.304   5.151  17.654  0.00  0.00    +0.000 A 
ATOM      5  C   UNL     1       4.284   4.338  17.056  0.00  0.00    +0.000 A 
ATOM      6  C   UNL     1       5.510   4.898  16.627  0.00  0.00    +0.000 A 
ENDROOT
BRANCH   1   8
ATOM      7  C   UNL     1       7.616   7.526  17.507  0.00  0.00    +0.000 C 
ATOM      8  O   UNL     1       6.910   6.854  16.462  0.00  0.00    +0.000 OA
ENDBRANCH   1   8
BRANCH   3   9
ATOM      9  C   UNL     1       2.536   7.384  18.521  0.00  0.00    +0.000 C 
ATOM     10  C   UNL     1       2.206   8.635  18.166  0.00  0.00    +0.000 C 
BRANCH  10  11
ATOM     11  C   UNL     1       1.137   9.350  18.911  0.00  0.00    +0.000 C 
ATOM     12  O   UNL     1       0.399  10.176  18.396  0.00  0.00    +0.000 OA
ATOM     13  N   UNL     1       1.097   9.002  20.240  0.00  0.00    +0.000 N 
ATOM     14  H   UNL     1       1.742   8.321  20.612  0.00  0.00    +0.000 HD
BRANCH  13  15
ATOM     15  C   UNL     1       0.205   9.671  21.175  0.00  0.00    +0.000 C 
BRANCH  15  16
ATOM     16  C   UNL     1       0.553   9.356  22.628  0.00  0.00    +0.000 C 
BRANCH  16  17
ATOM     17  O   UNL     1      -0.623   9.422  23.435  0.00  0.00    +0.000 OA
ATOM     18  H   UNL     1      -1.284   8.865  22.988  0.00  0.00    +0.000 HD
ENDBRANCH  16  17
ENDBRANCH  15  16
ENDBRANCH  13  15
ENDBRANCH  10  11
ENDBRANCH   3   9
BRANCH   5  19
ATOM     19  O   UNL     1       3.872   3.030  17.015  0.00  0.00    +0.000 OA
ATOM     20  C   UNL     1       2.976   2.541  18.001  0.00  0.00    +0.000 C 
ENDBRANCH   5  19
BRANCH   6  21
ATOM     21  O   UNL     1       6.392   4.028  16.046  0.00  0.00    +0.000 OA
ATOM     22  C   UNL     1       6.416   3.841  14.641  0.00  0.00    +0.000 C 
ENDBRANCH   6  21
TORSDOF 8
ENDMDL
MODEL 9
REMARK VINA RESULT:      -6.3      4.905      6.789
REMARK  Name = 
REMARK  11 active torsions:
REMARK  status: ('A' for Active; 'I' for Inactive)
REMARK    1  A    between atoms: C_1  and  O_2
REMARK    2  A    between atoms: O_2  and  C_3
REMARK    3  A    between atoms: C_5  and  C_6
REMARK    4  A    between atoms: C_7  and  C_8
REMARK    5  A    between atoms: N_10  and  C_11
REMARK    6  A    between atoms: C_11  and  C_12
REMARK    7  A    between atoms: C_12  and  O_13
REMARK    8  A    between atoms: C_15  and  O_16
REMARK    9  A    between atoms: O_16  and  C_17
REMARK   10  A    between atoms: C_18  and  O_19
REMARK   11  A    between atoms: O_19  and  C_20
REMARK                            x       y       z     vdW  Elec       q    Type
REMARK                         _______ _______ _______ _____ _____    ______ ____
ROOT
ATOM      1  C   UNL     1       2.645   4.416  19.389  0.00  0.00    +0.000 A 
ATOM      2  C   UNL     1       2.389   5.783  19.182  0.00  0.00    +0.000 A 
ATOM      3  C   UNL     1       3.176   6.548  18.318  0.00  0.00    +0.000 A 
ATOM      4  C   UNL     1       4.273   5.935  17.710  0.00  0.00    +0.000 A 
ATOM      5  C   UNL     1       4.598   4.590  17.966  0.00  0.00    +0.000 A 
ATOM      6  C   UNL     1       3.783   3.809  18.818  0.00  0.00    +0.000 A 
ENDROOT
BRANCH   1   8
ATOM      7  C   UNL     1       2.127   3.633  21.571  0.00  0.00    +0.000 C 
ATOM      8  O   UNL     1       1.799   3.677  20.182  0.00  0.00    +0.000 OA
ENDBRANCH   1   8
BRANCH   3   9
ATOM      9  C   UNL     1       2.739   7.911  17.982  0.00  0.00    +0.000 C 
ATOM     10  C   UNL     1       1.815   8.610  18.659  0.00  0.00    +0.000 C 
BRANCH  10  11
ATOM     11  C   UNL     1       1.555  10.026  18.293  0.00  0.00    +0.000 C 
ATOM     12  O   UNL     1       2.262  10.660  17.524  0.00  0.00    +0.000 OA
ATOM     13  N   UNL     1       0.459  10.546  18.939  0.00  0.00    +0.000 N 
ATOM     14  H   UNL     1      -0.080   9.977  19.575  0.00  0.00    +0.000 HD
BRANCH  13  15
ATOM     15  C   UNL     1       0.099  11.950  18.816  0.00  0.00    +0.000 C 
BRANCH  15  16
ATOM     16  C   UNL     1      -1.369  12.137  18.437  0.00  0.00    +0.000 C 
BRANCH  16  17
ATOM     17  O   UNL     1      -1.479  12.417  17.041  0.00  0.00    +0.000 OA
ATOM     18  H   UNL     1      -2.277  11.951  16.739  0.00  0.00    +0.000 HD
ENDBRANCH  16  17
ENDBRANCH  15  16
ENDBRANCH  13  15
ENDBRANCH  10  11
ENDBRANCH   3   9
BRANCH   5  19
ATOM     19  O   UNL     1       5.721   4.222  17.269  0.00  0.00    +0.000 OA
ATOM     20  C   UNL     1       6.988   4.735  17.648  0.00  0.00    +0.000 C 
ENDBRANCH   5  19
BRANCH   6  21
ATOM     21  O   UNL     1       4.192   2.518  19.014  0.00  0.00    +0.000 OA
ATOM     22  C   UNL     1       3.575   1.443  18.327  0.00  0.00    +0.000 C 
ENDBRANCH   6  21
TORSDOF 8
ENDMDL
