MODEL 1
REMARK VINA RESULT:      -8.6      0.000      0.000
REMARK  Name = 
REMARK  11 active torsions:
REMARK  status: ('A' for Active; 'I' for Inactive)
REMARK    1  A    between atoms: C_1  and  O_2
REMARK    2  A    between atoms: O_2  and  C_3
REMARK    3  A    between atoms: C_6  and  C_7
REMARK    4  A    between atoms: C_7  and  C_9
REMARK    5  A    between atoms: C_9  and  S_10
REMARK    6  A    between atoms: S_10  and  C_11
REMARK    7  A    between atoms: C_13  and  C_14
REMARK    8  A    between atoms: C_14  and  C_15
REMARK    9  A    between atoms: C_23  and  C_24
REMARK   10  A    between atoms: C_24  and  C_25
REMARK   11  A    between atoms: C_24  and  C_26
REMARK                            x       y       z     vdW  Elec       q    Type
REMARK                         _______ _______ _______ _____ _____    ______ ____
ROOT
ATOM      1  C   UNL     1       5.593   4.969  19.325  0.00  0.00    +0.000 A 
ATOM      2  N   UNL     1       4.673   5.753  19.763  0.00  0.00    +0.000 NA
ATOM      3  C   UNL     1       3.360   5.308  19.662  0.00  0.00    +0.000 A 
ATOM      4  C   UNL     1       3.000   4.157  19.037  0.00  0.00    +0.000 A 
ATOM      5  C   UNL     1       4.117   3.279  18.585  0.00  0.00    +0.000 A 
ATOM      6  O   UNL     1       3.952   2.194  18.040  0.00  0.00    +0.000 OA
ATOM      7  N   UNL     1       5.372   3.753  18.790  0.00  0.00    +0.000 N 
ATOM      8  H   UNL     1       6.147   3.178  18.501  0.00  0.00    +0.000 HD
ENDROOT
BRANCH   4   9
ATOM      9  C   UNL     1       1.570   3.706  18.766  0.00  0.00    +0.000 C 
ATOM     10  C   UNL     1       1.172   4.116  17.344  0.00  0.00    +0.000 C 
ATOM     11  C   UNL     1       1.252   2.221  18.990  0.00  0.00    +0.000 C 
ENDBRANCH   4   9
BRANCH   1  12
ATOM     12  S   UNL     1       7.271   5.399  19.346  0.00  0.00    +0.000 S 
BRANCH  12  13
ATOM     13  C   UNL     1       7.726   4.753  17.710  0.00  0.00    +0.000 C 
BRANCH  13  14
ATOM     14  C   UNL     1       7.167   5.635  16.606  0.00  0.00    +0.000 C 
ATOM     15  O   UNL     1       7.094   6.856  16.738  0.00  0.00    +0.000 OA
BRANCH  14  19
ATOM     16  C   UNL     1       6.043   3.848  12.855  0.00  0.00    +0.000 A 
ATOM     17  C   UNL     1       7.220   4.588  12.970  0.00  0.00    +0.000 A 
ATOM     18  C   UNL     1       7.579   5.165  14.194  0.00  0.00    +0.000 A 
ATOM     19  C   UNL     1       6.756   5.006  15.315  0.00  0.00    +0.000 A 
ATOM     20  C   UNL     1       5.569   4.278  15.192  0.00  0.00    +0.000 A 
ATOM     21  C   UNL     1       5.210   3.709  13.965  0.00  0.00    +0.000 A 
BRANCH  16  23
ATOM     22  C   UNL     1       5.600   1.933  11.541  0.00  0.00    +0.000 C 
ATOM     23  O   UNL     1       5.781   3.344  11.611  0.00  0.00    +0.000 OA
ENDBRANCH  16  23
ENDBRANCH  14  19
ENDBRANCH  13  14
ENDBRANCH  12  13
ENDBRANCH   1  12
BRANCH   3  24
ATOM     24  C   UNL     1       2.348   6.283  20.254  0.00  0.00    +0.000 C 
BRANCH  24  25
ATOM     25  C   UNL     1       2.073   7.610  19.546  0.00  0.00    +0.000 A 
ATOM     26  C   UNL     1       2.449   7.952  18.232  0.00  0.00    +0.000 A 
ATOM     27 CL   UNL     1       3.494   7.013  17.223  0.00  0.00    +0.000 Cl
ATOM     28  C   UNL     1       2.024   9.156  17.643  0.00  0.00    +0.000 A 
ATOM     29  C   UNL     1       1.261  10.073  18.355  0.00  0.00    +0.000 A 
ATOM     30  C   UNL     1       0.958   9.810  19.682  0.00  0.00    +0.000 A 
ATOM     31  C   UNL     1       1.366   8.604  20.271  0.00  0.00    +0.000 A 
ATOM     32 CL   UNL     1       0.980   8.418  21.954  0.00  0.00    +0.000 Cl
ENDBRANCH  24  25
ENDBRANCH   3  24
TORSDOF 8
ENDMDL
MODEL 2
REMARK VINA RESULT:      -8.4      0.811      1.261
REMARK  Name = 
REMARK  11 active torsions:
REMARK  status: ('A' for Active; 'I' for Inactive)
REMARK    1  A    between atoms: C_1  and  O_2
REMARK    2  A    between atoms: O_2  and  C_3
REMARK    3  A    between atoms: C_6  and  C_7
REMARK    4  A    between atoms: C_7  and  C_9
REMARK    5  A    between atoms: C_9  and  S_10
REMARK    6  A    between atoms: S_10  and  C_11
REMARK    7  A    between atoms: C_13  and  C_14
REMARK    8  A    between atoms: C_14  and  C_15
REMARK    9  A    between atoms: C_23  and  C_24
REMARK   10  A    between atoms: C_24  and  C_25
REMARK   11  A    between atoms: C_24  and  C_26
REMARK                            x       y       z     vdW  Elec       q    Type
REMARK                         _______ _______ _______ _____ _____    ______ ____
ROOT
ATOM      1  C   UNL     1       5.451   4.970  19.448  0.00  0.00    +0.000 A 
ATOM      2  N   UNL     1       4.468   5.749  19.729  0.00  0.00    +0.000 NA
ATOM      3  C   UNL     1       3.247   5.150  20.014  0.00  0.00    +0.000 A 
ATOM      4  C   UNL     1       3.017   3.816  19.904  0.00  0.00    +0.000 A 
ATOM      5  C   UNL     1       4.208   2.968  19.610  0.00  0.00    +0.000 A 
ATOM      6  O   UNL     1       4.167   1.747  19.519  0.00  0.00    +0.000 OA
ATOM      7  N   UNL     1       5.379   3.625  19.422  0.00  0.00    +0.000 N 
ATOM      8  H   UNL     1       6.202   3.078  19.227  0.00  0.00    +0.000 HD
ENDROOT
BRANCH   4   9
ATOM      9  C   UNL     1       1.663   3.134  20.054  0.00  0.00    +0.000 C 
ATOM     10  C   UNL     1       1.402   2.252  18.829  0.00  0.00    +0.000 C 
ATOM     11  C   UNL     1       1.424   2.329  21.339  0.00  0.00    +0.000 C 
ENDBRANCH   4   9
BRANCH   1  12
ATOM     12  S   UNL     1       7.024   5.567  19.034  0.00  0.00    +0.000 S 
BRANCH  12  13
ATOM     13  C   UNL     1       7.291   4.579  17.533  0.00  0.00    +0.000 C 
BRANCH  13  14
ATOM     14  C   UNL     1       7.183   5.444  16.289  0.00  0.00    +0.000 C 
ATOM     15  O   UNL     1       7.498   6.633  16.308  0.00  0.00    +0.000 OA
BRANCH  14  19
ATOM     16  C   UNL     1       5.855   3.614  12.627  0.00  0.00    +0.000 A 
ATOM     17  C   UNL     1       5.089   3.524  13.790  0.00  0.00    +0.000 A 
ATOM     18  C   UNL     1       5.527   4.123  14.977  0.00  0.00    +0.000 A 
ATOM     19  C   UNL     1       6.743   4.817  15.007  0.00  0.00    +0.000 A 
ATOM     20  C   UNL     1       7.516   4.890  13.844  0.00  0.00    +0.000 A 
ATOM     21  C   UNL     1       7.077   4.284  12.662  0.00  0.00    +0.000 A 
BRANCH  16  23
ATOM     22  C   UNL     1       3.986   3.285  11.217  0.00  0.00    +0.000 C 
ATOM     23  O   UNL     1       5.341   2.978  11.530  0.00  0.00    +0.000 OA
ENDBRANCH  16  23
ENDBRANCH  14  19
ENDBRANCH  13  14
ENDBRANCH  12  13
ENDBRANCH   1  12
BRANCH   3  24
ATOM     24  C   UNL     1       2.159   6.152  20.386  0.00  0.00    +0.000 C 
BRANCH  24  25
ATOM     25  C   UNL     1       2.022   7.450  19.589  0.00  0.00    +0.000 A 
ATOM     26  C   UNL     1       2.340   7.635  18.229  0.00  0.00    +0.000 A 
ATOM     27 CL   UNL     1       3.159   6.480  17.235  0.00  0.00    +0.000 Cl
ATOM     28  C   UNL     1       2.048   8.844  17.571  0.00  0.00    +0.000 A 
ATOM     29  C   UNL     1       1.481   9.913  18.252  0.00  0.00    +0.000 A 
ATOM     30  C   UNL     1       1.247   9.795  19.613  0.00  0.00    +0.000 A 
ATOM     31  C   UNL     1       1.523   8.589  20.274  0.00  0.00    +0.000 A 
ATOM     32 CL   UNL     1       1.246   8.586  21.987  0.00  0.00    +0.000 Cl
ENDBRANCH  24  25
ENDBRANCH   3  24
TORSDOF 8
ENDMDL
MODEL 3
REMARK VINA RESULT:      -7.6      1.107      1.394
REMARK  Name = 
REMARK  11 active torsions:
REMARK  status: ('A' for Active; 'I' for Inactive)
REMARK    1  A    between atoms: C_1  and  O_2
REMARK    2  A    between atoms: O_2  and  C_3
REMARK    3  A    between atoms: C_6  and  C_7
REMARK    4  A    between atoms: C_7  and  C_9
REMARK    5  A    between atoms: C_9  and  S_10
REMARK    6  A    between atoms: S_10  and  C_11
REMARK    7  A    between atoms: C_13  and  C_14
REMARK    8  A    between atoms: C_14  and  C_15
REMARK    9  A    between atoms: C_23  and  C_24
REMARK   10  A    between atoms: C_24  and  C_25
REMARK   11  A    between atoms: C_24  and  C_26
REMARK                            x       y       z     vdW  Elec       q    Type
REMARK                         _______ _______ _______ _____ _____    ______ ____
ROOT
ATOM      1  C   UNL     1       5.547   4.993  19.123  0.00  0.00    +0.000 A 
ATOM      2  N   UNL     1       4.573   5.751  18.763  0.00  0.00    +0.000 NA
ATOM      3  C   UNL     1       3.319   5.162  18.656  0.00  0.00    +0.000 A 
ATOM      4  C   UNL     1       3.095   3.830  18.804  0.00  0.00    +0.000 A 
ATOM      5  C   UNL     1       4.260   3.016  19.256  0.00  0.00    +0.000 A 
ATOM      6  O   UNL     1       4.206   1.811  19.469  0.00  0.00    +0.000 OA
ATOM      7  N   UNL     1       5.432   3.682  19.411  0.00  0.00    +0.000 N 
ATOM      8  H   UNL     1       6.234   3.160  19.721  0.00  0.00    +0.000 HD
ENDROOT
BRANCH   4   9
ATOM      9  C   UNL     1       1.773   3.119  18.545  0.00  0.00    +0.000 C 
ATOM     10  C   UNL     1       1.997   1.984  17.541  0.00  0.00    +0.000 C 
ATOM     11  C   UNL     1       1.012   2.591  19.770  0.00  0.00    +0.000 C 
ENDBRANCH   4   9
BRANCH   1  12
ATOM     12  S   UNL     1       7.174   5.571  19.263  0.00  0.00    +0.000 S 
BRANCH  12  13
ATOM     13  C   UNL     1       7.839   4.853  17.733  0.00  0.00    +0.000 C 
BRANCH  13  14
ATOM     14  C   UNL     1       7.426   5.676  16.524  0.00  0.00    +0.000 C 
ATOM     15  O   UNL     1       7.610   6.892  16.487  0.00  0.00    +0.000 OA
BRANCH  14  19
ATOM     16  C   UNL     1       5.800   3.697  13.065  0.00  0.00    +0.000 A 
ATOM     17  C   UNL     1       6.948   4.485  12.965  0.00  0.00    +0.000 A 
ATOM     18  C   UNL     1       7.471   5.124  14.095  0.00  0.00    +0.000 A 
ATOM     19  C   UNL     1       6.844   4.980  15.338  0.00  0.00    +0.000 A 
ATOM     20  C   UNL     1       5.684   4.205  15.431  0.00  0.00    +0.000 A 
ATOM     21  C   UNL     1       5.161   3.573  14.298  0.00  0.00    +0.000 A 
BRANCH  16  23
ATOM     22  C   UNL     1       5.924   1.863  11.579  0.00  0.00    +0.000 C 
ATOM     23  O   UNL     1       5.366   3.134  11.896  0.00  0.00    +0.000 OA
ENDBRANCH  16  23
ENDBRANCH  14  19
ENDBRANCH  13  14
ENDBRANCH  12  13
ENDBRANCH   1  12
BRANCH   3  24
ATOM     24  C   UNL     1       2.221   6.150  18.276  0.00  0.00    +0.000 C 
BRANCH  24  25
ATOM     25  C   UNL     1       1.875   7.298  19.225  0.00  0.00    +0.000 A 
ATOM     26  C   UNL     1       1.770   8.662  18.887  0.00  0.00    +0.000 A 
ATOM     27 CL   UNL     1       2.227   9.345  17.365  0.00  0.00    +0.000 Cl
ATOM     28  C   UNL     1       1.316   9.611  19.821  0.00  0.00    +0.000 A 
ATOM     29  C   UNL     1       1.003   9.243  21.123  0.00  0.00    +0.000 A 
ATOM     30  C   UNL     1       1.190   7.927  21.514  0.00  0.00    +0.000 A 
ATOM     31  C   UNL     1       1.629   6.972  20.584  0.00  0.00    +0.000 A 
ATOM     32 CL   UNL     1       1.884   5.372  21.209  0.00  0.00    +0.000 Cl
ENDBRANCH  24  25
ENDBRANCH   3  24
TORSDOF 8
ENDMDL
MODEL 4
REMARK VINA RESULT:      -7.4      3.659      7.703
REMARK  Name = 
REMARK  11 active torsions:
REMARK  status: ('A' for Active; 'I' for Inactive)
REMARK    1  A    between atoms: C_1  and  O_2
REMARK    2  A    between atoms: O_2  and  C_3
REMARK    3  A    between atoms: C_6  and  C_7
REMARK    4  A    between atoms: C_7  and  C_9
REMARK    5  A    between atoms: C_9  and  S_10
REMARK    6  A    between atoms: S_10  and  C_11
REMARK    7  A    between atoms: C_13  and  C_14
REMARK    8  A    between atoms: C_14  and  C_15
REMARK    9  A    between atoms: C_23  and  C_24
REMARK   10  A    between atoms: C_24  and  C_25
REMARK   11  A    between atoms: C_24  and  C_26
REMARK                            x       y       z     vdW  Elec       q    Type
REMARK                         _______ _______ _______ _____ _____    ______ ____
ROOT
ATOM      1  C   UNL     1       2.320   6.322  20.004  0.00  0.00    +0.000 A 
ATOM      2  N   UNL     1       3.508   6.043  19.601  0.00  0.00    +0.000 NA
ATOM      3  C   UNL     1       3.860   4.700  19.544  0.00  0.00    +0.000 A 
ATOM      4  C   UNL     1       3.064   3.693  19.989  0.00  0.00    +0.000 A 
ATOM      5  C   UNL     1       1.687   4.082  20.409  0.00  0.00    +0.000 A 
ATOM      6  O   UNL     1       0.843   3.283  20.797  0.00  0.00    +0.000 OA
ATOM      7  N   UNL     1       1.398   5.407  20.361  0.00  0.00    +0.000 N 
ATOM      8  H   UNL     1       0.474   5.699  20.633  0.00  0.00    +0.000 HD
ENDROOT
BRANCH   4   9
ATOM      9  C   UNL     1       3.464   2.226  20.091  0.00  0.00    +0.000 C 
ATOM     10  C   UNL     1       3.293   1.560  18.722  0.00  0.00    +0.000 C 
ATOM     11  C   UNL     1       4.859   1.920  20.651  0.00  0.00    +0.000 C 
ENDBRANCH   4   9
BRANCH   1  12
ATOM     12  S   UNL     1       1.748   7.949  20.165  0.00  0.00    +0.000 S 
BRANCH  12  13
ATOM     13  C   UNL     1       1.818   8.424  18.413  0.00  0.00    +0.000 C 
BRANCH  13  14
ATOM     14  C   UNL     1       1.461   9.890  18.235  0.00  0.00    +0.000 C 
ATOM     15  O   UNL     1       2.326  10.735  18.008  0.00  0.00    +0.000 OA
BRANCH  14  19
ATOM     16  C   UNL     1      -2.663  11.110  18.404  0.00  0.00    +0.000 A 
ATOM     17  C   UNL     1      -1.704  11.716  19.217  0.00  0.00    +0.000 A 
ATOM     18  C   UNL     1      -0.365  11.315  19.155  0.00  0.00    +0.000 A 
ATOM     19  C   UNL     1       0.025  10.296  18.276  0.00  0.00    +0.000 A 
ATOM     20  C   UNL     1      -0.942   9.680  17.477  0.00  0.00    +0.000 A 
ATOM     21  C   UNL     1      -2.281  10.079  17.546  0.00  0.00    +0.000 A 
BRANCH  16  23
ATOM     22  C   UNL     1      -4.724  11.633  17.370  0.00  0.00    +0.000 C 
ATOM     23  O   UNL     1      -3.943  11.567  18.559  0.00  0.00    +0.000 OA
ENDBRANCH  16  23
ENDBRANCH  14  19
ENDBRANCH  13  14
ENDBRANCH  12  13
ENDBRANCH   1  12
BRANCH   3  24
ATOM     24  C   UNL     1       5.267   4.469  19.005  0.00  0.00    +0.000 C 
BRANCH  24  25
ATOM     25  C   UNL     1       5.507   4.461  17.495  0.00  0.00    +0.000 A 
ATOM     26  C   UNL     1       4.523   4.346  16.492  0.00  0.00    +0.000 A 
ATOM     27 CL   UNL     1       2.859   3.971  16.773  0.00  0.00    +0.000 Cl
ATOM     28  C   UNL     1       4.852   4.483  15.131  0.00  0.00    +0.000 A 
ATOM     29  C   UNL     1       6.166   4.687  14.727  0.00  0.00    +0.000 A 
ATOM     30  C   UNL     1       7.168   4.706  15.684  0.00  0.00    +0.000 A 
ATOM     31  C   UNL     1       6.847   4.584  17.044  0.00  0.00    +0.000 A 
ATOM     32 CL   UNL     1       8.193   4.560  18.139  0.00  0.00    +0.000 Cl
ENDBRANCH  24  25
ENDBRANCH   3  24
TORSDOF 8
ENDMDL
MODEL 5
REMARK VINA RESULT:      -7.4      1.065      1.837
REMARK  Name = 
REMARK  11 active torsions:
REMARK  status: ('A' for Active; 'I' for Inactive)
REMARK    1  A    between atoms: C_1  and  O_2
REMARK    2  A    between atoms: O_2  and  C_3
REMARK    3  A    between atoms: C_6  and  C_7
REMARK    4  A    between atoms: C_7  and  C_9
REMARK    5  A    between atoms: C_9  and  S_10
REMARK    6  A    between atoms: S_10  and  C_11
REMARK    7  A    between atoms: C_13  and  C_14
REMARK    8  A    between atoms: C_14  and  C_15
REMARK    9  A    between atoms: C_23  and  C_24
REMARK   10  A    between atoms: C_24  and  C_25
REMARK   11  A    between atoms: C_24  and  C_26
REMARK                            x       y       z     vdW  Elec       q    Type
REMARK                         _______ _______ _______ _____ _____    ______ ____
ROOT
ATOM      1  C   UNL     1       5.609   4.884  19.106  0.00  0.00    +0.000 A 
ATOM      2  N   UNL     1       4.721   5.753  18.773  0.00  0.00    +0.000 NA
ATOM      3  C   UNL     1       3.432   5.286  18.544  0.00  0.00    +0.000 A 
ATOM      4  C   UNL     1       3.095   3.970  18.547  0.00  0.00    +0.000 A 
ATOM      5  C   UNL     1       4.162   3.021  18.976  0.00  0.00    +0.000 A 
ATOM      6  O   UNL     1       3.999   1.810  19.064  0.00  0.00    +0.000 OA
ATOM      7  N   UNL     1       5.372   3.566  19.256  0.00  0.00    +0.000 N 
ATOM      8  H   UNL     1       6.111   2.950  19.554  0.00  0.00    +0.000 HD
ENDROOT
BRANCH   4   9
ATOM      9  C   UNL     1       1.738   3.402  18.152  0.00  0.00    +0.000 C 
ATOM     10  C   UNL     1       0.944   3.063  19.417  0.00  0.00    +0.000 C 
ATOM     11  C   UNL     1       0.876   4.246  17.203  0.00  0.00    +0.000 C 
ENDBRANCH   4   9
BRANCH   1  12
ATOM     12  S   UNL     1       7.265   5.306  19.386  0.00  0.00    +0.000 S 
BRANCH  12  13
ATOM     13  C   UNL     1       7.943   4.776  17.787  0.00  0.00    +0.000 C 
BRANCH  13  14
ATOM     14  C   UNL     1       7.430   5.658  16.662  0.00  0.00    +0.000 C 
ATOM     15  O   UNL     1       7.526   6.884  16.716  0.00  0.00    +0.000 OA
BRANCH  14  19
ATOM     16  C   UNL     1       5.827   3.831  13.109  0.00  0.00    +0.000 A 
ATOM     17  C   UNL     1       7.025   4.546  13.068  0.00  0.00    +0.000 A 
ATOM     18  C   UNL     1       7.541   5.136  14.228  0.00  0.00    +0.000 A 
ATOM     19  C   UNL     1       6.854   5.016  15.442  0.00  0.00    +0.000 A 
ATOM     20  C   UNL     1       5.646   4.315  15.476  0.00  0.00    +0.000 A 
ATOM     21  C   UNL     1       5.131   3.732  14.313  0.00  0.00    +0.000 A 
BRANCH  16  23
ATOM     22  C   UNL     1       5.800   1.968  11.654  0.00  0.00    +0.000 C 
ATOM     23  O   UNL     1       5.408   3.312  11.915  0.00  0.00    +0.000 OA
ENDBRANCH  16  23
ENDBRANCH  14  19
ENDBRANCH  13  14
ENDBRANCH  12  13
ENDBRANCH   1  12
BRANCH   3  24
ATOM     24  C   UNL     1       2.442   6.396  18.208  0.00  0.00    +0.000 C 
BRANCH  24  25
ATOM     25  C   UNL     1       1.903   7.292  19.323  0.00  0.00    +0.000 A 
ATOM     26  C   UNL     1       1.661   6.913  20.659  0.00  0.00    +0.000 A 
ATOM     27 CL   UNL     1       1.721   5.291  21.256  0.00  0.00    +0.000 Cl
ATOM     28  C   UNL     1       1.288   7.861  21.629  0.00  0.00    +0.000 A 
ATOM     29  C   UNL     1       1.098   9.196  21.292  0.00  0.00    +0.000 A 
ATOM     30  C   UNL     1       1.232   9.580  19.967  0.00  0.00    +0.000 A 
ATOM     31  C   UNL     1       1.617   8.643  18.997  0.00  0.00    +0.000 A 
ATOM     32 CL   UNL     1       1.691   9.232  17.366  0.00  0.00    +0.000 Cl
ENDBRANCH  24  25
ENDBRANCH   3  24
TORSDOF 8
ENDMDL
MODEL 6
REMARK VINA RESULT:      -7.4      4.228      8.289
REMARK  Name = 
REMARK  11 active torsions:
REMARK  status: ('A' for Active; 'I' for Inactive)
REMARK    1  A    between atoms: C_1  and  O_2
REMARK    2  A    between atoms: O_2  and  C_3
REMARK    3  A    between atoms: C_6  and  C_7
REMARK    4  A    between atoms: C_7  and  C_9
REMARK    5  A    between atoms: C_9  and  S_10
REMARK    6  A    between atoms: S_10  and  C_11
REMARK    7  A    between atoms: C_13  and  C_14
REMARK    8  A    between atoms: C_14  and  C_15
REMARK    9  A    between atoms: C_23  and  C_24
REMARK   10  A    between atoms: C_24  and  C_25
REMARK   11  A    between atoms: C_24  and  C_26
REMARK                            x       y       z     vdW  Elec       q    Type
REMARK                         _______ _______ _______ _____ _____    ______ ____
ROOT
ATOM      1  C   UNL     1       2.859   8.249  17.763  0.00  0.00    +0.000 A 
ATOM      2  N   UNL     1       2.148   7.186  17.891  0.00  0.00    +0.000 NA
ATOM      3  C   UNL     1       2.791   5.968  17.705  0.00  0.00    +0.000 A 
ATOM      4  C   UNL     1       4.081   5.850  17.296  0.00  0.00    +0.000 A 
ATOM      5  C   UNL     1       4.857   7.120  17.203  0.00  0.00    +0.000 A 
ATOM      6  O   UNL     1       6.039   7.173  16.884  0.00  0.00    +0.000 OA
ATOM      7  N   UNL     1       4.175   8.261  17.475  0.00  0.00    +0.000 N 
ATOM      8  H   UNL     1       4.675   9.133  17.426  0.00  0.00    +0.000 HD
ENDROOT
BRANCH   4   9
ATOM      9  C   UNL     1       4.780   4.547  16.930  0.00  0.00    +0.000 C 
ATOM     10  C   UNL     1       5.198   4.594  15.457  0.00  0.00    +0.000 C 
ATOM     11  C   UNL     1       5.973   4.126  17.800  0.00  0.00    +0.000 C 
ENDBRANCH   4   9
BRANCH   1  12
ATOM     12  S   UNL     1       2.193   9.840  17.927  0.00  0.00    +0.000 S 
BRANCH  12  13
ATOM     13  C   UNL     1       0.903   9.458  19.147  0.00  0.00    +0.000 C 
BRANCH  13  14
ATOM     14  C   UNL     1       0.084  10.696  19.475  0.00  0.00    +0.000 C 
ATOM     15  O   UNL     1       0.532  11.584  20.199  0.00  0.00    +0.000 OA
BRANCH  14  19
ATOM     16  C   UNL     1      -3.785  11.114  17.637  0.00  0.00    +0.000 A 
ATOM     17  C   UNL     1      -2.845  10.215  17.130  0.00  0.00    +0.000 A 
ATOM     18  C   UNL     1      -1.590  10.084  17.734  0.00  0.00    +0.000 A 
ATOM     19  C   UNL     1      -1.264  10.858  18.854  0.00  0.00    +0.000 A 
ATOM     20  C   UNL     1      -2.201  11.770  19.348  0.00  0.00    +0.000 A 
ATOM     21  C   UNL     1      -3.453  11.903  18.737  0.00  0.00    +0.000 A 
BRANCH  16  23
ATOM     22  C   UNL     1      -6.031  11.851  17.626  0.00  0.00    +0.000 C 
ATOM     23  O   UNL     1      -4.972  11.173  16.959  0.00  0.00    +0.000 OA
ENDBRANCH  16  23
ENDBRANCH  14  19
ENDBRANCH  13  14
ENDBRANCH  12  13
ENDBRANCH   1  12
BRANCH   3  24
ATOM     24  C   UNL     1       1.879   4.766  17.928  0.00  0.00    +0.000 C 
BRANCH  24  25
ATOM     25  C   UNL     1       1.961   3.988  19.242  0.00  0.00    +0.000 A 
ATOM     26  C   UNL     1       1.745   4.504  20.536  0.00  0.00    +0.000 A 
ATOM     27 CL   UNL     1       1.554   6.180  20.916  0.00  0.00    +0.000 Cl
ATOM     28  C   UNL     1       1.720   3.660  21.660  0.00  0.00    +0.000 A 
ATOM     29  C   UNL     1       1.958   2.296  21.541  0.00  0.00    +0.000 A 
ATOM     30  C   UNL     1       2.271   1.776  20.295  0.00  0.00    +0.000 A 
ATOM     31  C   UNL     1       2.284   2.608  19.166  0.00  0.00    +0.000 A 
ATOM     32 CL   UNL     1       2.751   1.852  17.675  0.00  0.00    +0.000 Cl
ENDBRANCH  24  25
ENDBRANCH   3  24
TORSDOF 8
ENDMDL
MODEL 7
REMARK VINA RESULT:      -7.2      5.871      8.968
REMARK  Name = 
REMARK  11 active torsions:
REMARK  status: ('A' for Active; 'I' for Inactive)
REMARK    1  A    between atoms: C_1  and  O_2
REMARK    2  A    between atoms: O_2  and  C_3
REMARK    3  A    between atoms: C_6  and  C_7
REMARK    4  A    between atoms: C_7  and  C_9
REMARK    5  A    between atoms: C_9  and  S_10
REMARK    6  A    between atoms: S_10  and  C_11
REMARK    7  A    between atoms: C_13  and  C_14
REMARK    8  A    between atoms: C_14  and  C_15
REMARK    9  A    between atoms: C_23  and  C_24
REMARK   10  A    between atoms: C_24  and  C_25
REMARK   11  A    between atoms: C_24  and  C_26
REMARK                            x       y       z     vdW  Elec       q    Type
REMARK                         _______ _______ _______ _____ _____    ______ ____
ROOT
ATOM      1  C   UNL     1      -0.859  11.249  19.495  0.00  0.00    +0.000 A 
ATOM      2  N   UNL     1      -1.980  11.855  19.326  0.00  0.00    +0.000 NA
ATOM      3  C   UNL     1      -2.504  12.535  20.419  0.00  0.00    +0.000 A 
ATOM      4  C   UNL     1      -1.957  12.501  21.662  0.00  0.00    +0.000 A 
ATOM      5  C   UNL     1      -0.639  11.812  21.779  0.00  0.00    +0.000 A 
ATOM      6  O   UNL     1      -0.006  11.732  22.825  0.00  0.00    +0.000 OA
ATOM      7  N   UNL     1      -0.160  11.240  20.647  0.00  0.00    +0.000 N 
ATOM      8  H   UNL     1       0.731  10.773  20.695  0.00  0.00    +0.000 HD
ENDROOT
BRANCH   4   9
ATOM      9  C   UNL     1      -2.575  13.099  22.919  0.00  0.00    +0.000 C 
ATOM     10  C   UNL     1      -3.131  11.971  23.795  0.00  0.00    +0.000 C 
ATOM     11  C   UNL     1      -1.688  14.026  23.761  0.00  0.00    +0.000 C 
ENDBRANCH   4   9
BRANCH   1  12
ATOM     12  S   UNL     1      -0.098  10.328  18.240  0.00  0.00    +0.000 S 
BRANCH  12  13
ATOM     13  C   UNL     1       1.170   9.509  19.251  0.00  0.00    +0.000 C 
BRANCH  13  14
ATOM     14  C   UNL     1       1.967   8.518  18.420  0.00  0.00    +0.000 C 
ATOM     15  O   UNL     1       2.440   8.833  17.329  0.00  0.00    +0.000 OA
BRANCH  14  19
ATOM     16  C   UNL     1       2.755   4.573  19.951  0.00  0.00    +0.000 A 
ATOM     17  C   UNL     1       3.146   4.930  18.660  0.00  0.00    +0.000 A 
ATOM     18  C   UNL     1       2.888   6.216  18.170  0.00  0.00    +0.000 A 
ATOM     19  C   UNL     1       2.229   7.155  18.972  0.00  0.00    +0.000 A 
ATOM     20  C   UNL     1       1.823   6.788  20.258  0.00  0.00    +0.000 A 
ATOM     21  C   UNL     1       2.078   5.499  20.742  0.00  0.00    +0.000 A 
BRANCH  16  23
ATOM     22  C   UNL     1       2.398   2.826  21.504  0.00  0.00    +0.000 C 
ATOM     23  O   UNL     1       3.042   3.287  20.320  0.00  0.00    +0.000 OA
ENDBRANCH  16  23
ENDBRANCH  14  19
ENDBRANCH  13  14
ENDBRANCH  12  13
ENDBRANCH   1  12
BRANCH   3  24
ATOM     24  C   UNL     1      -3.807  13.263  20.105  0.00  0.00    +0.000 C 
BRANCH  24  25
ATOM     25  C   UNL     1      -5.106  12.466  19.980  0.00  0.00    +0.000 A 
ATOM     26  C   UNL     1      -5.477  11.632  18.905  0.00  0.00    +0.000 A 
ATOM     27 CL   UNL     1      -4.627  11.512  17.404  0.00  0.00    +0.000 Cl
ATOM     28  C   UNL     1      -6.642  10.847  18.962  0.00  0.00    +0.000 A 
ATOM     29  C   UNL     1      -7.493  10.903  20.058  0.00  0.00    +0.000 A 
ATOM     30  C   UNL     1      -7.207  11.787  21.087  0.00  0.00    +0.000 A 
ATOM     31  C   UNL     1      -6.040  12.563  21.044  0.00  0.00    +0.000 A 
ATOM     32 CL   UNL     1      -5.824  13.675  22.360  0.00  0.00    +0.000 Cl
ENDBRANCH  24  25
ENDBRANCH   3  24
TORSDOF 8
ENDMDL
MODEL 8
REMARK VINA RESULT:      -7.2      3.936      8.004
REMARK  Name = 
REMARK  11 active torsions:
REMARK  status: ('A' for Active; 'I' for Inactive)
REMARK    1  A    between atoms: C_1  and  O_2
REMARK    2  A    between atoms: O_2  and  C_3
REMARK    3  A    between atoms: C_6  and  C_7
REMARK    4  A    between atoms: C_7  and  C_9
REMARK    5  A    between atoms: C_9  and  S_10
REMARK    6  A    between atoms: S_10  and  C_11
REMARK    7  A    between atoms: C_13  and  C_14
REMARK    8  A    between atoms: C_14  and  C_15
REMARK    9  A    between atoms: C_23  and  C_24
REMARK   10  A    between atoms: C_24  and  C_25
REMARK   11  A    between atoms: C_24  and  C_26
REMARK                            x       y       z     vdW  Elec       q    Type
REMARK                         _______ _______ _______ _____ _____    ______ ____
ROOT
ATOM      1  C   UNL     1       2.589   7.034  18.820  0.00  0.00    +0.000 A 
ATOM      2  N   UNL     1       3.717   6.441  18.653  0.00  0.00    +0.000 NA
ATOM      3  C   UNL     1       3.818   5.131  19.105  0.00  0.00    +0.000 A 
ATOM      4  C   UNL     1       2.839   4.495  19.798  0.00  0.00    +0.000 A 
ATOM      5  C   UNL     1       1.544   5.225  19.924  0.00  0.00    +0.000 A 
ATOM      6  O   UNL     1       0.558   4.767  20.488  0.00  0.00    +0.000 OA
ATOM      7  N   UNL     1       1.505   6.470  19.388  0.00  0.00    +0.000 N 
ATOM      8  H   UNL     1       0.642   6.985  19.452  0.00  0.00    +0.000 HD
ENDROOT
BRANCH   4   9
ATOM      9  C   UNL     1       2.960   3.121  20.446  0.00  0.00    +0.000 C 
ATOM     10  C   UNL     1       2.361   3.172  21.855  0.00  0.00    +0.000 C 
ATOM     11  C   UNL     1       2.378   1.930  19.672  0.00  0.00    +0.000 C 
ENDBRANCH   4   9
BRANCH   1  12
ATOM     12  S   UNL     1       2.320   8.678  18.344  0.00  0.00    +0.000 S 
BRANCH  12  13
ATOM     13  C   UNL     1       1.077   9.111  19.597  0.00  0.00    +0.000 C 
BRANCH  13  14
ATOM     14  C   UNL     1       0.532  10.509  19.358  0.00  0.00    +0.000 C 
ATOM     15  O   UNL     1       1.202  11.509  19.616  0.00  0.00    +0.000 OA
BRANCH  14  19
ATOM     16  C   UNL     1      -3.344  10.907  17.530  0.00  0.00    +0.000 A 
ATOM     17  C   UNL     1      -2.396  10.024  17.011  0.00  0.00    +0.000 A 
ATOM     18  C   UNL     1      -1.138   9.900  17.612  0.00  0.00    +0.000 A 
ATOM     19  C   UNL     1      -0.819  10.664  18.741  0.00  0.00    +0.000 A 
ATOM     20  C   UNL     1      -1.765  11.560  19.247  0.00  0.00    +0.000 A 
ATOM     21  C   UNL     1      -3.019  11.687  18.639  0.00  0.00    +0.000 A 
BRANCH  16  23
ATOM     22  C   UNL     1      -5.388  12.047  17.197  0.00  0.00    +0.000 C 
ATOM     23  O   UNL     1      -4.532  10.962  16.854  0.00  0.00    +0.000 OA
ENDBRANCH  16  23
ENDBRANCH  14  19
ENDBRANCH  13  14
ENDBRANCH  12  13
ENDBRANCH   1  12
BRANCH   3  24
ATOM     24  C   UNL     1       5.175   4.499  18.816  0.00  0.00    +0.000 C 
BRANCH  24  25
ATOM     25  C   UNL     1       5.793   4.638  17.424  0.00  0.00    +0.000 A 
ATOM     26  C   UNL     1       6.948   5.375  17.090  0.00  0.00    +0.000 A 
ATOM     27 CL   UNL     1       7.780   6.452  18.157  0.00  0.00    +0.000 Cl
ATOM     28  C   UNL     1       7.496   5.322  15.796  0.00  0.00    +0.000 A 
ATOM     29  C   UNL     1       6.890   4.581  14.789  0.00  0.00    +0.000 A 
ATOM     30  C   UNL     1       5.699   3.926  15.061  0.00  0.00    +0.000 A 
ATOM     31  C   UNL     1       5.154   3.962  16.353  0.00  0.00    +0.000 A 
ATOM     32 CL   UNL     1       3.629   3.155  16.552  0.00  0.00    +0.000 Cl
ENDBRANCH  24  25
ENDBRANCH   3  24
TORSDOF 8
ENDMDL
MODEL 9
REMARK VINA RESULT:      -7.2      4.035      8.776
REMARK  Name = 
REMARK  11 active torsions:
REMARK  status: ('A' for Active; 'I' for Inactive)
REMARK    1  A    between atoms: C_1  and  O_2
REMARK    2  A    between atoms: O_2  and  C_3
REMARK    3  A    between atoms: C_6  and  C_7
REMARK    4  A    between atoms: C_7  and  C_9
REMARK    5  A    between atoms: C_9  and  S_10
REMARK    6  A    between atoms: S_10  and  C_11
REMARK    7  A    between atoms: C_13  and  C_14
REMARK    8  A    between atoms: C_14  and  C_15
REMARK    9  A    between atoms: C_23  and  C_24
REMARK   10  A    between atoms: C_24  and  C_25
REMARK   11  A    between atoms: C_24  and  C_26
REMARK                            x       y       z     vdW  Elec       q    Type
REMARK                         _______ _______ _______ _____ _____    ______ ____
ROOT
ATOM      1  C   UNL     1       2.410   6.428  19.775  0.00  0.00    +0.000 A 
ATOM      2  N   UNL     1       3.586   6.063  19.406  0.00  0.00    +0.000 NA
ATOM      3  C   UNL     1       3.869   4.703  19.446  0.00  0.00    +0.000 A 
ATOM      4  C   UNL     1       3.019   3.770  19.948  0.00  0.00    +0.000 A 
ATOM      5  C   UNL     1       1.660   4.256  20.323  0.00  0.00    +0.000 A 
ATOM      6  O   UNL     1       0.774   3.529  20.755  0.00  0.00    +0.000 OA
ATOM      7  N   UNL     1       1.440   5.587  20.182  0.00  0.00    +0.000 N 
ATOM      8  H   UNL     1       0.529   5.943  20.422  0.00  0.00    +0.000 HD
ENDROOT
BRANCH   4   9
ATOM      9  C   UNL     1       3.343   2.296  20.155  0.00  0.00    +0.000 C 
ATOM     10  C   UNL     1       3.125   1.541  18.840  0.00  0.00    +0.000 C 
ATOM     11  C   UNL     1       4.726   1.958  20.729  0.00  0.00    +0.000 C 
ENDBRANCH   4   9
BRANCH   1  12
ATOM     12  S   UNL     1       1.920   8.090  19.816  0.00  0.00    +0.000 S 
BRANCH  12  13
ATOM     13  C   UNL     1       0.834   8.004  21.270  0.00  0.00    +0.000 C 
BRANCH  13  14
ATOM     14  C   UNL     1       0.961   9.260  22.115  0.00  0.00    +0.000 C 
ATOM     15  O   UNL     1       1.951   9.462  22.817  0.00  0.00    +0.000 OA
BRANCH  14  19
ATOM     16  C   UNL     1      -2.119  12.254  21.831  0.00  0.00    +0.000 A 
ATOM     17  C   UNL     1      -1.304  11.960  20.737  0.00  0.00    +0.000 A 
ATOM     18  C   UNL     1      -0.305  10.984  20.837  0.00  0.00    +0.000 A 
ATOM     19  C   UNL     1      -0.114  10.295  22.041  0.00  0.00    +0.000 A 
ATOM     20  C   UNL     1      -0.920  10.604  23.139  0.00  0.00    +0.000 A 
ATOM     21  C   UNL     1      -1.913  11.585  23.037  0.00  0.00    +0.000 A 
BRANCH  16  23
ATOM     22  C   UNL     1      -3.044  14.298  22.576  0.00  0.00    +0.000 C 
ATOM     23  O   UNL     1      -3.049  13.236  21.628  0.00  0.00    +0.000 OA
ENDBRANCH  16  23
ENDBRANCH  14  19
ENDBRANCH  13  14
ENDBRANCH  12  13
ENDBRANCH   1  12
BRANCH   3  24
ATOM     24  C   UNL     1       5.268   4.365  18.942  0.00  0.00    +0.000 C 
BRANCH  24  25
ATOM     25  C   UNL     1       5.564   4.415  17.442  0.00  0.00    +0.000 A 
ATOM     26  C   UNL     1       4.625   4.286  16.398  0.00  0.00    +0.000 A 
ATOM     27 CL   UNL     1       2.970   3.826  16.604  0.00  0.00    +0.000 Cl
ATOM     28  C   UNL     1       4.997   4.480  15.056  0.00  0.00    +0.000 A 
ATOM     29  C   UNL     1       6.314   4.756  14.709  0.00  0.00    +0.000 A 
ATOM     30  C   UNL     1       7.278   4.791  15.704  0.00  0.00    +0.000 A 
ATOM     31  C   UNL     1       6.912   4.613  17.047  0.00  0.00    +0.000 A 
ATOM     32 CL   UNL     1       8.217   4.618  18.192  0.00  0.00    +0.000 Cl
ENDBRANCH  24  25
ENDBRANCH   3  24
TORSDOF 8
ENDMDL
