MODEL 1
REMARK VINA RESULT:      -8.0      0.000      0.000
REMARK  Name = 
REMARK  11 active torsions:
REMARK  status: ('A' for Active; 'I' for Inactive)
REMARK    1  A    between atoms: C_1  and  O_2
REMARK    2  A    between atoms: O_2  and  C_3
REMARK    3  A    between atoms: C_9  and  C_10
REMARK    4  A    between atoms: C_12  and  C_13
REMARK    5  A    between atoms: C_13  and  C_14
REMARK    6  A    between atoms: C_14  and  N_15
REMARK    7  A    between atoms: C_17  and  O_18
REMARK    8  A    between atoms: C_19  and  C_20
REMARK    9  A    between atoms: C_20  and  N_21
REMARK   10  A    between atoms: N_21  and  C_22
REMARK   11  A    between atoms: C_22  and  C_23
REMARK                            x       y       z     vdW  Elec       q    Type
REMARK                         _______ _______ _______ _____ _____    ______ ____
ROOT
ATOM      1  N   UNL     1       6.141   4.784  16.851  0.00  0.00    +0.000 NA
ATOM      2  C   UNL     1       7.339   4.668  17.705  0.00  0.00    +0.000 C 
ATOM      3  C   UNL     1       7.182   5.751  18.763  0.00  0.00    +0.000 C 
ATOM      4  C   UNL     1       6.595   6.911  17.968  0.00  0.00    +0.000 C 
ATOM      5  C   UNL     1       5.757   6.211  16.890  0.00  0.00    +0.000 C 
ENDROOT
BRANCH   3   6
ATOM      6  O   UNL     1       8.366   6.071  19.468  0.00  0.00    +0.000 OA
ATOM      7  H   UNL     1       8.774   5.250  19.788  0.00  0.00    +0.000 HD
ENDBRANCH   3   6
BRANCH   1   8
ATOM      8  C   UNL     1       5.065   3.903  17.342  0.00  0.00    +0.000 C 
BRANCH   8   9
ATOM      9  C   UNL     1       3.663   4.543  17.324  0.00  0.00    +0.000 C 
BRANCH   9  17
ATOM     10  C   UNL     1       2.074   7.771  19.400  0.00  0.00    +0.000 A 
ATOM     11  C   UNL     1       1.451   7.683  20.627  0.00  0.00    +0.000 A 
ATOM     12  C   UNL     1       1.322   6.421  21.201  0.00  0.00    +0.000 A 
ATOM     13  C   UNL     1       1.813   5.294  20.562  0.00  0.00    +0.000 A 
ATOM     14  N   UNL     1       1.691   4.092  21.153  0.00  0.00    +0.000 NA
ATOM     15  C   UNL     1       2.220   3.028  20.512  0.00  0.00    +0.000 A 
ATOM     16  C   UNL     1       2.867   3.106  19.288  0.00  0.00    +0.000 A 
ATOM     17  C   UNL     1       2.961   4.359  18.664  0.00  0.00    +0.000 A 
ATOM     18  C   UNL     1       2.440   5.487  19.309  0.00  0.00    +0.000 A 
ATOM     19  N   UNL     1       2.563   6.703  18.742  0.00  0.00    +0.000 NA
BRANCH  10  21
ATOM     20  C   UNL     1       2.436   8.987  17.441  0.00  0.00    +0.000 C 
ATOM     21  O   UNL     1       2.203   9.027  18.847  0.00  0.00    +0.000 OA
ENDBRANCH  10  21
BRANCH  16  22
ATOM     22  C   UNL     1       3.430   1.909  18.739  0.00  0.00    +0.000 C 
ATOM     23  N   UNL     1       3.888   0.932  18.325  0.00  0.00    +0.000 NA
ENDBRANCH  16  22
ENDBRANCH   9  17
ENDBRANCH   8   9
ENDBRANCH   1   8
BRANCH   4  24
ATOM     24  C   UNL     1       7.628   7.876  17.361  0.00  0.00    +0.000 C 
BRANCH  24  25
ATOM     25  N   UNL     1       8.341   8.699  18.344  0.00  0.00    +0.000 NA
ATOM     26  H   UNL     1       9.280   8.343  18.513  0.00  0.00    +0.000 HD
BRANCH  25  27
ATOM     27  C   UNL     1       8.420  10.102  17.944  0.00  0.00    +0.000 C 
BRANCH  27  28
ATOM     28  C   UNL     1       9.548  10.813  18.641  0.00  0.00    +0.000 A 
ATOM     29  C   UNL     1      10.632  11.317  17.906  0.00  0.00    +0.000 A 
ATOM     30  C   UNL     1      11.653  12.017  18.546  0.00  0.00    +0.000 A 
ATOM     31  C   UNL     1      11.602  12.212  19.925  0.00  0.00    +0.000 A 
ATOM     32  C   UNL     1      10.539  11.699  20.665  0.00  0.00    +0.000 A 
ATOM     33  C   UNL     1       9.516  11.003  20.029  0.00  0.00    +0.000 A 
ENDBRANCH  27  28
ENDBRANCH  25  27
ENDBRANCH  24  25
ENDBRANCH   4  24
TORSDOF 10
ENDMDL
MODEL 2
REMARK VINA RESULT:      -7.6      3.672      8.463
REMARK  Name = 
REMARK  11 active torsions:
REMARK  status: ('A' for Active; 'I' for Inactive)
REMARK    1  A    between atoms: C_1  and  O_2
REMARK    2  A    between atoms: O_2  and  C_3
REMARK    3  A    between atoms: C_9  and  C_10
REMARK    4  A    between atoms: C_12  and  C_13
REMARK    5  A    between atoms: C_13  and  C_14
REMARK    6  A    between atoms: C_14  and  N_15
REMARK    7  A    between atoms: C_17  and  O_18
REMARK    8  A    between atoms: C_19  and  C_20
REMARK    9  A    between atoms: C_20  and  N_21
REMARK   10  A    between atoms: N_21  and  C_22
REMARK   11  A    between atoms: C_22  and  C_23
REMARK                            x       y       z     vdW  Elec       q    Type
REMARK                         _______ _______ _______ _____ _____    ______ ____
ROOT
ATOM      1  N   UNL     1       1.859   8.451  20.540  0.00  0.00    +0.000 NA
ATOM      2  C   UNL     1       1.386   8.662  21.921  0.00  0.00    +0.000 C 
ATOM      3  C   UNL     1      -0.124   8.823  21.807  0.00  0.00    +0.000 C 
ATOM      4  C   UNL     1      -0.275   9.645  20.531  0.00  0.00    +0.000 C 
ATOM      5  C   UNL     1       0.912   9.185  19.674  0.00  0.00    +0.000 C 
ENDROOT
BRANCH   3   6
ATOM      6  O   UNL     1      -0.750   9.394  22.940  0.00  0.00    +0.000 OA
ATOM      7  H   UNL     1      -1.697   9.503  22.756  0.00  0.00    +0.000 HD
ENDBRANCH   3   6
BRANCH   1   8
ATOM      8  C   UNL     1       1.905   7.011  20.221  0.00  0.00    +0.000 C 
BRANCH   8   9
ATOM      9  C   UNL     1       2.552   6.683  18.861  0.00  0.00    +0.000 C 
BRANCH   9  17
ATOM     10  C   UNL     1       6.486   6.916  17.547  0.00  0.00    +0.000 A 
ATOM     11  C   UNL     1       7.391   5.878  17.598  0.00  0.00    +0.000 A 
ATOM     12  C   UNL     1       6.967   4.673  18.152  0.00  0.00    +0.000 A 
ATOM     13  C   UNL     1       5.674   4.522  18.626  0.00  0.00    +0.000 A 
ATOM     14  N   UNL     1       5.289   3.339  19.136  0.00  0.00    +0.000 NA
ATOM     15  C   UNL     1       4.009   3.227  19.549  0.00  0.00    +0.000 A 
ATOM     16  C   UNL     1       3.082   4.257  19.483  0.00  0.00    +0.000 A 
ATOM     17  C   UNL     1       3.501   5.497  18.980  0.00  0.00    +0.000 A 
ATOM     18  C   UNL     1       4.818   5.644  18.526  0.00  0.00    +0.000 A 
ATOM     19  N   UNL     1       5.221   6.816  17.998  0.00  0.00    +0.000 NA
BRANCH  10  21
ATOM     20  C   UNL     1       7.987   8.696  17.718  0.00  0.00    +0.000 C 
ATOM     21  O   UNL     1       6.916   8.101  16.988  0.00  0.00    +0.000 OA
ENDBRANCH  10  21
BRANCH  16  22
ATOM     22  C   UNL     1       1.741   3.991  19.907  0.00  0.00    +0.000 C 
ATOM     23  N   UNL     1       0.652   3.763  20.222  0.00  0.00    +0.000 NA
ENDBRANCH  16  22
ENDBRANCH   9  17
ENDBRANCH   8   9
ENDBRANCH   1   8
BRANCH   4  24
ATOM     24  C   UNL     1      -0.286  11.170  20.733  0.00  0.00    +0.000 C 
BRANCH  24  25
ATOM     25  N   UNL     1      -0.815  11.928  19.593  0.00  0.00    +0.000 NA
ATOM     26  H   UNL     1      -0.463  11.561  18.710  0.00  0.00    +0.000 HD
BRANCH  25  27
ATOM     27  C   UNL     1      -2.275  11.943  19.563  0.00  0.00    +0.000 C 
BRANCH  27  28
ATOM     28  C   UNL     1      -2.807  11.448  18.246  0.00  0.00    +0.000 A 
ATOM     29  C   UNL     1      -4.134  11.708  17.873  0.00  0.00    +0.000 A 
ATOM     30  C   UNL     1      -4.613  11.290  16.633  0.00  0.00    +0.000 A 
ATOM     31  C   UNL     1      -3.772  10.603  15.761  0.00  0.00    +0.000 A 
ATOM     32  C   UNL     1      -2.458  10.324  16.130  0.00  0.00    +0.000 A 
ATOM     33  C   UNL     1      -1.976  10.743  17.365  0.00  0.00    +0.000 A 
ENDBRANCH  27  28
ENDBRANCH  25  27
ENDBRANCH  24  25
ENDBRANCH   4  24
TORSDOF 10
ENDMDL
MODEL 3
REMARK VINA RESULT:      -7.4      1.763      3.527
REMARK  Name = 
REMARK  11 active torsions:
REMARK  status: ('A' for Active; 'I' for Inactive)
REMARK    1  A    between atoms: C_1  and  O_2
REMARK    2  A    between atoms: O_2  and  C_3
REMARK    3  A    between atoms: C_9  and  C_10
REMARK    4  A    between atoms: C_12  and  C_13
REMARK    5  A    between atoms: C_13  and  C_14
REMARK    6  A    between atoms: C_14  and  N_15
REMARK    7  A    between atoms: C_17  and  O_18
REMARK    8  A    between atoms: C_19  and  C_20
REMARK    9  A    between atoms: C_20  and  N_21
REMARK   10  A    between atoms: N_21  and  C_22
REMARK   11  A    between atoms: C_22  and  C_23
REMARK                            x       y       z     vdW  Elec       q    Type
REMARK                         _______ _______ _______ _____ _____    ______ ____
ROOT
ATOM      1  N   UNL     1       5.920   5.339  16.741  0.00  0.00    +0.000 NA
ATOM      2  C   UNL     1       7.018   4.931  17.638  0.00  0.00    +0.000 C 
ATOM      3  C   UNL     1       7.048   5.984  18.737  0.00  0.00    +0.000 C 
ATOM      4  C   UNL     1       6.771   7.273  17.971  0.00  0.00    +0.000 C 
ATOM      5  C   UNL     1       5.856   6.813  16.828  0.00  0.00    +0.000 C 
ENDROOT
BRANCH   3   6
ATOM      6  O   UNL     1       8.237   6.011  19.505  0.00  0.00    +0.000 OA
ATOM      7  H   UNL     1       8.978   5.723  18.947  0.00  0.00    +0.000 HD
ENDBRANCH   3   6
BRANCH   1   8
ATOM      8  C   UNL     1       4.654   4.700  17.147  0.00  0.00    +0.000 C 
BRANCH   8   9
ATOM      9  C   UNL     1       3.418   5.617  17.041  0.00  0.00    +0.000 C 
BRANCH   9  17
ATOM     10  C   UNL     1       2.536   2.457  19.588  0.00  0.00    +0.000 A 
ATOM     11  C   UNL     1       1.946   2.591  20.826  0.00  0.00    +0.000 A 
ATOM     12  C   UNL     1       1.648   3.878  21.268  0.00  0.00    +0.000 A 
ATOM     13  C   UNL     1       1.926   4.984  20.482  0.00  0.00    +0.000 A 
ATOM     14  N   UNL     1       1.607   6.212  20.928  0.00  0.00    +0.000 NA
ATOM     15  C   UNL     1       1.860   7.255  20.111  0.00  0.00    +0.000 A 
ATOM     16  C   UNL     1       2.433   7.132  18.854  0.00  0.00    +0.000 A 
ATOM     17  C   UNL     1       2.793   5.851  18.410  0.00  0.00    +0.000 A 
ATOM     18  C   UNL     1       2.528   4.743  19.224  0.00  0.00    +0.000 A 
ATOM     19  N   UNL     1       2.827   3.503  18.791  0.00  0.00    +0.000 NA
BRANCH  10  21
ATOM     20  C   UNL     1       3.966   1.121  18.315  0.00  0.00    +0.000 C 
ATOM     21  O   UNL     1       2.818   1.177  19.159  0.00  0.00    +0.000 OA
ENDBRANCH  10  21
BRANCH  16  22
ATOM     22  C   UNL     1       2.601   8.315  18.065  0.00  0.00    +0.000 C 
ATOM     23  N   UNL     1       2.710   9.265  17.414  0.00  0.00    +0.000 NA
ENDBRANCH  16  22
ENDBRANCH   9  17
ENDBRANCH   8   9
ENDBRANCH   1   8
BRANCH   4  24
ATOM     24  C   UNL     1       8.020   8.007  17.452  0.00  0.00    +0.000 C 
BRANCH  24  25
ATOM     25  N   UNL     1       8.117   9.409  17.872  0.00  0.00    +0.000 NA
ATOM     26  H   UNL     1       7.197   9.805  18.058  0.00  0.00    +0.000 HD
BRANCH  25  27
ATOM     27  C   UNL     1       8.964   9.580  19.050  0.00  0.00    +0.000 C 
BRANCH  27  28
ATOM     28  C   UNL     1       9.665  10.912  19.040  0.00  0.00    +0.000 A 
ATOM     29  C   UNL     1      10.466  11.300  20.124  0.00  0.00    +0.000 A 
ATOM     30  C   UNL     1      11.153  12.512  20.094  0.00  0.00    +0.000 A 
ATOM     31  C   UNL     1      11.037  13.347  18.985  0.00  0.00    +0.000 A 
ATOM     32  C   UNL     1      10.229  12.978  17.912  0.00  0.00    +0.000 A 
ATOM     33  C   UNL     1       9.545  11.767  17.937  0.00  0.00    +0.000 A 
ENDBRANCH  27  28
ENDBRANCH  25  27
ENDBRANCH  24  25
ENDBRANCH   4  24
TORSDOF 10
ENDMDL
MODEL 4
REMARK VINA RESULT:      -7.4      4.470      8.855
REMARK  Name = 
REMARK  11 active torsions:
REMARK  status: ('A' for Active; 'I' for Inactive)
REMARK    1  A    between atoms: C_1  and  O_2
REMARK    2  A    between atoms: O_2  and  C_3
REMARK    3  A    between atoms: C_9  and  C_10
REMARK    4  A    between atoms: C_12  and  C_13
REMARK    5  A    between atoms: C_13  and  C_14
REMARK    6  A    between atoms: C_14  and  N_15
REMARK    7  A    between atoms: C_17  and  O_18
REMARK    8  A    between atoms: C_19  and  C_20
REMARK    9  A    between atoms: C_20  and  N_21
REMARK   10  A    between atoms: N_21  and  C_22
REMARK   11  A    between atoms: C_22  and  C_23
REMARK                            x       y       z     vdW  Elec       q    Type
REMARK                         _______ _______ _______ _____ _____    ______ ____
ROOT
ATOM      1  N   UNL     1       1.587   8.921  21.217  0.00  0.00    +0.000 NA
ATOM      2  C   UNL     1       1.283   9.316  22.605  0.00  0.00    +0.000 C 
ATOM      3  C   UNL     1      -0.237   9.323  22.695  0.00  0.00    +0.000 C 
ATOM      4  C   UNL     1      -0.648   9.904  21.346  0.00  0.00    +0.000 C 
ATOM      5  C   UNL     1       0.458   9.415  20.401  0.00  0.00    +0.000 C 
ENDROOT
BRANCH   3   6
ATOM      6  O   UNL     1      -0.766  10.016  23.809  0.00  0.00    +0.000 OA
ATOM      7  H   UNL     1      -0.081  10.076  24.496  0.00  0.00    +0.000 HD
ENDBRANCH   3   6
BRANCH   1   8
ATOM      8  C   UNL     1       1.749   7.458  21.117  0.00  0.00    +0.000 C 
BRANCH   8   9
ATOM      9  C   UNL     1       1.336   6.865  19.755  0.00  0.00    +0.000 C 
BRANCH   9  17
ATOM     10  C   UNL     1       3.330   3.269  20.346  0.00  0.00    +0.000 A 
ATOM     11  C   UNL     1       4.457   2.877  19.656  0.00  0.00    +0.000 A 
ATOM     12  C   UNL     1       4.949   3.733  18.674  0.00  0.00    +0.000 A 
ATOM     13  C   UNL     1       4.330   4.943  18.408  0.00  0.00    +0.000 A 
ATOM     14  N   UNL     1       4.841   5.757  17.467  0.00  0.00    +0.000 NA
ATOM     15  C   UNL     1       4.227   6.943  17.271  0.00  0.00    +0.000 A 
ATOM     16  C   UNL     1       3.106   7.359  17.973  0.00  0.00    +0.000 A 
ATOM     17  C   UNL     1       2.560   6.490  18.929  0.00  0.00    +0.000 A 
ATOM     18  C   UNL     1       3.181   5.259  19.172  0.00  0.00    +0.000 A 
ATOM     19  N   UNL     1       2.694   4.434  20.119  0.00  0.00    +0.000 NA
BRANCH  10  21
ATOM     20  C   UNL     1       1.491   2.656  21.647  0.00  0.00    +0.000 C 
ATOM     21  O   UNL     1       2.859   2.417  21.322  0.00  0.00    +0.000 OA
ENDBRANCH  10  21
BRANCH  16  22
ATOM     22  C   UNL     1       2.582   8.664  17.704  0.00  0.00    +0.000 C 
ATOM     23  N   UNL     1       2.169   9.715  17.457  0.00  0.00    +0.000 NA
ENDBRANCH  16  22
ENDBRANCH   9  17
ENDBRANCH   8   9
ENDBRANCH   1   8
BRANCH   4  24
ATOM     24  C   UNL     1      -0.801  11.434  21.313  0.00  0.00    +0.000 C 
BRANCH  24  25
ATOM     25  N   UNL     1      -0.868  12.008  19.965  0.00  0.00    +0.000 NA
ATOM     26  H   UNL     1      -0.437  11.391  19.278  0.00  0.00    +0.000 HD
BRANCH  25  27
ATOM     27  C   UNL     1      -2.238  12.306  19.554  0.00  0.00    +0.000 C 
BRANCH  27  28
ATOM     28  C   UNL     1      -2.642  11.501  18.348  0.00  0.00    +0.000 A 
ATOM     29  C   UNL     1      -3.919  11.655  17.787  0.00  0.00    +0.000 A 
ATOM     30  C   UNL     1      -4.276  10.944  16.643  0.00  0.00    +0.000 A 
ATOM     31  C   UNL     1      -3.363  10.071  16.057  0.00  0.00    +0.000 A 
ATOM     32  C   UNL     1      -2.100   9.898  16.617  0.00  0.00    +0.000 A 
ATOM     33  C   UNL     1      -1.739  10.608  17.757  0.00  0.00    +0.000 A 
ENDBRANCH  27  28
ENDBRANCH  25  27
ENDBRANCH  24  25
ENDBRANCH   4  24
TORSDOF 10
ENDMDL
MODEL 5
REMARK VINA RESULT:      -7.4      4.060      8.636
REMARK  Name = 
REMARK  11 active torsions:
REMARK  status: ('A' for Active; 'I' for Inactive)
REMARK    1  A    between atoms: C_1  and  O_2
REMARK    2  A    between atoms: O_2  and  C_3
REMARK    3  A    between atoms: C_9  and  C_10
REMARK    4  A    between atoms: C_12  and  C_13
REMARK    5  A    between atoms: C_13  and  C_14
REMARK    6  A    between atoms: C_14  and  N_15
REMARK    7  A    between atoms: C_17  and  O_18
REMARK    8  A    between atoms: C_19  and  C_20
REMARK    9  A    between atoms: C_20  and  N_21
REMARK   10  A    between atoms: N_21  and  C_22
REMARK   11  A    between atoms: C_22  and  C_23
REMARK                            x       y       z     vdW  Elec       q    Type
REMARK                         _______ _______ _______ _____ _____    ______ ____
ROOT
ATOM      1  N   UNL     1       1.245   8.501  18.771  0.00  0.00    +0.000 NA
ATOM      2  C   UNL     1       1.623   9.374  17.644  0.00  0.00    +0.000 C 
ATOM      3  C   UNL     1       2.228  10.616  18.285  0.00  0.00    +0.000 C 
ATOM      4  C   UNL     1       1.330  10.834  19.498  0.00  0.00    +0.000 C 
ATOM      5  C   UNL     1       0.916   9.409  19.890  0.00  0.00    +0.000 C 
ENDROOT
BRANCH   3   6
ATOM      6  O   UNL     1       2.329  11.739  17.430  0.00  0.00    +0.000 OA
ATOM      7  H   UNL     1       2.806  12.446  17.894  0.00  0.00    +0.000 HD
ENDBRANCH   3   6
BRANCH   1   8
ATOM      8  C   UNL     1       2.346   7.579  19.106  0.00  0.00    +0.000 C 
BRANCH   8   9
ATOM      9  C   UNL     1       2.623   6.505  18.034  0.00  0.00    +0.000 C 
BRANCH   9  17
ATOM     10  C   UNL     1       6.728   6.914  17.541  0.00  0.00    +0.000 A 
ATOM     11  C   UNL     1       7.662   5.991  17.960  0.00  0.00    +0.000 A 
ATOM     12  C   UNL     1       7.202   4.853  18.618  0.00  0.00    +0.000 A 
ATOM     13  C   UNL     1       5.848   4.652  18.834  0.00  0.00    +0.000 A 
ATOM     14  N   UNL     1       5.434   3.533  19.453  0.00  0.00    +0.000 NA
ATOM     15  C   UNL     1       4.104   3.363  19.605  0.00  0.00    +0.000 A 
ATOM     16  C   UNL     1       3.152   4.273  19.170  0.00  0.00    +0.000 A 
ATOM     17  C   UNL     1       3.594   5.453  18.554  0.00  0.00    +0.000 A 
ATOM     18  C   UNL     1       4.967   5.655  18.363  0.00  0.00    +0.000 A 
ATOM     19  N   UNL     1       5.403   6.762  17.732  0.00  0.00    +0.000 NA
BRANCH  10  21
ATOM     20  C   UNL     1       8.019   8.851  17.711  0.00  0.00    +0.000 C 
ATOM     21  O   UNL     1       7.195   8.032  16.884  0.00  0.00    +0.000 OA
ENDBRANCH  10  21
BRANCH  16  22
ATOM     22  C   UNL     1       1.770   3.947  19.347  0.00  0.00    +0.000 C 
ATOM     23  N   UNL     1       0.645   3.714  19.487  0.00  0.00    +0.000 NA
ENDBRANCH  16  22
ENDBRANCH   9  17
ENDBRANCH   8   9
ENDBRANCH   1   8
BRANCH   4  24
ATOM     24  C   UNL     1       0.114  11.744  19.257  0.00  0.00    +0.000 C 
BRANCH  24  25
ATOM     25  N   UNL     1      -1.170  11.036  19.193  0.00  0.00    +0.000 NA
ATOM     26  H   UNL     1      -1.792  11.331  19.944  0.00  0.00    +0.000 HD
BRANCH  25  27
ATOM     27  C   UNL     1      -1.842  11.217  17.909  0.00  0.00    +0.000 C 
BRANCH  27  28
ATOM     28  C   UNL     1      -3.283  11.612  18.089  0.00  0.00    +0.000 A 
ATOM     29  C   UNL     1      -3.738  12.096  19.324  0.00  0.00    +0.000 A 
ATOM     30  C   UNL     1      -5.061  12.506  19.477  0.00  0.00    +0.000 A 
ATOM     31  C   UNL     1      -5.939  12.427  18.399  0.00  0.00    +0.000 A 
ATOM     32  C   UNL     1      -5.501  11.930  17.173  0.00  0.00    +0.000 A 
ATOM     33  C   UNL     1      -4.181  11.524  17.017  0.00  0.00    +0.000 A 
ENDBRANCH  27  28
ENDBRANCH  25  27
ENDBRANCH  24  25
ENDBRANCH   4  24
TORSDOF 10
ENDMDL
MODEL 6
REMARK VINA RESULT:      -7.3      5.945     10.013
REMARK  Name = 
REMARK  11 active torsions:
REMARK  status: ('A' for Active; 'I' for Inactive)
REMARK    1  A    between atoms: C_1  and  O_2
REMARK    2  A    between atoms: O_2  and  C_3
REMARK    3  A    between atoms: C_9  and  C_10
REMARK    4  A    between atoms: C_12  and  C_13
REMARK    5  A    between atoms: C_13  and  C_14
REMARK    6  A    between atoms: C_14  and  N_15
REMARK    7  A    between atoms: C_17  and  O_18
REMARK    8  A    between atoms: C_19  and  C_20
REMARK    9  A    between atoms: C_20  and  N_21
REMARK   10  A    between atoms: N_21  and  C_22
REMARK   11  A    between atoms: C_22  and  C_23
REMARK                            x       y       z     vdW  Elec       q    Type
REMARK                         _______ _______ _______ _____ _____    ______ ____
ROOT
ATOM      1  N   UNL     1      -0.029  11.414  19.514  0.00  0.00    +0.000 NA
ATOM      2  C   UNL     1       1.173  11.203  18.685  0.00  0.00    +0.000 C 
ATOM      3  C   UNL     1       1.135   9.733  18.292  0.00  0.00    +0.000 C 
ATOM      4  C   UNL     1       0.632   9.061  19.565  0.00  0.00    +0.000 C 
ATOM      5  C   UNL     1      -0.288  10.122  20.183  0.00  0.00    +0.000 C 
ENDROOT
BRANCH   3   6
ATOM      6  O   UNL     1       2.359   9.213  17.807  0.00  0.00    +0.000 OA
ATOM      7  H   UNL     1       2.352   8.247  17.906  0.00  0.00    +0.000 HD
ENDBRANCH   3   6
BRANCH   1   8
ATOM      8  C   UNL     1      -1.165  11.848  18.679  0.00  0.00    +0.000 C 
BRANCH   8   9
ATOM      9  C   UNL     1      -2.321  10.829  18.602  0.00  0.00    +0.000 C 
BRANCH   9  17
ATOM     10  C   UNL     1      -4.698  12.600  21.512  0.00  0.00    +0.000 A 
ATOM     11  C   UNL     1      -5.907  13.215  21.267  0.00  0.00    +0.000 A 
ATOM     12  C   UNL     1      -6.353  13.271  19.949  0.00  0.00    +0.000 A 
ATOM     13  C   UNL     1      -5.608  12.716  18.921  0.00  0.00    +0.000 A 
ATOM     14  N   UNL     1      -6.076  12.768  17.661  0.00  0.00    +0.000 NA
ATOM     15  C   UNL     1      -5.336  12.179  16.698  0.00  0.00    +0.000 A 
ATOM     16  C   UNL     1      -4.129  11.539  16.934  0.00  0.00    +0.000 A 
ATOM     17  C   UNL     1      -3.632  11.518  18.245  0.00  0.00    +0.000 A 
ATOM     18  C   UNL     1      -4.383  12.103  19.273  0.00  0.00    +0.000 A 
ATOM     19  N   UNL     1      -3.940  12.051  20.544  0.00  0.00    +0.000 NA
BRANCH  10  21
ATOM     20  C   UNL     1      -4.652  13.694  23.573  0.00  0.00    +0.000 C 
ATOM     21  O   UNL     1      -4.272  12.544  22.822  0.00  0.00    +0.000 OA
ENDBRANCH  10  21
BRANCH  16  22
ATOM     22  C   UNL     1      -3.468  10.909  15.831  0.00  0.00    +0.000 C 
ATOM     23  N   UNL     1      -2.912  10.390  14.960  0.00  0.00    +0.000 NA
ENDBRANCH  16  22
ENDBRANCH   9  17
ENDBRANCH   8   9
ENDBRANCH   1   8
BRANCH   4  24
ATOM     24  C   UNL     1       1.730   8.607  20.542  0.00  0.00    +0.000 C 
BRANCH  24  25
ATOM     25  N   UNL     1       2.330   7.307  20.220  0.00  0.00    +0.000 NA
ATOM     26  H   UNL     1       3.309   7.273  20.499  0.00  0.00    +0.000 HD
BRANCH  25  27
ATOM     27  C   UNL     1       1.611   6.194  20.836  0.00  0.00    +0.000 C 
BRANCH  27  28
ATOM     28  C   UNL     1       1.555   4.999  19.923  0.00  0.00    +0.000 A 
ATOM     29  C   UNL     1       2.060   5.078  18.617  0.00  0.00    +0.000 A 
ATOM     30  C   UNL     1       2.051   3.958  17.789  0.00  0.00    +0.000 A 
ATOM     31  C   UNL     1       1.530   2.754  18.257  0.00  0.00    +0.000 A 
ATOM     32  C   UNL     1       1.008   2.671  19.546  0.00  0.00    +0.000 A 
ATOM     33  C   UNL     1       1.020   3.786  20.377  0.00  0.00    +0.000 A 
ENDBRANCH  27  28
ENDBRANCH  25  27
ENDBRANCH  24  25
ENDBRANCH   4  24
TORSDOF 10
ENDMDL
MODEL 7
REMARK VINA RESULT:      -7.2      8.489     11.662
REMARK  Name = 
REMARK  11 active torsions:
REMARK  status: ('A' for Active; 'I' for Inactive)
REMARK    1  A    between atoms: C_1  and  O_2
REMARK    2  A    between atoms: O_2  and  C_3
REMARK    3  A    between atoms: C_9  and  C_10
REMARK    4  A    between atoms: C_12  and  C_13
REMARK    5  A    between atoms: C_13  and  C_14
REMARK    6  A    between atoms: C_14  and  N_15
REMARK    7  A    between atoms: C_17  and  O_18
REMARK    8  A    between atoms: C_19  and  C_20
REMARK    9  A    between atoms: C_20  and  N_21
REMARK   10  A    between atoms: N_21  and  C_22
REMARK   11  A    between atoms: C_22  and  C_23
REMARK                            x       y       z     vdW  Elec       q    Type
REMARK                         _______ _______ _______ _____ _____    ______ ____
ROOT
ATOM      1  N   UNL     1      -4.633  11.741  18.033  0.00  0.00    +0.000 NA
ATOM      2  C   UNL     1      -3.937  11.171  16.864  0.00  0.00    +0.000 C 
ATOM      3  C   UNL     1      -2.793  10.348  17.441  0.00  0.00    +0.000 C 
ATOM      4  C   UNL     1      -2.314  11.212  18.603  0.00  0.00    +0.000 C 
ATOM      5  C   UNL     1      -3.598  11.909  19.075  0.00  0.00    +0.000 C 
ENDROOT
BRANCH   3   6
ATOM      6  O   UNL     1      -1.778  10.008  16.516  0.00  0.00    +0.000 OA
ATOM      7  H   UNL     1      -1.582  10.782  15.964  0.00  0.00    +0.000 HD
ENDBRANCH   3   6
BRANCH   1   8
ATOM      8  C   UNL     1      -5.725  10.851  18.471  0.00  0.00    +0.000 C 
BRANCH   8   9
ATOM      9  C   UNL     1      -7.114  11.521  18.505  0.00  0.00    +0.000 C 
BRANCH   9  17
ATOM     10  C   UNL     1      -7.065  15.612  19.225  0.00  0.00    +0.000 A 
ATOM     11  C   UNL     1      -7.298  16.193  20.453  0.00  0.00    +0.000 A 
ATOM     12  C   UNL     1      -7.596  15.354  21.524  0.00  0.00    +0.000 A 
ATOM     13  C   UNL     1      -7.646  13.979  21.359  0.00  0.00    +0.000 A 
ATOM     14  N   UNL     1      -7.916  13.194  22.417  0.00  0.00    +0.000 NA
ATOM     15  C   UNL     1      -7.915  11.859  22.217  0.00  0.00    +0.000 A 
ATOM     16  C   UNL     1      -7.661  11.261  20.992  0.00  0.00    +0.000 A 
ATOM     17  C   UNL     1      -7.413  12.088  19.887  0.00  0.00    +0.000 A 
ATOM     18  C   UNL     1      -7.388  13.477  20.062  0.00  0.00    +0.000 A 
ATOM     19  N   UNL     1      -7.106  14.282  19.018  0.00  0.00    +0.000 NA
BRANCH  10  21
ATOM     20  C   UNL     1      -7.043  15.870  16.905  0.00  0.00    +0.000 C 
ATOM     21  O   UNL     1      -6.762  16.453  18.176  0.00  0.00    +0.000 OA
ENDBRANCH  10  21
BRANCH  16  22
ATOM     22  C   UNL     1      -7.639   9.831  20.926  0.00  0.00    +0.000 C 
ATOM     23  N   UNL     1      -7.633   8.675  20.902  0.00  0.00    +0.000 NA
ENDBRANCH  16  22
ENDBRANCH   9  17
ENDBRANCH   8   9
ENDBRANCH   1   8
BRANCH   4  24
ATOM     24  C   UNL     1      -1.204  12.219  18.255  0.00  0.00    +0.000 C 
BRANCH  24  25
ATOM     25  N   UNL     1       0.157  11.687  18.378  0.00  0.00    +0.000 NA
ATOM     26  H   UNL     1       0.845  12.437  18.420  0.00  0.00    +0.000 HD
BRANCH  25  27
ATOM     27  C   UNL     1       0.314  10.821  19.544  0.00  0.00    +0.000 C 
BRANCH  27  28
ATOM     28  C   UNL     1       1.089   9.575  19.209  0.00  0.00    +0.000 A 
ATOM     29  C   UNL     1       1.617   9.392  17.922  0.00  0.00    +0.000 A 
ATOM     30  C   UNL     1       2.374   8.261  17.626  0.00  0.00    +0.000 A 
ATOM     31  C   UNL     1       2.602   7.302  18.610  0.00  0.00    +0.000 A 
ATOM     32  C   UNL     1       2.065   7.466  19.885  0.00  0.00    +0.000 A 
ATOM     33  C   UNL     1       1.313   8.596  20.185  0.00  0.00    +0.000 A 
ENDBRANCH  27  28
ENDBRANCH  25  27
ENDBRANCH  24  25
ENDBRANCH   4  24
TORSDOF 10
ENDMDL
MODEL 8
REMARK VINA RESULT:      -7.2      3.878      8.202
REMARK  Name = 
REMARK  11 active torsions:
REMARK  status: ('A' for Active; 'I' for Inactive)
REMARK    1  A    between atoms: C_1  and  O_2
REMARK    2  A    between atoms: O_2  and  C_3
REMARK    3  A    between atoms: C_9  and  C_10
REMARK    4  A    between atoms: C_12  and  C_13
REMARK    5  A    between atoms: C_13  and  C_14
REMARK    6  A    between atoms: C_14  and  N_15
REMARK    7  A    between atoms: C_17  and  O_18
REMARK    8  A    between atoms: C_19  and  C_20
REMARK    9  A    between atoms: C_20  and  N_21
REMARK   10  A    between atoms: N_21  and  C_22
REMARK   11  A    between atoms: C_22  and  C_23
REMARK                            x       y       z     vdW  Elec       q    Type
REMARK                         _______ _______ _______ _____ _____    ______ ____
ROOT
ATOM      1  N   UNL     1       1.603   7.972  18.680  0.00  0.00    +0.000 NA
ATOM      2  C   UNL     1       1.200   9.107  17.828  0.00  0.00    +0.000 C 
ATOM      3  C   UNL     1       1.467  10.350  18.665  0.00  0.00    +0.000 C 
ATOM      4  C   UNL     1       1.040   9.910  20.061  0.00  0.00    +0.000 C 
ATOM      5  C   UNL     1       1.366   8.410  20.072  0.00  0.00    +0.000 C 
ENDROOT
BRANCH   3   6
ATOM      6  O   UNL     1       0.826  11.526  18.208  0.00  0.00    +0.000 OA
ATOM      7  H   UNL     1       0.236  11.855  18.905  0.00  0.00    +0.000 HD
ENDBRANCH   3   6
BRANCH   1   8
ATOM      8  C   UNL     1       3.014   7.618  18.439  0.00  0.00    +0.000 C 
BRANCH   8   9
ATOM      9  C   UNL     1       3.553   6.501  19.356  0.00  0.00    +0.000 C 
BRANCH   9  17
ATOM     10  C   UNL     1       6.651   5.902  16.654  0.00  0.00    +0.000 A 
ATOM     11  C   UNL     1       6.830   4.755  15.910  0.00  0.00    +0.000 A 
ATOM     12  C   UNL     1       5.924   3.713  16.093  0.00  0.00    +0.000 A 
ATOM     13  C   UNL     1       4.872   3.832  16.988  0.00  0.00    +0.000 A 
ATOM     14  N   UNL     1       4.002   2.816  17.127  0.00  0.00    +0.000 NA
ATOM     15  C   UNL     1       2.972   2.993  17.980  0.00  0.00    +0.000 A 
ATOM     16  C   UNL     1       2.769   4.149  18.719  0.00  0.00    +0.000 A 
ATOM     17  C   UNL     1       3.699   5.191  18.592  0.00  0.00    +0.000 A 
ATOM     18  C   UNL     1       4.771   5.049  17.702  0.00  0.00    +0.000 A 
ATOM     19  N   UNL     1       5.647   6.060  17.537  0.00  0.00    +0.000 NA
BRANCH  10  21
ATOM     20  C   UNL     1       7.757   7.711  17.631  0.00  0.00    +0.000 C 
ATOM     21  O   UNL     1       7.550   6.928  16.457  0.00  0.00    +0.000 OA
ENDBRANCH  10  21
BRANCH  16  22
ATOM     22  C   UNL     1       1.606   4.228  19.550  0.00  0.00    +0.000 C 
ATOM     23  N   UNL     1       0.650   4.278  20.199  0.00  0.00    +0.000 NA
ENDBRANCH  16  22
ENDBRANCH   9  17
ENDBRANCH   8   9
ENDBRANCH   1   8
BRANCH   4  24
ATOM     24  C   UNL     1      -0.432  10.184  20.412  0.00  0.00    +0.000 C 
BRANCH  24  25
ATOM     25  N   UNL     1      -0.744  11.596  20.659  0.00  0.00    +0.000 NA
ATOM     26  H   UNL     1      -1.749  11.764  20.624  0.00  0.00    +0.000 HD
BRANCH  25  27
ATOM     27  C   UNL     1      -0.219  12.067  21.937  0.00  0.00    +0.000 C 
BRANCH  27  28
ATOM     28  C   UNL     1      -1.304  12.650  22.802  0.00  0.00    +0.000 A 
ATOM     29  C   UNL     1      -1.149  13.919  23.378  0.00  0.00    +0.000 A 
ATOM     30  C   UNL     1      -2.174  14.478  24.139  0.00  0.00    +0.000 A 
ATOM     31  C   UNL     1      -3.356  13.769  24.336  0.00  0.00    +0.000 A 
ATOM     32  C   UNL     1      -3.512  12.500  23.784  0.00  0.00    +0.000 A 
ATOM     33  C   UNL     1      -2.493  11.941  23.020  0.00  0.00    +0.000 A 
ENDBRANCH  27  28
ENDBRANCH  25  27
ENDBRANCH  24  25
ENDBRANCH   4  24
TORSDOF 10
ENDMDL
MODEL 9
REMARK VINA RESULT:      -7.2      6.066     10.421
REMARK  Name = 
REMARK  11 active torsions:
REMARK  status: ('A' for Active; 'I' for Inactive)
REMARK    1  A    between atoms: C_1  and  O_2
REMARK    2  A    between atoms: O_2  and  C_3
REMARK    3  A    between atoms: C_9  and  C_10
REMARK    4  A    between atoms: C_12  and  C_13
REMARK    5  A    between atoms: C_13  and  C_14
REMARK    6  A    between atoms: C_14  and  N_15
REMARK    7  A    between atoms: C_17  and  O_18
REMARK    8  A    between atoms: C_19  and  C_20
REMARK    9  A    between atoms: C_20  and  N_21
REMARK   10  A    between atoms: N_21  and  C_22
REMARK   11  A    between atoms: C_22  and  C_23
REMARK                            x       y       z     vdW  Elec       q    Type
REMARK                         _______ _______ _______ _____ _____    ______ ____
ROOT
ATOM      1  N   UNL     1       0.636  11.105  21.570  0.00  0.00    +0.000 NA
ATOM      2  C   UNL     1       0.839  11.552  20.179  0.00  0.00    +0.000 C 
ATOM      3  C   UNL     1       0.141  10.509  19.318  0.00  0.00    +0.000 C 
ATOM      4  C   UNL     1       0.473   9.207  20.038  0.00  0.00    +0.000 C 
ATOM      5  C   UNL     1       0.555   9.630  21.511  0.00  0.00    +0.000 C 
ENDROOT
BRANCH   3   6
ATOM      6  O   UNL     1       0.506  10.524  17.951  0.00  0.00    +0.000 OA
ATOM      7  H   UNL     1       0.877   9.658  17.714  0.00  0.00    +0.000 HD
ENDBRANCH   3   6
BRANCH   1   8
ATOM      8  C   UNL     1      -0.585  11.709  22.136  0.00  0.00    +0.000 C 
BRANCH   8   9
ATOM      9  C   UNL     1      -1.046  12.996  21.424  0.00  0.00    +0.000 C 
BRANCH   9  17
ATOM     10  C   UNL     1      -4.371  12.025  19.130  0.00  0.00    +0.000 A 
ATOM     11  C   UNL     1      -5.667  12.369  19.446  0.00  0.00    +0.000 A 
ATOM     12  C   UNL     1      -5.884  13.069  20.631  0.00  0.00    +0.000 A 
ATOM     13  C   UNL     1      -4.827  13.416  21.457  0.00  0.00    +0.000 A 
ATOM     14  N   UNL     1      -5.066  14.110  22.583  0.00  0.00    +0.000 NA
ATOM     15  C   UNL     1      -4.002  14.461  23.336  0.00  0.00    +0.000 A 
ATOM     16  C   UNL     1      -2.691  14.139  23.018  0.00  0.00    +0.000 A 
ATOM     17  C   UNL     1      -2.453  13.387  21.858  0.00  0.00    +0.000 A 
ATOM     18  C   UNL     1      -3.532  13.022  21.044  0.00  0.00    +0.000 A 
ATOM     19  N   UNL     1      -3.314  12.338  19.903  0.00  0.00    +0.000 NA
BRANCH  10  21
ATOM     20  C   UNL     1      -2.844  11.490  17.447  0.00  0.00    +0.000 C 
ATOM     21  O   UNL     1      -4.169  11.340  17.951  0.00  0.00    +0.000 OA
ENDBRANCH  10  21
BRANCH  16  22
ATOM     22  C   UNL     1      -1.648  14.616  23.875  0.00  0.00    +0.000 C 
ATOM     23  N   UNL     1      -0.812  14.978  24.587  0.00  0.00    +0.000 NA
ENDBRANCH  16  22
ENDBRANCH   9  17
ENDBRANCH   8   9
ENDBRANCH   1   8
BRANCH   4  24
ATOM     24  C   UNL     1       1.758   8.507  19.565  0.00  0.00    +0.000 C 
BRANCH  24  25
ATOM     25  N   UNL     1       2.165   7.364  20.391  0.00  0.00    +0.000 NA
ATOM     26  H   UNL     1       1.358   6.901  20.806  0.00  0.00    +0.000 HD
BRANCH  25  27
ATOM     27  C   UNL     1       2.951   6.387  19.642  0.00  0.00    +0.000 C 
BRANCH  27  28
ATOM     28  C   UNL     1       2.221   5.079  19.502  0.00  0.00    +0.000 A 
ATOM     29  C   UNL     1       1.693   4.436  20.632  0.00  0.00    +0.000 A 
ATOM     30  C   UNL     1       0.976   3.249  20.497  0.00  0.00    +0.000 A 
ATOM     31  C   UNL     1       0.789   2.693  19.234  0.00  0.00    +0.000 A 
ATOM     32  C   UNL     1       1.326   3.314  18.108  0.00  0.00    +0.000 A 
ATOM     33  C   UNL     1       2.038   4.501  18.239  0.00  0.00    +0.000 A 
ENDBRANCH  27  28
ENDBRANCH  25  27
ENDBRANCH  24  25
ENDBRANCH   4  24
TORSDOF 10
ENDMDL
