MODEL 1
REMARK VINA RESULT:      -8.0      0.000      0.000
REMARK  Name = 
REMARK  8 active torsions:
REMARK  status: ('A' for Active; 'I' for Inactive)
REMARK    1  A    between atoms: C_1  and  N_2
REMARK    2  A    between atoms: N_5  and  C_6
REMARK    3  A    between atoms: C_6  and  C_7
REMARK    4  A    between atoms: C_7  and  C_8
REMARK    5  A    between atoms: C_8  and  N_9
REMARK    6  A    between atoms: N_9  and  C_20
REMARK    7  A    between atoms: C_10  and  C_12
REMARK    8  A    between atoms: C_14  and  C_15
REMARK                            x       y       z     vdW  Elec       q    Type
REMARK                         _______ _______ _______ _____ _____    ______ ____
ROOT
ATOM      1  N   UNL     1       7.305   6.528  18.305  0.00  0.00    +0.000 N 
ATOM      2  C   UNL     1       6.901   5.659  19.359  0.00  0.00    +0.000 C 
ATOM      3  O   UNL     1       7.526   5.590  20.417  0.00  0.00    +0.000 OA
ENDROOT
BRANCH   2   4
ATOM      4  C   UNL     1       5.706   4.776  19.175  0.00  0.00    +0.000 A 
ATOM      5  C   UNL     1       4.329   5.161  19.292  0.00  0.00    +0.000 A 
ATOM      6  C   UNL     1       3.609   3.992  19.162  0.00  0.00    +0.000 A 
ATOM      7  N   UNL     1       4.526   3.036  18.840  0.00  0.00    +0.000 N 
ATOM      8  N   UNL     1       5.787   3.470  18.848  0.00  0.00    +0.000 NA
ATOM      9  H   UNL     1       4.352   2.062  18.642  0.00  0.00    +0.000 HD
BRANCH   6  10
ATOM     10  C   UNL     1       2.137   3.697  19.355  0.00  0.00    +0.000 C 
ATOM     11  C   UNL     1       1.236   3.779  18.144  0.00  0.00    +0.000 C 
ATOM     12  C   UNL     1       1.493   2.456  18.785  0.00  0.00    +0.000 C 
ENDBRANCH   6  10
ENDBRANCH   2   4
BRANCH   1  13
ATOM     13  C   UNL     1       6.871   6.274  16.903  0.00  0.00    +0.000 C 
ATOM     14  C   UNL     1       5.372   6.512  16.623  0.00  0.00    +0.000 C 
ATOM     15  C   UNL     1       5.075   6.263  15.148  0.00  0.00    +0.000 C 
ATOM     16  O   UNL     1       5.472   4.949  14.761  0.00  0.00    +0.000 OA
ATOM     17  C   UNL     1       6.867   4.718  14.958  0.00  0.00    +0.000 C 
ATOM     18  C   UNL     1       7.227   4.857  16.432  0.00  0.00    +0.000 C 
ENDBRANCH   1  13
BRANCH   1  19
ATOM     19  C   UNL     1       8.427   7.481  18.489  0.00  0.00    +0.000 C 
BRANCH  19  20
ATOM     20  C   UNL     1       8.238   8.937  18.042  0.00  0.00    +0.000 C 
BRANCH  20  21
ATOM     21  C   UNL     1       9.006   9.953  18.919  0.00  0.00    +0.000 C 
BRANCH  21  26
ATOM     22  C   UNL     1      10.315  14.264  21.087  0.00  0.00    +0.000 C 
ATOM     23  N   UNL     1      10.329  13.413  19.904  0.00  0.00    +0.000 NA
ATOM     24  C   UNL     1       8.975  13.178  19.372  0.00  0.00    +0.000 C 
ATOM     25  C   UNL     1       9.003  12.290  18.101  0.00  0.00    +0.000 C 
ATOM     26  N   UNL     1       9.741  11.011  18.211  0.00  0.00    +0.000 NA
ATOM     27  C   UNL     1      11.050  11.284  18.860  0.00  0.00    +0.000 C 
ATOM     28  C   UNL     1      10.974  12.117  20.165  0.00  0.00    +0.000 C 
ENDBRANCH  21  26
ENDBRANCH  20  21
ENDBRANCH  19  20
ENDBRANCH   1  19
TORSDOF 7
ENDMDL
MODEL 2
REMARK VINA RESULT:      -7.9      2.320      8.596
REMARK  Name = 
REMARK  8 active torsions:
REMARK  status: ('A' for Active; 'I' for Inactive)
REMARK    1  A    between atoms: C_1  and  N_2
REMARK    2  A    between atoms: N_5  and  C_6
REMARK    3  A    between atoms: C_6  and  C_7
REMARK    4  A    between atoms: C_7  and  C_8
REMARK    5  A    between atoms: C_8  and  N_9
REMARK    6  A    between atoms: N_9  and  C_20
REMARK    7  A    between atoms: C_10  and  C_12
REMARK    8  A    between atoms: C_14  and  C_15
REMARK                            x       y       z     vdW  Elec       q    Type
REMARK                         _______ _______ _______ _____ _____    ______ ____
ROOT
ATOM      1  N   UNL     1       5.635   5.199  18.014  0.00  0.00    +0.000 N 
ATOM      2  C   UNL     1       7.036   5.454  17.980  0.00  0.00    +0.000 C 
ATOM      3  O   UNL     1       7.862   4.544  18.044  0.00  0.00    +0.000 OA
ENDROOT
BRANCH   2   4
ATOM      4  C   UNL     1       7.531   6.864  17.899  0.00  0.00    +0.000 A 
ATOM      5  C   UNL     1       8.367   7.536  18.853  0.00  0.00    +0.000 A 
ATOM      6  C   UNL     1       8.448   8.841  18.415  0.00  0.00    +0.000 A 
ATOM      7  N   UNL     1       7.819   8.857  17.206  0.00  0.00    +0.000 N 
ATOM      8  N   UNL     1       7.254   7.695  16.874  0.00  0.00    +0.000 NA
ATOM      9  H   UNL     1       7.711   9.641  16.581  0.00  0.00    +0.000 HD
BRANCH   6  10
ATOM     10  C   UNL     1       9.035  10.078  19.060  0.00  0.00    +0.000 C 
ATOM     11  C   UNL     1      10.250  10.704  18.411  0.00  0.00    +0.000 C 
ATOM     12  C   UNL     1       8.948  11.434  18.403  0.00  0.00    +0.000 C 
ENDBRANCH   6  10
ENDBRANCH   2   4
BRANCH   1  13
ATOM     13  C   UNL     1       4.678   6.267  18.415  0.00  0.00    +0.000 C 
ATOM     14  C   UNL     1       3.578   5.830  19.404  0.00  0.00    +0.000 C 
ATOM     15  C   UNL     1       2.702   7.025  19.766  0.00  0.00    +0.000 C 
ATOM     16  O   UNL     1       2.142   7.621  18.598  0.00  0.00    +0.000 OA
ATOM     17  C   UNL     1       3.140   8.085  17.687  0.00  0.00    +0.000 C 
ATOM     18  C   UNL     1       4.001   6.925  17.205  0.00  0.00    +0.000 C 
ENDBRANCH   1  13
BRANCH   1  19
ATOM     19  C   UNL     1       5.111   3.810  17.999  0.00  0.00    +0.000 C 
BRANCH  19  20
ATOM     20  C   UNL     1       4.239   3.364  16.818  0.00  0.00    +0.000 C 
BRANCH  20  21
ATOM     21  C   UNL     1       2.722   3.433  17.115  0.00  0.00    +0.000 C 
BRANCH  21  26
ATOM     22  C   UNL     1       1.891   3.038  22.028  0.00  0.00    +0.000 C 
ATOM     23  N   UNL     1       1.791   2.449  20.700  0.00  0.00    +0.000 NA
ATOM     24  C   UNL     1       3.113   2.197  20.101  0.00  0.00    +0.000 C 
ATOM     25  C   UNL     1       2.996   1.549  18.697  0.00  0.00    +0.000 C 
ATOM     26  N   UNL     1       2.116   2.242  17.728  0.00  0.00    +0.000 NA
ATOM     27  C   UNL     1       0.842   2.579  18.414  0.00  0.00    +0.000 C 
ATOM     28  C   UNL     1       1.001   3.287  19.784  0.00  0.00    +0.000 C 
ENDBRANCH  21  26
ENDBRANCH  20  21
ENDBRANCH  19  20
ENDBRANCH   1  19
TORSDOF 7
ENDMDL
MODEL 3
REMARK VINA RESULT:      -7.8      4.722      6.632
REMARK  Name = 
REMARK  8 active torsions:
REMARK  status: ('A' for Active; 'I' for Inactive)
REMARK    1  A    between atoms: C_1  and  N_2
REMARK    2  A    between atoms: N_5  and  C_6
REMARK    3  A    between atoms: C_6  and  C_7
REMARK    4  A    between atoms: C_7  and  C_8
REMARK    5  A    between atoms: C_8  and  N_9
REMARK    6  A    between atoms: N_9  and  C_20
REMARK    7  A    between atoms: C_10  and  C_12
REMARK    8  A    between atoms: C_14  and  C_15
REMARK                            x       y       z     vdW  Elec       q    Type
REMARK                         _______ _______ _______ _____ _____    ______ ____
ROOT
ATOM      1  N   UNL     1       4.123   5.692  18.340  0.00  0.00    +0.000 N 
ATOM      2  C   UNL     1       4.682   6.482  17.294  0.00  0.00    +0.000 C 
ATOM      3  O   UNL     1       4.470   7.691  17.213  0.00  0.00    +0.000 OA
ENDROOT
BRANCH   2   4
ATOM      4  C   UNL     1       5.524   5.830  16.241  0.00  0.00    +0.000 A 
ATOM      5  C   UNL     1       5.063   4.994  15.172  0.00  0.00    +0.000 A 
ATOM      6  C   UNL     1       6.203   4.534  14.547  0.00  0.00    +0.000 A 
ATOM      7  N   UNL     1       7.234   5.200  15.141  0.00  0.00    +0.000 N 
ATOM      8  N   UNL     1       6.862   5.974  16.162  0.00  0.00    +0.000 NA
ATOM      9  H   UNL     1       8.215   5.135  14.917  0.00  0.00    +0.000 HD
BRANCH   6  10
ATOM     10  C   UNL     1       6.403   3.494  13.466  0.00  0.00    +0.000 C 
ATOM     11  C   UNL     1       5.436   3.490  12.303  0.00  0.00    +0.000 C 
ATOM     12  C   UNL     1       6.863   3.867  12.078  0.00  0.00    +0.000 C 
ENDBRANCH   6  10
ENDBRANCH   2   4
BRANCH   1  13
ATOM     13  C   UNL     1       3.973   4.219  18.181  0.00  0.00    +0.000 C 
ATOM     14  C   UNL     1       2.605   3.749  17.642  0.00  0.00    +0.000 C 
ATOM     15  C   UNL     1       2.605   2.232  17.484  0.00  0.00    +0.000 C 
ATOM     16  O   UNL     1       2.926   1.588  18.716  0.00  0.00    +0.000 OA
ATOM     17  C   UNL     1       4.211   1.964  19.211  0.00  0.00    +0.000 C 
ATOM     18  C   UNL     1       4.260   3.461  19.485  0.00  0.00    +0.000 C 
ENDBRANCH   1  13
BRANCH   1  19
ATOM     19  C   UNL     1       3.362   6.320  19.449  0.00  0.00    +0.000 C 
BRANCH  19  20
ATOM     20  C   UNL     1       2.033   7.016  19.128  0.00  0.00    +0.000 C 
BRANCH  20  21
ATOM     21  C   UNL     1       1.819   8.326  19.923  0.00  0.00    +0.000 C 
BRANCH  21  26
ATOM     22  C   UNL     1       1.966  13.314  19.636  0.00  0.00    +0.000 C 
ATOM     23  N   UNL     1       1.201  12.083  19.490  0.00  0.00    +0.000 NA
ATOM     24  C   UNL     1       1.041  11.372  20.770  0.00  0.00    +0.000 C 
ATOM     25  C   UNL     1       0.206  10.075  20.607  0.00  0.00    +0.000 C 
ATOM     26  N   UNL     1       0.651   9.138  19.550  0.00  0.00    +0.000 NA
ATOM     27  C   UNL     1       0.912   9.921  18.314  0.00  0.00    +0.000 C 
ATOM     28  C   UNL     1       1.807  11.172  18.506  0.00  0.00    +0.000 C 
ENDBRANCH  21  26
ENDBRANCH  20  21
ENDBRANCH  19  20
ENDBRANCH   1  19
TORSDOF 7
ENDMDL
MODEL 4
REMARK VINA RESULT:      -7.8      6.741      9.472
REMARK  Name = 
REMARK  8 active torsions:
REMARK  status: ('A' for Active; 'I' for Inactive)
REMARK    1  A    between atoms: C_1  and  N_2
REMARK    2  A    between atoms: N_5  and  C_6
REMARK    3  A    between atoms: C_6  and  C_7
REMARK    4  A    between atoms: C_7  and  C_8
REMARK    5  A    between atoms: C_8  and  N_9
REMARK    6  A    between atoms: N_9  and  C_20
REMARK    7  A    between atoms: C_10  and  C_12
REMARK    8  A    between atoms: C_14  and  C_15
REMARK                            x       y       z     vdW  Elec       q    Type
REMARK                         _______ _______ _______ _____ _____    ______ ____
ROOT
ATOM      1  N   UNL     1       0.775   9.295  19.634  0.00  0.00    +0.000 N 
ATOM      2  C   UNL     1       0.544   9.798  18.321  0.00  0.00    +0.000 C 
ATOM      3  O   UNL     1       1.383   9.687  17.428  0.00  0.00    +0.000 OA
ENDROOT
BRANCH   2   4
ATOM      4  C   UNL     1      -0.735  10.513  18.016  0.00  0.00    +0.000 A 
ATOM      5  C   UNL     1      -2.016   9.914  17.773  0.00  0.00    +0.000 A 
ATOM      6  C   UNL     1      -2.846  10.956  17.417  0.00  0.00    +0.000 A 
ATOM      7  N   UNL     1      -2.108  12.087  17.600  0.00  0.00    +0.000 N 
ATOM      8  N   UNL     1      -0.841  11.856  17.948  0.00  0.00    +0.000 NA
ATOM      9  H   UNL     1      -2.405  13.041  17.464  0.00  0.00    +0.000 HD
BRANCH   6  10
ATOM     10  C   UNL     1      -4.263  10.969  16.883  0.00  0.00    +0.000 C 
ATOM     11  C   UNL     1      -5.394  10.851  17.880  0.00  0.00    +0.000 C 
ATOM     12  C   UNL     1      -5.197  12.128  17.134  0.00  0.00    +0.000 C 
ENDBRANCH   6  10
ENDBRANCH   2   4
BRANCH   1  13
ATOM     13  C   UNL     1       0.014   9.830  20.797  0.00  0.00    +0.000 C 
ATOM     14  C   UNL     1       0.274  11.314  21.129  0.00  0.00    +0.000 C 
ATOM     15  C   UNL     1      -0.600  11.742  22.304  0.00  0.00    +0.000 C 
ATOM     16  O   UNL     1      -0.374  10.909  23.440  0.00  0.00    +0.000 OA
ATOM     17  C   UNL     1      -0.660   9.534  23.176  0.00  0.00    +0.000 C 
ATOM     18  C   UNL     1       0.245   9.005  22.071  0.00  0.00    +0.000 C 
ENDBRANCH   1  13
BRANCH   1  19
ATOM     19  C   UNL     1       1.990   8.501  19.945  0.00  0.00    +0.000 C 
BRANCH  19  20
ATOM     20  C   UNL     1       1.929   6.975  19.801  0.00  0.00    +0.000 C 
BRANCH  20  21
ATOM     21  C   UNL     1       2.654   6.448  18.539  0.00  0.00    +0.000 C 
BRANCH  21  26
ATOM     22  C   UNL     1       7.310   4.866  17.643  0.00  0.00    +0.000 C 
ATOM     23  N   UNL     1       5.929   4.540  17.971  0.00  0.00    +0.000 NA
ATOM     24  C   UNL     1       4.998   4.906  16.889  0.00  0.00    +0.000 C 
ATOM     25  C   UNL     1       3.534   4.534  17.238  0.00  0.00    +0.000 C 
ATOM     26  N   UNL     1       3.027   5.026  18.540  0.00  0.00    +0.000 NA
ATOM     27  C   UNL     1       4.052   4.739  19.577  0.00  0.00    +0.000 C 
ATOM     28  C   UNL     1       5.492   5.187  19.219  0.00  0.00    +0.000 C 
ENDBRANCH  21  26
ENDBRANCH  20  21
ENDBRANCH  19  20
ENDBRANCH   1  19
TORSDOF 7
ENDMDL
MODEL 5
REMARK VINA RESULT:      -7.7      5.087      7.179
REMARK  Name = 
REMARK  8 active torsions:
REMARK  status: ('A' for Active; 'I' for Inactive)
REMARK    1  A    between atoms: C_1  and  N_2
REMARK    2  A    between atoms: N_5  and  C_6
REMARK    3  A    between atoms: C_6  and  C_7
REMARK    4  A    between atoms: C_7  and  C_8
REMARK    5  A    between atoms: C_8  and  N_9
REMARK    6  A    between atoms: N_9  and  C_20
REMARK    7  A    between atoms: C_10  and  C_12
REMARK    8  A    between atoms: C_14  and  C_15
REMARK                            x       y       z     vdW  Elec       q    Type
REMARK                         _______ _______ _______ _____ _____    ______ ____
ROOT
ATOM      1  N   UNL     1       2.496   6.149  19.493  0.00  0.00    +0.000 N 
ATOM      2  C   UNL     1       3.292   6.657  18.425  0.00  0.00    +0.000 C 
ATOM      3  O   UNL     1       3.053   7.744  17.900  0.00  0.00    +0.000 OA
ENDROOT
BRANCH   2   4
ATOM      4  C   UNL     1       4.430   5.841  17.896  0.00  0.00    +0.000 A 
ATOM      5  C   UNL     1       4.838   5.725  16.526  0.00  0.00    +0.000 A 
ATOM      6  C   UNL     1       5.838   4.775  16.519  0.00  0.00    +0.000 A 
ATOM      7  N   UNL     1       6.077   4.493  17.831  0.00  0.00    +0.000 N 
ATOM      8  N   UNL     1       5.247   5.105  18.677  0.00  0.00    +0.000 NA
ATOM      9  H   UNL     1       6.767   3.860  18.206  0.00  0.00    +0.000 HD
BRANCH   6  10
ATOM     10  C   UNL     1       6.558   4.087  15.379  0.00  0.00    +0.000 C 
ATOM     11  C   UNL     1       5.838   3.977  14.054  0.00  0.00    +0.000 C 
ATOM     12  C   UNL     1       7.043   4.849  14.170  0.00  0.00    +0.000 C 
ENDBRANCH   6  10
ENDBRANCH   2   4
BRANCH   1  13
ATOM     13  C   UNL     1       2.470   4.691  19.793  0.00  0.00    +0.000 C 
ATOM     14  C   UNL     1       1.475   3.862  18.954  0.00  0.00    +0.000 C 
ATOM     15  C   UNL     1       1.585   2.388  19.328  0.00  0.00    +0.000 C 
ATOM     16  O   UNL     1       1.369   2.197  20.725  0.00  0.00    +0.000 OA
ATOM     17  C   UNL     1       2.311   2.911  21.527  0.00  0.00    +0.000 C 
ATOM     18  C   UNL     1       2.197   4.408  21.277  0.00  0.00    +0.000 C 
ENDBRANCH   1  13
BRANCH   1  19
ATOM     19  C   UNL     1       1.421   6.971  20.101  0.00  0.00    +0.000 C 
BRANCH  19  20
ATOM     20  C   UNL     1       1.789   8.331  20.709  0.00  0.00    +0.000 C 
BRANCH  20  21
ATOM     21  C   UNL     1       0.733   9.429  20.441  0.00  0.00    +0.000 C 
BRANCH  21  26
ATOM     22  C   UNL     1      -0.285  14.104  18.990  0.00  0.00    +0.000 C 
ATOM     23  N   UNL     1      -0.053  12.712  18.626  0.00  0.00    +0.000 NA
ATOM     24  C   UNL     1      -1.085  11.815  19.174  0.00  0.00    +0.000 C 
ATOM     25  C   UNL     1      -0.843  10.339  18.762  0.00  0.00    +0.000 C 
ATOM     26  N   UNL     1       0.508   9.797  19.035  0.00  0.00    +0.000 NA
ATOM     27  C   UNL     1       1.511  10.791  18.572  0.00  0.00    +0.000 C 
ATOM     28  C   UNL     1       1.271  12.242  19.061  0.00  0.00    +0.000 C 
ENDBRANCH  21  26
ENDBRANCH  20  21
ENDBRANCH  19  20
ENDBRANCH   1  19
TORSDOF 7
ENDMDL
MODEL 6
REMARK VINA RESULT:      -7.6      4.906      7.414
REMARK  Name = 
REMARK  8 active torsions:
REMARK  status: ('A' for Active; 'I' for Inactive)
REMARK    1  A    between atoms: C_1  and  N_2
REMARK    2  A    between atoms: N_5  and  C_6
REMARK    3  A    between atoms: C_6  and  C_7
REMARK    4  A    between atoms: C_7  and  C_8
REMARK    5  A    between atoms: C_8  and  N_9
REMARK    6  A    between atoms: N_9  and  C_20
REMARK    7  A    between atoms: C_10  and  C_12
REMARK    8  A    between atoms: C_14  and  C_15
REMARK                            x       y       z     vdW  Elec       q    Type
REMARK                         _______ _______ _______ _____ _____    ______ ____
ROOT
ATOM      1  N   UNL     1       2.813   6.149  18.825  0.00  0.00    +0.000 N 
ATOM      2  C   UNL     1       3.633   6.906  17.938  0.00  0.00    +0.000 C 
ATOM      3  O   UNL     1       3.332   8.048  17.595  0.00  0.00    +0.000 OA
ENDROOT
BRANCH   2   4
ATOM      4  C   UNL     1       4.878   6.293  17.375  0.00  0.00    +0.000 A 
ATOM      5  C   UNL     1       5.101   5.903  16.013  0.00  0.00    +0.000 A 
ATOM      6  C   UNL     1       6.332   5.280  16.007  0.00  0.00    +0.000 A 
ATOM      7  N   UNL     1       6.831   5.452  17.263  0.00  0.00    +0.000 N 
ATOM      8  N   UNL     1       5.984   6.045  18.106  0.00  0.00    +0.000 NA
ATOM      9  H   UNL     1       7.727   5.151  17.613  0.00  0.00    +0.000 HD
BRANCH   6  10
ATOM     10  C   UNL     1       7.056   4.506  14.926  0.00  0.00    +0.000 C 
ATOM     11  C   UNL     1       6.220   3.778  13.898  0.00  0.00    +0.000 C 
ATOM     12  C   UNL     1       7.043   4.952  13.484  0.00  0.00    +0.000 C 
ENDBRANCH   6  10
ENDBRANCH   2   4
BRANCH   1  13
ATOM     13  C   UNL     1       2.902   4.663  18.858  0.00  0.00    +0.000 C 
ATOM     14  C   UNL     1       1.921   3.922  17.926  0.00  0.00    +0.000 C 
ATOM     15  C   UNL     1       2.150   2.417  18.023  0.00  0.00    +0.000 C 
ATOM     16  O   UNL     1       2.025   1.966  19.371  0.00  0.00    +0.000 OA
ATOM     17  C   UNL     1       2.960   2.597  20.248  0.00  0.00    +0.000 C 
ATOM     18  C   UNL     1       2.731   4.102  20.277  0.00  0.00    +0.000 C 
ENDBRANCH   1  13
BRANCH   1  19
ATOM     19  C   UNL     1       1.624   6.757  19.472  0.00  0.00    +0.000 C 
BRANCH  19  20
ATOM     20  C   UNL     1       1.840   7.779  20.596  0.00  0.00    +0.000 C 
BRANCH  20  21
ATOM     21  C   UNL     1       0.771   8.896  20.623  0.00  0.00    +0.000 C 
BRANCH  21  26
ATOM     22  C   UNL     1      -2.791  12.158  19.336  0.00  0.00    +0.000 C 
ATOM     23  N   UNL     1      -1.389  11.766  19.287  0.00  0.00    +0.000 NA
ATOM     24  C   UNL     1      -1.192  10.492  18.574  0.00  0.00    +0.000 C 
ATOM     25  C   UNL     1       0.305  10.095  18.507  0.00  0.00    +0.000 C 
ATOM     26  N   UNL     1       1.037  10.082  19.795  0.00  0.00    +0.000 NA
ATOM     27  C   UNL     1       0.712  11.334  20.527  0.00  0.00    +0.000 C 
ATOM     28  C   UNL     1      -0.799  11.661  20.631  0.00  0.00    +0.000 C 
ENDBRANCH  21  26
ENDBRANCH  20  21
ENDBRANCH  19  20
ENDBRANCH   1  19
TORSDOF 7
ENDMDL
MODEL 7
REMARK VINA RESULT:      -7.6      4.843      7.438
REMARK  Name = 
REMARK  8 active torsions:
REMARK  status: ('A' for Active; 'I' for Inactive)
REMARK    1  A    between atoms: C_1  and  N_2
REMARK    2  A    between atoms: N_5  and  C_6
REMARK    3  A    between atoms: C_6  and  C_7
REMARK    4  A    between atoms: C_7  and  C_8
REMARK    5  A    between atoms: C_8  and  N_9
REMARK    6  A    between atoms: N_9  and  C_20
REMARK    7  A    between atoms: C_10  and  C_12
REMARK    8  A    between atoms: C_14  and  C_15
REMARK                            x       y       z     vdW  Elec       q    Type
REMARK                         _______ _______ _______ _____ _____    ______ ____
ROOT
ATOM      1  N   UNL     1       2.902   6.265  18.578  0.00  0.00    +0.000 N 
ATOM      2  C   UNL     1       3.635   7.149  17.734  0.00  0.00    +0.000 C 
ATOM      3  O   UNL     1       3.281   8.313  17.554  0.00  0.00    +0.000 OA
ENDROOT
BRANCH   2   4
ATOM      4  C   UNL     1       4.849   6.650  17.014  0.00  0.00    +0.000 A 
ATOM      5  C   UNL     1       4.878   5.711  15.930  0.00  0.00    +0.000 A 
ATOM      6  C   UNL     1       6.215   5.472  15.689  0.00  0.00    +0.000 A 
ATOM      7  N   UNL     1       6.890   6.344  16.490  0.00  0.00    +0.000 N 
ATOM      8  N   UNL     1       6.104   7.055  17.300  0.00  0.00    +0.000 NA
ATOM      9  H   UNL     1       7.888   6.469  16.554  0.00  0.00    +0.000 HD
BRANCH   6  10
ATOM     10  C   UNL     1       6.905   4.464  14.795  0.00  0.00    +0.000 C 
ATOM     11  C   UNL     1       6.160   3.977  13.572  0.00  0.00    +0.000 C 
ATOM     12  C   UNL     1       7.378   4.824  13.407  0.00  0.00    +0.000 C 
ENDBRANCH   6  10
ENDBRANCH   2   4
BRANCH   1  13
ATOM     13  C   UNL     1       3.030   4.789  18.425  0.00  0.00    +0.000 C 
ATOM     14  C   UNL     1       1.697   4.015  18.352  0.00  0.00    +0.000 C 
ATOM     15  C   UNL     1       1.972   2.529  18.148  0.00  0.00    +0.000 C 
ATOM     16  O   UNL     1       2.813   2.017  19.182  0.00  0.00    +0.000 OA
ATOM     17  C   UNL     1       4.076   2.680  19.238  0.00  0.00    +0.000 C 
ATOM     18  C   UNL     1       3.888   4.162  19.533  0.00  0.00    +0.000 C 
ENDBRANCH   1  13
BRANCH   1  19
ATOM     19  C   UNL     1       1.750   6.751  19.377  0.00  0.00    +0.000 C 
BRANCH  19  20
ATOM     20  C   UNL     1       1.978   7.123  20.848  0.00  0.00    +0.000 C 
BRANCH  20  21
ATOM     21  C   UNL     1       1.445   8.528  21.215  0.00  0.00    +0.000 C 
BRANCH  21  26
ATOM     22  C   UNL     1      -0.810  12.760  22.629  0.00  0.00    +0.000 C 
ATOM     23  N   UNL     1      -0.921  11.419  22.070  0.00  0.00    +0.000 NA
ATOM     24  C   UNL     1      -0.522  10.379  23.033  0.00  0.00    +0.000 C 
ATOM     25  C   UNL     1      -0.666   8.955  22.437  0.00  0.00    +0.000 C 
ATOM     26  N   UNL     1      -0.010   8.724  21.129  0.00  0.00    +0.000 NA
ATOM     27  C   UNL     1      -0.347   9.859  20.232  0.00  0.00    +0.000 C 
ATOM     28  C   UNL     1      -0.126  11.267  20.841  0.00  0.00    +0.000 C 
ENDBRANCH  21  26
ENDBRANCH  20  21
ENDBRANCH  19  20
ENDBRANCH   1  19
TORSDOF 7
ENDMDL
MODEL 8
REMARK VINA RESULT:      -7.6      5.037      7.436
REMARK  Name = 
REMARK  8 active torsions:
REMARK  status: ('A' for Active; 'I' for Inactive)
REMARK    1  A    between atoms: C_1  and  N_2
REMARK    2  A    between atoms: N_5  and  C_6
REMARK    3  A    between atoms: C_6  and  C_7
REMARK    4  A    between atoms: C_7  and  C_8
REMARK    5  A    between atoms: C_8  and  N_9
REMARK    6  A    between atoms: N_9  and  C_20
REMARK    7  A    between atoms: C_10  and  C_12
REMARK    8  A    between atoms: C_14  and  C_15
REMARK                            x       y       z     vdW  Elec       q    Type
REMARK                         _______ _______ _______ _____ _____    ______ ____
ROOT
ATOM      1  N   UNL     1       2.368   6.226  19.710  0.00  0.00    +0.000 N 
ATOM      2  C   UNL     1       3.146   6.826  18.679  0.00  0.00    +0.000 C 
ATOM      3  O   UNL     1       2.869   7.935  18.221  0.00  0.00    +0.000 OA
ENDROOT
BRANCH   2   4
ATOM      4  C   UNL     1       4.313   6.085  18.103  0.00  0.00    +0.000 A 
ATOM      5  C   UNL     1       4.496   5.706  16.732  0.00  0.00    +0.000 A 
ATOM      6  C   UNL     1       5.644   4.942  16.713  0.00  0.00    +0.000 A 
ATOM      7  N   UNL     1       6.152   5.022  17.975  0.00  0.00    +0.000 N 
ATOM      8  N   UNL     1       5.377   5.689  18.831  0.00  0.00    +0.000 NA
ATOM      9  H   UNL     1       7.005   4.607  18.319  0.00  0.00    +0.000 HD
BRANCH   6  10
ATOM     10  C   UNL     1       6.278   4.115  15.615  0.00  0.00    +0.000 C 
ATOM     11  C   UNL     1       5.680   4.206  14.228  0.00  0.00    +0.000 C 
ATOM     12  C   UNL     1       7.046   4.752  14.482  0.00  0.00    +0.000 C 
ENDBRANCH   6  10
ENDBRANCH   2   4
BRANCH   1  13
ATOM     13  C   UNL     1       2.393   4.751  19.920  0.00  0.00    +0.000 C 
ATOM     14  C   UNL     1       1.389   3.947  19.068  0.00  0.00    +0.000 C 
ATOM     15  C   UNL     1       1.553   2.456  19.345  0.00  0.00    +0.000 C 
ATOM     16  O   UNL     1       1.398   2.173  20.734  0.00  0.00    +0.000 OA
ATOM     17  C   UNL     1       2.351   2.864  21.543  0.00  0.00    +0.000 C 
ATOM     18  C   UNL     1       2.187   4.370  21.392  0.00  0.00    +0.000 C 
ENDBRANCH   1  13
BRANCH   1  19
ATOM     19  C   UNL     1       1.264   6.970  20.366  0.00  0.00    +0.000 C 
BRANCH  19  20
ATOM     20  C   UNL     1       1.608   8.199  21.217  0.00  0.00    +0.000 C 
BRANCH  20  21
ATOM     21  C   UNL     1       0.377   9.070  21.563  0.00  0.00    +0.000 C 
BRANCH  21  26
ATOM     22  C   UNL     1      -1.102  12.532  18.275  0.00  0.00    +0.000 C 
ATOM     23  N   UNL     1      -0.455  12.218  19.542  0.00  0.00    +0.000 NA
ATOM     24  C   UNL     1       0.777  11.431  19.357  0.00  0.00    +0.000 C 
ATOM     25  C   UNL     1       1.470  11.120  20.709  0.00  0.00    +0.000 C 
ATOM     26  N   UNL     1       0.620  10.507  21.755  0.00  0.00    +0.000 NA
ATOM     27  C   UNL     1      -0.657  11.265  21.820  0.00  0.00    +0.000 C 
ATOM     28  C   UNL     1      -1.354  11.495  20.456  0.00  0.00    +0.000 C 
ENDBRANCH  21  26
ENDBRANCH  20  21
ENDBRANCH  19  20
ENDBRANCH   1  19
TORSDOF 7
ENDMDL
MODEL 9
REMARK VINA RESULT:      -7.5      4.843      7.341
REMARK  Name = 
REMARK  8 active torsions:
REMARK  status: ('A' for Active; 'I' for Inactive)
REMARK    1  A    between atoms: C_1  and  N_2
REMARK    2  A    between atoms: N_5  and  C_6
REMARK    3  A    between atoms: C_6  and  C_7
REMARK    4  A    between atoms: C_7  and  C_8
REMARK    5  A    between atoms: C_8  and  N_9
REMARK    6  A    between atoms: N_9  and  C_20
REMARK    7  A    between atoms: C_10  and  C_12
REMARK    8  A    between atoms: C_14  and  C_15
REMARK                            x       y       z     vdW  Elec       q    Type
REMARK                         _______ _______ _______ _____ _____    ______ ____
ROOT
ATOM      1  N   UNL     1       2.893   6.105  18.487  0.00  0.00    +0.000 N 
ATOM      2  C   UNL     1       3.695   6.941  17.657  0.00  0.00    +0.000 C 
ATOM      3  O   UNL     1       3.366   8.097  17.391  0.00  0.00    +0.000 OA
ENDROOT
BRANCH   2   4
ATOM      4  C   UNL     1       4.956   6.401  17.059  0.00  0.00    +0.000 A 
ATOM      5  C   UNL     1       5.117   5.862  15.739  0.00  0.00    +0.000 A 
ATOM      6  C   UNL     1       6.410   5.383  15.693  0.00  0.00    +0.000 A 
ATOM      7  N   UNL     1       6.981   5.770  16.868  0.00  0.00    +0.000 N 
ATOM      8  N   UNL     1       6.138   6.372  17.708  0.00  0.00    +0.000 NA
ATOM      9  H   UNL     1       7.932   5.617  17.167  0.00  0.00    +0.000 HD
BRANCH   6  10
ATOM     10  C   UNL     1       7.135   4.558  14.651  0.00  0.00    +0.000 C 
ATOM     11  C   UNL     1       6.303   3.867  13.593  0.00  0.00    +0.000 C 
ATOM     12  C   UNL     1       7.209   4.989  13.206  0.00  0.00    +0.000 C 
ENDBRANCH   6  10
ENDBRANCH   2   4
BRANCH   1  13
ATOM     13  C   UNL     1       3.020   4.623  18.420  0.00  0.00    +0.000 C 
ATOM     14  C   UNL     1       1.701   3.858  18.185  0.00  0.00    +0.000 C 
ATOM     15  C   UNL     1       1.980   2.362  18.090  0.00  0.00    +0.000 C 
ATOM     16  O   UNL     1       2.651   1.891  19.258  0.00  0.00    +0.000 OA
ATOM     17  C   UNL     1       3.902   2.545  19.471  0.00  0.00    +0.000 C 
ATOM     18  C   UNL     1       3.695   4.041  19.670  0.00  0.00    +0.000 C 
ENDBRANCH   1  13
BRANCH   1  19
ATOM     19  C   UNL     1       1.688   6.638  19.169  0.00  0.00    +0.000 C 
BRANCH  19  20
ATOM     20  C   UNL     1       1.864   7.388  20.496  0.00  0.00    +0.000 C 
BRANCH  20  21
ATOM     21  C   UNL     1       0.980   8.652  20.609  0.00  0.00    +0.000 C 
BRANCH  21  26
ATOM     22  C   UNL     1      -2.085  11.591  23.246  0.00  0.00    +0.000 C 
ATOM     23  N   UNL     1      -0.723  11.217  22.891  0.00  0.00    +0.000 NA
ATOM     24  C   UNL     1      -0.433  11.457  21.467  0.00  0.00    +0.000 C 
ATOM     25  C   UNL     1       1.026  11.078  21.104  0.00  0.00    +0.000 C 
ATOM     26  N   UNL     1       1.466   9.719  21.496  0.00  0.00    +0.000 NA
ATOM     27  C   UNL     1       1.046   9.482  22.902  0.00  0.00    +0.000 C 
ATOM     28  C   UNL     1      -0.438   9.809  23.209  0.00  0.00    +0.000 C 
ENDBRANCH  21  26
ENDBRANCH  20  21
ENDBRANCH  19  20
ENDBRANCH   1  19
TORSDOF 7
ENDMDL
