MODEL 1
REMARK VINA RESULT:      -8.1      0.000      0.000
REMARK  Name = 
REMARK  5 active torsions:
REMARK  status: ('A' for Active; 'I' for Inactive)
REMARK    1  A    between atoms: C_1  and  O_2
REMARK    2  A    between atoms: O_2  and  C_3
REMARK    3  A    between atoms: C_6  and  N_7
REMARK    4  A    between atoms: C_23  and  O_24
REMARK    5  A    between atoms: O_24  and  C_25
REMARK                            x       y       z     vdW  Elec       q    Type
REMARK                         _______ _______ _______ _____ _____    ______ ____
ROOT
ATOM      1  N   UNL     1       1.608   9.154  17.698  0.00  0.00    +0.000 N 
ATOM      2  C   UNL     1       2.502   8.131  18.006  0.00  0.00    +0.000 A 
ATOM      3  N   UNL     1       3.574   8.071  17.209  0.00  0.00    +0.000 NA
ATOM      4  C   UNL     1       4.295   6.943  17.234  0.00  0.00    +0.000 A 
ATOM      5  C   UNL     1       3.935   5.857  17.997  0.00  0.00    +0.000 A 
ATOM      6  C   UNL     1       2.895   6.050  18.891  0.00  0.00    +0.000 A 
ATOM      7  N   UNL     1       2.187   7.191  18.928  0.00  0.00    +0.000 NA
ATOM      8  C   UNL     1       2.360   4.874  19.596  0.00  0.00    +0.000 A 
ATOM      9  C   UNL     1       2.287   4.766  20.989  0.00  0.00    +0.000 A 
ATOM     10  C   UNL     1       1.823   3.583  21.578  0.00  0.00    +0.000 A 
ATOM     11  C   UNL     1       1.316   2.545  20.786  0.00  0.00    +0.000 A 
ATOM     12  C   UNL     1       1.423   2.616  19.401  0.00  0.00    +0.000 A 
ATOM     13  C   UNL     1       2.063   3.715  18.838  0.00  0.00    +0.000 A 
ATOM     14  S   UNL     1       2.929   3.471  17.262  0.00  0.00    +0.000 S 
ATOM     15  C   UNL     1       4.416   4.470  17.740  0.00  0.00    +0.000 C 
ATOM     16  H   UNL     1       1.943   9.649  16.885  0.00  0.00    +0.000 HD
ENDROOT
BRANCH   1  20
ATOM     17  C   UNL     1      -1.160  11.322  20.019  0.00  0.00    +0.000 A 
ATOM     18  C   UNL     1       0.125  11.056  20.511  0.00  0.00    +0.000 A 
ATOM     19  C   UNL     1       1.034  10.322  19.757  0.00  0.00    +0.000 A 
ATOM     20  C   UNL     1       0.685   9.826  18.505  0.00  0.00    +0.000 A 
ATOM     21  C   UNL     1      -0.639   9.972  18.084  0.00  0.00    +0.000 A 
ATOM     22  C   UNL     1      -1.575  10.712  18.829  0.00  0.00    +0.000 A 
BRANCH  17  24
ATOM     23  C   UNL     1      -1.740  12.263  22.100  0.00  0.00    +0.000 C 
ATOM     24  O   UNL     1      -1.998  12.167  20.699  0.00  0.00    +0.000 OA
ENDBRANCH  17  24
BRANCH  22  25
ATOM     25  O   UNL     1      -2.809  10.742  18.231  0.00  0.00    +0.000 OA
ATOM     26  C   UNL     1      -3.056   9.892  17.123  0.00  0.00    +0.000 C 
ENDBRANCH  22  25
ENDBRANCH   1  20
TORSDOF 3
ENDMDL
MODEL 2
REMARK VINA RESULT:      -8.0      0.984      2.036
REMARK  Name = 
REMARK  5 active torsions:
REMARK  status: ('A' for Active; 'I' for Inactive)
REMARK    1  A    between atoms: C_1  and  O_2
REMARK    2  A    between atoms: O_2  and  C_3
REMARK    3  A    between atoms: C_6  and  N_7
REMARK    4  A    between atoms: C_23  and  O_24
REMARK    5  A    between atoms: O_24  and  C_25
REMARK                            x       y       z     vdW  Elec       q    Type
REMARK                         _______ _______ _______ _____ _____    ______ ____
ROOT
ATOM      1  N   UNL     1       1.729   9.281  17.577  0.00  0.00    +0.000 N 
ATOM      2  C   UNL     1       2.577   8.221  17.885  0.00  0.00    +0.000 A 
ATOM      3  N   UNL     1       3.637   8.103  17.078  0.00  0.00    +0.000 NA
ATOM      4  C   UNL     1       4.305   6.944  17.107  0.00  0.00    +0.000 A 
ATOM      5  C   UNL     1       3.903   5.883  17.884  0.00  0.00    +0.000 A 
ATOM      6  C   UNL     1       2.882   6.131  18.786  0.00  0.00    +0.000 A 
ATOM      7  N   UNL     1       2.228   7.305  18.819  0.00  0.00    +0.000 NA
ATOM      8  C   UNL     1       2.300   4.988  19.508  0.00  0.00    +0.000 A 
ATOM      9  C   UNL     1       2.237   4.896  20.902  0.00  0.00    +0.000 A 
ATOM     10  C   UNL     1       1.725   3.742  21.507  0.00  0.00    +0.000 A 
ATOM     11  C   UNL     1       1.162   2.721  20.730  0.00  0.00    +0.000 A 
ATOM     12  C   UNL     1       1.257   2.775  19.343  0.00  0.00    +0.000 A 
ATOM     13  C   UNL     1       1.942   3.837  18.764  0.00  0.00    +0.000 A 
ATOM     14  S   UNL     1       2.780   3.539  17.182  0.00  0.00    +0.000 S 
ATOM     15  C   UNL     1       4.316   4.472  17.635  0.00  0.00    +0.000 C 
ATOM     16  H   UNL     1       2.078   9.753  16.756  0.00  0.00    +0.000 HD
ENDROOT
BRANCH   1  20
ATOM     17  C   UNL     1      -0.905  11.336  20.144  0.00  0.00    +0.000 A 
ATOM     18  C   UNL     1      -1.396  10.643  19.030  0.00  0.00    +0.000 A 
ATOM     19  C   UNL     1      -0.528   9.982  18.168  0.00  0.00    +0.000 A 
ATOM     20  C   UNL     1       0.846  10.003  18.386  0.00  0.00    +0.000 A 
ATOM     21  C   UNL     1       1.338  10.812  19.413  0.00  0.00    +0.000 A 
ATOM     22  C   UNL     1       0.479  11.488  20.298  0.00  0.00    +0.000 A 
BRANCH  17  24
ATOM     23  C   UNL     1      -2.762  12.734  20.528  0.00  0.00    +0.000 C 
ATOM     24  O   UNL     1      -1.771  11.860  21.069  0.00  0.00    +0.000 OA
ENDBRANCH  17  24
BRANCH  22  25
ATOM     25  O   UNL     1       1.166  12.211  21.240  0.00  0.00    +0.000 OA
ATOM     26  C   UNL     1       1.472  13.570  20.974  0.00  0.00    +0.000 C 
ENDBRANCH  22  25
ENDBRANCH   1  20
TORSDOF 3
ENDMDL
MODEL 3
REMARK VINA RESULT:      -8.0      1.067      2.034
REMARK  Name = 
REMARK  5 active torsions:
REMARK  status: ('A' for Active; 'I' for Inactive)
REMARK    1  A    between atoms: C_1  and  O_2
REMARK    2  A    between atoms: O_2  and  C_3
REMARK    3  A    between atoms: C_6  and  N_7
REMARK    4  A    between atoms: C_23  and  O_24
REMARK    5  A    between atoms: O_24  and  C_25
REMARK                            x       y       z     vdW  Elec       q    Type
REMARK                         _______ _______ _______ _____ _____    ______ ____
ROOT
ATOM      1  N   UNL     1       1.606   9.194  17.872  0.00  0.00    +0.000 N 
ATOM      2  C   UNL     1       2.479   8.134  18.099  0.00  0.00    +0.000 A 
ATOM      3  N   UNL     1       3.483   8.041  17.220  0.00  0.00    +0.000 NA
ATOM      4  C   UNL     1       4.158   6.887  17.178  0.00  0.00    +0.000 A 
ATOM      5  C   UNL     1       3.816   5.806  17.957  0.00  0.00    +0.000 A 
ATOM      6  C   UNL     1       2.857   6.029  18.932  0.00  0.00    +0.000 A 
ATOM      7  N   UNL     1       2.200   7.196  19.035  0.00  0.00    +0.000 NA
ATOM      8  C   UNL     1       2.333   4.866  19.667  0.00  0.00    +0.000 A 
ATOM      9  C   UNL     1       2.365   4.744  21.059  0.00  0.00    +0.000 A 
ATOM     10  C   UNL     1       1.901   3.574  21.673  0.00  0.00    +0.000 A 
ATOM     11  C   UNL     1       1.293   2.566  20.914  0.00  0.00    +0.000 A 
ATOM     12  C   UNL     1       1.294   2.649  19.525  0.00  0.00    +0.000 A 
ATOM     13  C   UNL     1       1.931   3.728  18.924  0.00  0.00    +0.000 A 
ATOM     14  S   UNL     1       2.662   3.470  17.283  0.00  0.00    +0.000 S 
ATOM     15  C   UNL     1       4.220   4.405  17.651  0.00  0.00    +0.000 C 
ATOM     16  H   UNL     1       1.896   9.686  17.039  0.00  0.00    +0.000 HD
ENDROOT
BRANCH   1  20
ATOM     17  C   UNL     1      -0.962  11.142  20.585  0.00  0.00    +0.000 A 
ATOM     18  C   UNL     1      -1.191  11.225  19.205  0.00  0.00    +0.000 A 
ATOM     19  C   UNL     1      -0.334  10.602  18.306  0.00  0.00    +0.000 A 
ATOM     20  C   UNL     1       0.776   9.893  18.754  0.00  0.00    +0.000 A 
ATOM     21  C   UNL     1       1.078   9.934  20.117  0.00  0.00    +0.000 A 
ATOM     22  C   UNL     1       0.224  10.557  21.046  0.00  0.00    +0.000 A 
BRANCH  17  24
ATOM     23  C   UNL     1      -2.673  12.715  20.972  0.00  0.00    +0.000 C 
ATOM     24  O   UNL     1      -1.887  11.631  21.470  0.00  0.00    +0.000 OA
ENDBRANCH  17  24
BRANCH  22  25
ATOM     25  O   UNL     1       0.699  10.469  22.329  0.00  0.00    +0.000 OA
ATOM     26  C   UNL     1       0.172   9.473  23.190  0.00  0.00    +0.000 C 
ENDBRANCH  22  25
ENDBRANCH   1  20
TORSDOF 3
ENDMDL
MODEL 4
REMARK VINA RESULT:      -7.7      1.700      2.045
REMARK  Name = 
REMARK  5 active torsions:
REMARK  status: ('A' for Active; 'I' for Inactive)
REMARK    1  A    between atoms: C_1  and  O_2
REMARK    2  A    between atoms: O_2  and  C_3
REMARK    3  A    between atoms: C_6  and  N_7
REMARK    4  A    between atoms: C_23  and  O_24
REMARK    5  A    between atoms: O_24  and  C_25
REMARK                            x       y       z     vdW  Elec       q    Type
REMARK                         _______ _______ _______ _____ _____    ______ ____
ROOT
ATOM      1  N   UNL     1       1.371   9.385  18.780  0.00  0.00    +0.000 N 
ATOM      2  C   UNL     1       2.238   8.297  18.748  0.00  0.00    +0.000 A 
ATOM      3  N   UNL     1       3.100   8.302  17.725  0.00  0.00    +0.000 NA
ATOM      4  C   UNL     1       3.730   7.154  17.447  0.00  0.00    +0.000 A 
ATOM      5  C   UNL     1       3.475   5.991  18.135  0.00  0.00    +0.000 A 
ATOM      6  C   UNL     1       2.675   6.102  19.260  0.00  0.00    +0.000 A 
ATOM      7  N   UNL     1       2.073   7.255  19.597  0.00  0.00    +0.000 NA
ATOM      8  C   UNL     1       2.232   4.864  19.921  0.00  0.00    +0.000 A 
ATOM      9  C   UNL     1       2.464   4.573  21.269  0.00  0.00    +0.000 A 
ATOM     10  C   UNL     1       2.062   3.342  21.801  0.00  0.00    +0.000 A 
ATOM     11  C   UNL     1       1.322   2.439  21.027  0.00  0.00    +0.000 A 
ATOM     12  C   UNL     1       1.123   2.691  19.673  0.00  0.00    +0.000 A 
ATOM     13  C   UNL     1       1.695   3.829  19.116  0.00  0.00    +0.000 A 
ATOM     14  S   UNL     1       2.171   3.765  17.366  0.00  0.00    +0.000 S 
ATOM     15  C   UNL     1       3.791   4.633  17.608  0.00  0.00    +0.000 C 
ATOM     16  H   UNL     1       1.550   9.971  17.979  0.00  0.00    +0.000 HD
ENDROOT
BRANCH   1  20
ATOM     17  C   UNL     1      -0.497  11.224  22.079  0.00  0.00    +0.000 A 
ATOM     18  C   UNL     1      -0.481   9.828  21.959  0.00  0.00    +0.000 A 
ATOM     19  C   UNL     1       0.115   9.218  20.861  0.00  0.00    +0.000 A 
ATOM     20  C   UNL     1       0.698   9.979  19.852  0.00  0.00    +0.000 A 
ATOM     21  C   UNL     1       0.553  11.368  19.907  0.00  0.00    +0.000 A 
ATOM     22  C   UNL     1      -0.045  12.006  21.009  0.00  0.00    +0.000 A 
BRANCH  17  24
ATOM     23  C   UNL     1      -2.373  11.951  23.306  0.00  0.00    +0.000 C 
ATOM     24  O   UNL     1      -0.953  11.813  23.229  0.00  0.00    +0.000 OA
ENDBRANCH  17  24
BRANCH  22  25
ATOM     25  O   UNL     1      -0.073  13.370  20.867  0.00  0.00    +0.000 OA
ATOM     26  C   UNL     1       0.736  13.973  19.870  0.00  0.00    +0.000 C 
ENDBRANCH  22  25
ENDBRANCH   1  20
TORSDOF 3
ENDMDL
MODEL 5
REMARK VINA RESULT:      -7.5      1.437      1.939
REMARK  Name = 
REMARK  5 active torsions:
REMARK  status: ('A' for Active; 'I' for Inactive)
REMARK    1  A    between atoms: C_1  and  O_2
REMARK    2  A    between atoms: O_2  and  C_3
REMARK    3  A    between atoms: C_6  and  N_7
REMARK    4  A    between atoms: C_23  and  O_24
REMARK    5  A    between atoms: O_24  and  C_25
REMARK                            x       y       z     vdW  Elec       q    Type
REMARK                         _______ _______ _______ _____ _____    ______ ____
ROOT
ATOM      1  N   UNL     1       2.170   9.126  17.755  0.00  0.00    +0.000 N 
ATOM      2  C   UNL     1       2.929   7.985  18.003  0.00  0.00    +0.000 A 
ATOM      3  N   UNL     1       3.914   7.768  17.125  0.00  0.00    +0.000 NA
ATOM      4  C   UNL     1       4.463   6.549  17.107  0.00  0.00    +0.000 A 
ATOM      5  C   UNL     1       4.013   5.527  17.910  0.00  0.00    +0.000 A 
ATOM      6  C   UNL     1       3.087   5.869  18.881  0.00  0.00    +0.000 A 
ATOM      7  N   UNL     1       2.556   7.101  18.960  0.00  0.00    +0.000 NA
ATOM      8  C   UNL     1       2.446   4.784  19.642  0.00  0.00    +0.000 A 
ATOM      9  C   UNL     1       2.471   4.689  21.037  0.00  0.00    +0.000 A 
ATOM     10  C   UNL     1       1.889   3.587  21.676  0.00  0.00    +0.000 A 
ATOM     11  C   UNL     1       1.176   2.633  20.940  0.00  0.00    +0.000 A 
ATOM     12  C   UNL     1       1.180   2.686  19.550  0.00  0.00    +0.000 A 
ATOM     13  C   UNL     1       1.925   3.679  18.925  0.00  0.00    +0.000 A 
ATOM     14  S   UNL     1       2.617   3.311  17.288  0.00  0.00    +0.000 S 
ATOM     15  C   UNL     1       4.266   4.085  17.634  0.00  0.00    +0.000 C 
ATOM     16  H   UNL     1       2.507   9.566  16.912  0.00  0.00    +0.000 HD
ENDROOT
BRANCH   1  20
ATOM     17  C   UNL     1       0.051  11.532  20.488  0.00  0.00    +0.000 A 
ATOM     18  C   UNL     1      -0.344  10.208  20.252  0.00  0.00    +0.000 A 
ATOM     19  C   UNL     1       0.340   9.418  19.335  0.00  0.00    +0.000 A 
ATOM     20  C   UNL     1       1.422   9.926  18.623  0.00  0.00    +0.000 A 
ATOM     21  C   UNL     1       1.719  11.284  18.758  0.00  0.00    +0.000 A 
ATOM     22  C   UNL     1       1.042  12.102  19.681  0.00  0.00    +0.000 A 
BRANCH  17  24
ATOM     23  C   UNL     1      -0.897  11.492  22.645  0.00  0.00    +0.000 C 
ATOM     24  O   UNL     1      -0.530  12.256  21.496  0.00  0.00    +0.000 OA
ENDBRANCH  17  24
BRANCH  22  25
ATOM     25  O   UNL     1       1.499  13.395  19.662  0.00  0.00    +0.000 OA
ATOM     26  C   UNL     1       0.721  14.390  19.017  0.00  0.00    +0.000 C 
ENDBRANCH  22  25
ENDBRANCH   1  20
TORSDOF 3
ENDMDL
MODEL 6
REMARK VINA RESULT:      -7.1      3.704      7.927
REMARK  Name = 
REMARK  5 active torsions:
REMARK  status: ('A' for Active; 'I' for Inactive)
REMARK    1  A    between atoms: C_1  and  O_2
REMARK    2  A    between atoms: O_2  and  C_3
REMARK    3  A    between atoms: C_6  and  N_7
REMARK    4  A    between atoms: C_23  and  O_24
REMARK    5  A    between atoms: O_24  and  C_25
REMARK                            x       y       z     vdW  Elec       q    Type
REMARK                         _______ _______ _______ _____ _____    ______ ____
ROOT
ATOM      1  N   UNL     1       1.403   8.868  20.845  0.00  0.00    +0.000 N 
ATOM      2  C   UNL     1       0.911  10.079  20.364  0.00  0.00    +0.000 A 
ATOM      3  N   UNL     1       1.215  11.142  21.117  0.00  0.00    +0.000 NA
ATOM      4  C   UNL     1       0.520  12.265  20.903  0.00  0.00    +0.000 A 
ATOM      5  C   UNL     1      -0.508  12.330  19.992  0.00  0.00    +0.000 A 
ATOM      6  C   UNL     1      -0.668  11.232  19.162  0.00  0.00    +0.000 A 
ATOM      7  N   UNL     1       0.054  10.110  19.317  0.00  0.00    +0.000 NA
ATOM      8  C   UNL     1      -1.859  11.183  18.299  0.00  0.00    +0.000 A 
ATOM      9  C   UNL     1      -1.809  11.042  16.908  0.00  0.00    +0.000 A 
ATOM     10  C   UNL     1      -2.990  11.069  16.156  0.00  0.00    +0.000 A 
ATOM     11  C   UNL     1      -4.237  11.117  16.793  0.00  0.00    +0.000 A 
ATOM     12  C   UNL     1      -4.305  11.304  18.169  0.00  0.00    +0.000 A 
ATOM     13  C   UNL     1      -3.120  11.468  18.878  0.00  0.00    +0.000 A 
ATOM     14  S   UNL     1      -3.168  12.490  20.377  0.00  0.00    +0.000 S 
ATOM     15  C   UNL     1      -1.575  13.371  20.022  0.00  0.00    +0.000 C 
ATOM     16  H   UNL     1       1.886   9.033  21.716  0.00  0.00    +0.000 HD
ENDROOT
BRANCH   1  20
ATOM     17  C   UNL     1       2.468   5.267  18.935  0.00  0.00    +0.000 A 
ATOM     18  C   UNL     1       2.692   6.499  18.306  0.00  0.00    +0.000 A 
ATOM     19  C   UNL     1       2.322   7.688  18.923  0.00  0.00    +0.000 A 
ATOM     20  C   UNL     1       1.712   7.682  20.173  0.00  0.00    +0.000 A 
ATOM     21  C   UNL     1       1.362   6.449  20.730  0.00  0.00    +0.000 A 
ATOM     22  C   UNL     1       1.728   5.233  20.124  0.00  0.00    +0.000 A 
BRANCH  17  24
ATOM     23  C   UNL     1       4.358   3.894  18.626  0.00  0.00    +0.000 C 
ATOM     24  O   UNL     1       2.966   4.112  18.391  0.00  0.00    +0.000 OA
ENDBRANCH  17  24
BRANCH  22  25
ATOM     25  O   UNL     1       1.301   4.145  20.841  0.00  0.00    +0.000 OA
ATOM     26  C   UNL     1       2.211   3.500  21.717  0.00  0.00    +0.000 C 
ENDBRANCH  22  25
ENDBRANCH   1  20
TORSDOF 3
ENDMDL
MODEL 7
REMARK VINA RESULT:      -6.8      3.618      7.761
REMARK  Name = 
REMARK  5 active torsions:
REMARK  status: ('A' for Active; 'I' for Inactive)
REMARK    1  A    between atoms: C_1  and  O_2
REMARK    2  A    between atoms: O_2  and  C_3
REMARK    3  A    between atoms: C_6  and  N_7
REMARK    4  A    between atoms: C_23  and  O_24
REMARK    5  A    between atoms: O_24  and  C_25
REMARK                            x       y       z     vdW  Elec       q    Type
REMARK                         _______ _______ _______ _____ _____    ______ ____
ROOT
ATOM      1  N   UNL     1       1.355   8.792  21.082  0.00  0.00    +0.000 N 
ATOM      2  C   UNL     1       0.910   9.985  20.521  0.00  0.00    +0.000 A 
ATOM      3  N   UNL     1       1.222  11.081  21.221  0.00  0.00    +0.000 NA
ATOM      4  C   UNL     1       0.564  12.208  20.925  0.00  0.00    +0.000 A 
ATOM      5  C   UNL     1      -0.437  12.248  19.982  0.00  0.00    +0.000 A 
ATOM      6  C   UNL     1      -0.604  11.110  19.211  0.00  0.00    +0.000 A 
ATOM      7  N   UNL     1       0.082   9.979  19.449  0.00  0.00    +0.000 NA
ATOM      8  C   UNL     1      -1.772  11.043  18.318  0.00  0.00    +0.000 A 
ATOM      9  C   UNL     1      -1.688  10.822  16.940  0.00  0.00    +0.000 A 
ATOM     10  C   UNL     1      -2.847  10.837  16.154  0.00  0.00    +0.000 A 
ATOM     11  C   UNL     1      -4.109  10.953  16.750  0.00  0.00    +0.000 A 
ATOM     12  C   UNL     1      -4.209  11.219  18.112  0.00  0.00    +0.000 A 
ATOM     13  C   UNL     1      -3.040  11.393  18.844  0.00  0.00    +0.000 A 
ATOM     14  S   UNL     1      -3.100  12.499  20.281  0.00  0.00    +0.000 S 
ATOM     15  C   UNL     1      -1.475  13.316  19.924  0.00  0.00    +0.000 C 
ATOM     16  H   UNL     1       1.818   8.993  21.956  0.00  0.00    +0.000 HD
ENDROOT
BRANCH   1  20
ATOM     17  C   UNL     1       2.117   5.119  19.163  0.00  0.00    +0.000 A 
ATOM     18  C   UNL     1       1.469   5.151  20.406  0.00  0.00    +0.000 A 
ATOM     19  C   UNL     1       1.236   6.359  21.052  0.00  0.00    +0.000 A 
ATOM     20  C   UNL     1       1.648   7.561  20.487  0.00  0.00    +0.000 A 
ATOM     21  C   UNL     1       2.417   7.512  19.321  0.00  0.00    +0.000 A 
ATOM     22  C   UNL     1       2.665   6.301  18.649  0.00  0.00    +0.000 A 
BRANCH  17  24
ATOM     23  C   UNL     1       1.314   2.920  18.893  0.00  0.00    +0.000 C 
ATOM     24  O   UNL     1       2.213   3.944  18.464  0.00  0.00    +0.000 OA
ENDBRANCH  17  24
BRANCH  22  25
ATOM     25  O   UNL     1       3.425   6.478  17.522  0.00  0.00    +0.000 OA
ATOM     26  C   UNL     1       4.828   6.290  17.602  0.00  0.00    +0.000 C 
ENDBRANCH  22  25
ENDBRANCH   1  20
TORSDOF 3
ENDMDL
MODEL 8
REMARK VINA RESULT:      -6.6      1.969      4.153
REMARK  Name = 
REMARK  5 active torsions:
REMARK  status: ('A' for Active; 'I' for Inactive)
REMARK    1  A    between atoms: C_1  and  O_2
REMARK    2  A    between atoms: O_2  and  C_3
REMARK    3  A    between atoms: C_6  and  N_7
REMARK    4  A    between atoms: C_23  and  O_24
REMARK    5  A    between atoms: O_24  and  C_25
REMARK                            x       y       z     vdW  Elec       q    Type
REMARK                         _______ _______ _______ _____ _____    ______ ____
ROOT
ATOM      1  N   UNL     1       1.368   7.341  21.182  0.00  0.00    +0.000 N 
ATOM      2  C   UNL     1       1.845   6.329  20.352  0.00  0.00    +0.000 A 
ATOM      3  N   UNL     1       1.562   5.089  20.768  0.00  0.00    +0.000 NA
ATOM      4  C   UNL     1       2.250   4.085  20.213  0.00  0.00    +0.000 A 
ATOM      5  C   UNL     1       3.251   4.298  19.294  0.00  0.00    +0.000 A 
ATOM      6  C   UNL     1       3.386   5.592  18.819  0.00  0.00    +0.000 A 
ATOM      7  N   UNL     1       2.671   6.614  19.318  0.00  0.00    +0.000 NA
ATOM      8  C   UNL     1       4.551   5.902  17.974  0.00  0.00    +0.000 A 
ATOM      9  C   UNL     1       4.459   6.445  16.689  0.00  0.00    +0.000 A 
ATOM     10  C   UNL     1       5.618   6.650  15.929  0.00  0.00    +0.000 A 
ATOM     11  C   UNL     1       6.883   6.427  16.487  0.00  0.00    +0.000 A 
ATOM     12  C   UNL     1       6.992   5.845  17.745  0.00  0.00    +0.000 A 
ATOM     13  C   UNL     1       5.829   5.470  18.408  0.00  0.00    +0.000 A 
ATOM     14  S   UNL     1       5.920   4.053  19.538  0.00  0.00    +0.000 S 
ATOM     15  C   UNL     1       4.317   3.303  18.986  0.00  0.00    +0.000 C 
ATOM     16  H   UNL     1       0.912   6.923  21.979  0.00  0.00    +0.000 HD
ENDROOT
BRANCH   1  20
ATOM     17  C   UNL     1       0.208  11.301  20.331  0.00  0.00    +0.000 A 
ATOM     18  C   UNL     1       0.804  10.507  19.342  0.00  0.00    +0.000 A 
ATOM     19  C   UNL     1       1.208   9.207  19.625  0.00  0.00    +0.000 A 
ATOM     20  C   UNL     1       1.041   8.670  20.897  0.00  0.00    +0.000 A 
ATOM     21  C   UNL     1       0.578   9.511  21.912  0.00  0.00    +0.000 A 
ATOM     22  C   UNL     1       0.162  10.829  21.649  0.00  0.00    +0.000 A 
BRANCH  17  24
ATOM     23  C   UNL     1      -1.461  12.473  19.150  0.00  0.00    +0.000 C 
ATOM     24  O   UNL     1      -0.321  12.524  20.009  0.00  0.00    +0.000 OA
ENDBRANCH  17  24
BRANCH  22  25
ATOM     25  O   UNL     1      -0.269  11.474  22.779  0.00  0.00    +0.000 OA
ATOM     26  C   UNL     1      -1.644  11.414  23.122  0.00  0.00    +0.000 C 
ENDBRANCH  22  25
ENDBRANCH   1  20
TORSDOF 3
ENDMDL
MODEL 9
REMARK VINA RESULT:      -6.4      4.199      8.225
REMARK  Name = 
REMARK  5 active torsions:
REMARK  status: ('A' for Active; 'I' for Inactive)
REMARK    1  A    between atoms: C_1  and  O_2
REMARK    2  A    between atoms: O_2  and  C_3
REMARK    3  A    between atoms: C_6  and  N_7
REMARK    4  A    between atoms: C_23  and  O_24
REMARK    5  A    between atoms: O_24  and  C_25
REMARK                            x       y       z     vdW  Elec       q    Type
REMARK                         _______ _______ _______ _____ _____    ______ ____
ROOT
ATOM      1  N   UNL     1       1.205   7.446  20.523  0.00  0.00    +0.000 N 
ATOM      2  C   UNL     1       0.978   8.642  21.199  0.00  0.00    +0.000 A 
ATOM      3  N   UNL     1       0.285   8.517  22.337  0.00  0.00    +0.000 NA
ATOM      4  C   UNL     1      -0.241   9.630  22.860  0.00  0.00    +0.000 A 
ATOM      5  C   UNL     1      -0.137  10.854  22.243  0.00  0.00    +0.000 A 
ATOM      6  C   UNL     1       0.707  10.921  21.146  0.00  0.00    +0.000 A 
ATOM      7  N   UNL     1       1.295   9.829  20.630  0.00  0.00    +0.000 NA
ATOM      8  C   UNL     1       0.712  12.159  20.350  0.00  0.00    +0.000 A 
ATOM      9  C   UNL     1       1.859  12.917  20.094  0.00  0.00    +0.000 A 
ATOM     10  C   UNL     1       1.763  14.118  19.379  0.00  0.00    +0.000 A 
ATOM     11  C   UNL     1       0.544  14.512  18.813  0.00  0.00    +0.000 A 
ATOM     12  C   UNL     1      -0.615  13.797  19.096  0.00  0.00    +0.000 A 
ATOM     13  C   UNL     1      -0.533  12.715  19.966  0.00  0.00    +0.000 A 
ATOM     14  S   UNL     1      -1.996  12.324  20.966  0.00  0.00    +0.000 S 
ATOM     15  C   UNL     1      -1.044  12.003  22.524  0.00  0.00    +0.000 C 
ATOM     16  H   UNL     1       0.759   6.695  21.029  0.00  0.00    +0.000 HD
ENDROOT
BRANCH   1  20
ATOM     17  C   UNL     1       4.374   6.429  17.941  0.00  0.00    +0.000 A 
ATOM     18  C   UNL     1       3.488   7.460  17.605  0.00  0.00    +0.000 A 
ATOM     19  C   UNL     1       2.427   7.784  18.444  0.00  0.00    +0.000 A 
ATOM     20  C   UNL     1       2.217   7.086  19.629  0.00  0.00    +0.000 A 
ATOM     21  C   UNL     1       3.016   5.969  19.886  0.00  0.00    +0.000 A 
ATOM     22  C   UNL     1       4.095   5.624  19.052  0.00  0.00    +0.000 A 
BRANCH  17  24
ATOM     23  C   UNL     1       5.249   5.958  15.804  0.00  0.00    +0.000 C 
ATOM     24  O   UNL     1       5.499   6.211  17.188  0.00  0.00    +0.000 OA
ENDBRANCH  17  24
BRANCH  22  25
ATOM     25  O   UNL     1       4.756   4.506  19.494  0.00  0.00    +0.000 OA
ATOM     26  C   UNL     1       4.285   3.228  19.100  0.00  0.00    +0.000 C 
ENDBRANCH  22  25
ENDBRANCH   1  20
TORSDOF 3
ENDMDL
