MODEL 1
REMARK VINA RESULT:      -7.9      0.000      0.000
REMARK  Name = 
REMARK  8 active torsions:
REMARK  status: ('A' for Active; 'I' for Inactive)
REMARK    1  A    between atoms: C_1  and  C_2
REMARK    2  A    between atoms: C_2  and  C_4
REMARK    3  A    between atoms: C_7  and  S_8
REMARK    4  A    between atoms: S_8  and  N_11
REMARK    5  A    between atoms: C_15  and  C_17
REMARK    6  A    between atoms: C_17  and  S_18
REMARK    7  A    between atoms: S_18  and  C_19
REMARK    8  A    between atoms: C_19  and  N_21
REMARK                            x       y       z     vdW  Elec       q    Type
REMARK                         _______ _______ _______ _____ _____    ______ ____
ROOT
ATOM      1  N   UNL     1       3.289   4.633  18.854  0.00  0.00    +0.000 NA
ATOM      2  C   UNL     1       2.401   4.399  20.008  0.00  0.00    +0.000 C 
ATOM      3  C   UNL     1       2.121   5.702  20.747  0.00  0.00    +0.000 C 
ATOM      4  N   UNL     1       1.822   6.868  19.896  0.00  0.00    +0.000 N 
ATOM      5  C   UNL     1       1.506   8.044  20.596  0.00  0.00    +0.000 C 
ATOM      6  O   UNL     1       1.417   8.025  21.827  0.00  0.00    +0.000 OA
ATOM      7  C   UNL     1       2.389   6.918  18.535  0.00  0.00    +0.000 C 
ATOM      8  C   UNL     1       2.656   5.552  17.886  0.00  0.00    +0.000 C 
ENDROOT
BRANCH   1   9
ATOM      9  S   UNL     1       4.963   4.493  18.984  0.00  0.00    +0.000 S 
ATOM     10  O   UNL     1       5.226   3.176  19.527  0.00  0.00    +0.000 OA
ATOM     11  O   UNL     1       5.462   5.683  19.652  0.00  0.00    +0.000 OA
BRANCH   9  15
ATOM     12  C   UNL     1       6.653   4.711  14.696  0.00  0.00    +0.000 A 
ATOM     13  C   UNL     1       5.532   3.912  14.968  0.00  0.00    +0.000 A 
ATOM     14  C   UNL     1       5.027   3.812  16.280  0.00  0.00    +0.000 A 
ATOM     15  C   UNL     1       5.652   4.495  17.329  0.00  0.00    +0.000 A 
ATOM     16  C   UNL     1       6.724   5.352  17.046  0.00  0.00    +0.000 A 
ATOM     17  C   UNL     1       7.228   5.446  15.743  0.00  0.00    +0.000 A 
BRANCH  12  19
ATOM     18  C   UNL     1       6.883   3.849  12.259  0.00  0.00    +0.000 C 
ATOM     19  C   UNL     1       7.271   4.825  13.335  0.00  0.00    +0.000 C 
ATOM     20  O   UNL     1       8.104   5.708  13.122  0.00  0.00    +0.000 OA
ENDBRANCH  12  19
ENDBRANCH   9  15
ENDBRANCH   1   9
BRANCH   5  21
ATOM     21  C   UNL     1       1.265   9.311  19.764  0.00  0.00    +0.000 C 
BRANCH  21  22
ATOM     22  S   UNL     1      -0.247  10.175  20.298  0.00  0.00    +0.000 S 
BRANCH  22  23
ATOM     23  C   UNL     1      -0.587  11.327  19.000  0.00  0.00    +0.000 C 
ATOM     24  S   UNL     1       0.375  12.678  18.722  0.00  0.00    +0.000 S 
BRANCH  23  25
ATOM     25  N   UNL     1      -1.682  10.978  18.206  0.00  0.00    +0.000 N 
ATOM     26  C   UNL     1      -2.991  11.629  18.240  0.00  0.00    +0.000 C 
ATOM     27  C   UNL     1      -3.937  10.547  17.747  0.00  0.00    +0.000 C 
ATOM     28  C   UNL     1      -3.124   9.840  16.673  0.00  0.00    +0.000 C 
ATOM     29  C   UNL     1      -1.677   9.972  17.141  0.00  0.00    +0.000 C 
ENDBRANCH  23  25
ENDBRANCH  22  23
ENDBRANCH  21  22
ENDBRANCH   5  21
TORSDOF 7
ENDMDL
MODEL 2
REMARK VINA RESULT:      -7.6      0.487      1.249
REMARK  Name = 
REMARK  8 active torsions:
REMARK  status: ('A' for Active; 'I' for Inactive)
REMARK    1  A    between atoms: C_1  and  C_2
REMARK    2  A    between atoms: C_2  and  C_4
REMARK    3  A    between atoms: C_7  and  S_8
REMARK    4  A    between atoms: S_8  and  N_11
REMARK    5  A    between atoms: C_15  and  C_17
REMARK    6  A    between atoms: C_17  and  S_18
REMARK    7  A    between atoms: S_18  and  C_19
REMARK    8  A    between atoms: C_19  and  N_21
REMARK                            x       y       z     vdW  Elec       q    Type
REMARK                         _______ _______ _______ _____ _____    ______ ____
ROOT
ATOM      1  N   UNL     1       3.244   4.589  18.905  0.00  0.00    +0.000 NA
ATOM      2  C   UNL     1       2.389   4.435  20.098  0.00  0.00    +0.000 C 
ATOM      3  C   UNL     1       2.144   5.783  20.765  0.00  0.00    +0.000 C 
ATOM      4  N   UNL     1       1.830   6.899  19.853  0.00  0.00    +0.000 N 
ATOM      5  C   UNL     1       1.547   8.119  20.490  0.00  0.00    +0.000 C 
ATOM      6  O   UNL     1       1.495   8.175  21.722  0.00  0.00    +0.000 OA
ATOM      7  C   UNL     1       2.356   6.860  18.475  0.00  0.00    +0.000 C 
ATOM      8  C   UNL     1       2.590   5.455  17.903  0.00  0.00    +0.000 C 
ENDROOT
BRANCH   1   9
ATOM      9  S   UNL     1       4.920   4.438  18.994  0.00  0.00    +0.000 S 
ATOM     10  O   UNL     1       5.191   3.076  19.408  0.00  0.00    +0.000 OA
ATOM     11  O   UNL     1       5.432   5.562  19.760  0.00  0.00    +0.000 OA
BRANCH   9  15
ATOM     12  C   UNL     1       6.639   4.607  14.716  0.00  0.00    +0.000 A 
ATOM     13  C   UNL     1       7.433   4.995  15.806  0.00  0.00    +0.000 A 
ATOM     14  C   UNL     1       6.908   4.979  17.114  0.00  0.00    +0.000 A 
ATOM     15  C   UNL     1       5.581   4.593  17.335  0.00  0.00    +0.000 A 
ATOM     16  C   UNL     1       4.813   4.132  16.257  0.00  0.00    +0.000 A 
ATOM     17  C   UNL     1       5.334   4.154  14.958  0.00  0.00    +0.000 A 
BRANCH  12  19
ATOM     18  C   UNL     1       6.594   3.639  12.308  0.00  0.00    +0.000 C 
ATOM     19  C   UNL     1       7.118   4.645  13.295  0.00  0.00    +0.000 C 
ATOM     20  O   UNL     1       7.951   5.489  12.961  0.00  0.00    +0.000 OA
ENDBRANCH  12  19
ENDBRANCH   9  15
ENDBRANCH   1   9
BRANCH   5  21
ATOM     21  C   UNL     1       1.292   9.336  19.590  0.00  0.00    +0.000 C 
BRANCH  21  22
ATOM     22  S   UNL     1       0.513  10.694  20.520  0.00  0.00    +0.000 S 
BRANCH  22  23
ATOM     23  C   UNL     1      -0.102  11.792  19.278  0.00  0.00    +0.000 C 
ATOM     24  S   UNL     1       0.779  13.116  18.731  0.00  0.00    +0.000 S 
BRANCH  23  25
ATOM     25  N   UNL     1      -1.348  11.424  18.764  0.00  0.00    +0.000 N 
ATOM     26  C   UNL     1      -1.585  10.321  17.834  0.00  0.00    +0.000 C 
ATOM     27  C   UNL     1      -2.859  10.733  17.114  0.00  0.00    +0.000 C 
ATOM     28  C   UNL     1      -3.675  11.398  18.211  0.00  0.00    +0.000 C 
ATOM     29  C   UNL     1      -2.635  12.014  19.142  0.00  0.00    +0.000 C 
ENDBRANCH  23  25
ENDBRANCH  22  23
ENDBRANCH  21  22
ENDBRANCH   5  21
TORSDOF 7
ENDMDL
MODEL 3
REMARK VINA RESULT:      -7.5      1.919      2.624
REMARK  Name = 
REMARK  8 active torsions:
REMARK  status: ('A' for Active; 'I' for Inactive)
REMARK    1  A    between atoms: C_1  and  C_2
REMARK    2  A    between atoms: C_2  and  C_4
REMARK    3  A    between atoms: C_7  and  S_8
REMARK    4  A    between atoms: S_8  and  N_11
REMARK    5  A    between atoms: C_15  and  C_17
REMARK    6  A    between atoms: C_17  and  S_18
REMARK    7  A    between atoms: S_18  and  C_19
REMARK    8  A    between atoms: C_19  and  N_21
REMARK                            x       y       z     vdW  Elec       q    Type
REMARK                         _______ _______ _______ _____ _____    ______ ____
ROOT
ATOM      1  N   UNL     1       3.191   4.455  18.914  0.00  0.00    +0.000 NA
ATOM      2  C   UNL     1       2.328   4.367  20.108  0.00  0.00    +0.000 C 
ATOM      3  C   UNL     1       2.109   5.746  20.718  0.00  0.00    +0.000 C 
ATOM      4  N   UNL     1       1.822   6.830  19.760  0.00  0.00    +0.000 N 
ATOM      5  C   UNL     1       1.561   8.080  20.346  0.00  0.00    +0.000 C 
ATOM      6  O   UNL     1       1.506   8.188  21.574  0.00  0.00    +0.000 OA
ATOM      7  C   UNL     1       2.352   6.724  18.388  0.00  0.00    +0.000 C 
ATOM      8  C   UNL     1       2.559   5.292  17.874  0.00  0.00    +0.000 C 
ENDROOT
BRANCH   1   9
ATOM      9  S   UNL     1       4.863   4.273  19.017  0.00  0.00    +0.000 S 
ATOM     10  O   UNL     1       5.109   2.881  19.333  0.00  0.00    +0.000 OA
ATOM     11  O   UNL     1       5.377   5.330  19.871  0.00  0.00    +0.000 OA
BRANCH   9  15
ATOM     12  C   UNL     1       6.787   4.789  14.855  0.00  0.00    +0.000 A 
ATOM     13  C   UNL     1       7.033   5.734  15.863  0.00  0.00    +0.000 A 
ATOM     14  C   UNL     1       6.425   5.605  17.128  0.00  0.00    +0.000 A 
ATOM     15  C   UNL     1       5.553   4.540  17.384  0.00  0.00    +0.000 A 
ATOM     16  C   UNL     1       5.367   3.556  16.404  0.00  0.00    +0.000 A 
ATOM     17  C   UNL     1       5.968   3.689  15.147  0.00  0.00    +0.000 A 
BRANCH  12  19
ATOM     18  C   UNL     1       6.816   4.022  12.375  0.00  0.00    +0.000 C 
ATOM     19  C   UNL     1       7.363   4.891  13.474  0.00  0.00    +0.000 C 
ATOM     20  O   UNL     1       8.291   5.673  13.263  0.00  0.00    +0.000 OA
ENDBRANCH  12  19
ENDBRANCH   9  15
ENDBRANCH   1   9
BRANCH   5  21
ATOM     21  C   UNL     1       1.335   9.264  19.395  0.00  0.00    +0.000 C 
BRANCH  21  22
ATOM     22  S   UNL     1      -0.205  10.150  19.797  0.00  0.00    +0.000 S 
BRANCH  22  23
ATOM     23  C   UNL     1       0.329  11.709  20.438  0.00  0.00    +0.000 C 
ATOM     24  S   UNL     1       1.503  12.640  19.674  0.00  0.00    +0.000 S 
BRANCH  23  25
ATOM     25  N   UNL     1      -0.351  12.110  21.590  0.00  0.00    +0.000 N 
ATOM     26  C   UNL     1      -1.130  11.231  22.460  0.00  0.00    +0.000 C 
ATOM     27  C   UNL     1      -2.133  12.172  23.107  0.00  0.00    +0.000 C 
ATOM     28  C   UNL     1      -1.326  13.443  23.322  0.00  0.00    +0.000 C 
ATOM     29  C   UNL     1      -0.318  13.454  22.175  0.00  0.00    +0.000 C 
ENDBRANCH  23  25
ENDBRANCH  22  23
ENDBRANCH  21  22
ENDBRANCH   5  21
TORSDOF 7
ENDMDL
MODEL 4
REMARK VINA RESULT:      -7.4      1.618      2.506
REMARK  Name = 
REMARK  8 active torsions:
REMARK  status: ('A' for Active; 'I' for Inactive)
REMARK    1  A    between atoms: C_1  and  C_2
REMARK    2  A    between atoms: C_2  and  C_4
REMARK    3  A    between atoms: C_7  and  S_8
REMARK    4  A    between atoms: S_8  and  N_11
REMARK    5  A    between atoms: C_15  and  C_17
REMARK    6  A    between atoms: C_17  and  S_18
REMARK    7  A    between atoms: S_18  and  C_19
REMARK    8  A    between atoms: C_19  and  N_21
REMARK                            x       y       z     vdW  Elec       q    Type
REMARK                         _______ _______ _______ _____ _____    ______ ____
ROOT
ATOM      1  N   UNL     1       3.219   4.509  18.927  0.00  0.00    +0.000 NA
ATOM      2  C   UNL     1       2.309   4.397  20.083  0.00  0.00    +0.000 C 
ATOM      3  C   UNL     1       2.062   5.764  20.710  0.00  0.00    +0.000 C 
ATOM      4  N   UNL     1       1.811   6.865  19.762  0.00  0.00    +0.000 N 
ATOM      5  C   UNL     1       1.524   8.104  20.359  0.00  0.00    +0.000 C 
ATOM      6  O   UNL     1       1.419   8.188  21.586  0.00  0.00    +0.000 OA
ATOM      7  C   UNL     1       2.397   6.786  18.410  0.00  0.00    +0.000 C 
ATOM      8  C   UNL     1       2.628   5.365  17.878  0.00  0.00    +0.000 C 
ENDROOT
BRANCH   1   9
ATOM      9  S   UNL     1       4.886   4.328  19.094  0.00  0.00    +0.000 S 
ATOM     10  O   UNL     1       5.109   2.982  19.581  0.00  0.00    +0.000 OA
ATOM     11  O   UNL     1       5.390   5.475  19.829  0.00  0.00    +0.000 OA
BRANCH   9  15
ATOM     12  C   UNL     1       6.685   4.704  14.862  0.00  0.00    +0.000 A 
ATOM     13  C   UNL     1       5.579   3.869  15.082  0.00  0.00    +0.000 A 
ATOM     14  C   UNL     1       5.042   3.720  16.376  0.00  0.00    +0.000 A 
ATOM     15  C   UNL     1       5.619   4.392  17.459  0.00  0.00    +0.000 A 
ATOM     16  C   UNL     1       6.674   5.286  17.228  0.00  0.00    +0.000 A 
ATOM     17  C   UNL     1       7.210   5.428  15.943  0.00  0.00    +0.000 A 
BRANCH  12  19
ATOM     18  C   UNL     1       6.880   4.027  12.364  0.00  0.00    +0.000 C 
ATOM     19  C   UNL     1       7.336   4.872  13.521  0.00  0.00    +0.000 C 
ATOM     20  O   UNL     1       8.250   5.687  13.392  0.00  0.00    +0.000 OA
ENDBRANCH  12  19
ENDBRANCH   9  15
ENDBRANCH   1   9
BRANCH   5  21
ATOM     21  C   UNL     1       1.334   9.305  19.423  0.00  0.00    +0.000 C 
BRANCH  21  22
ATOM     22  S   UNL     1       0.671  10.744  20.321  0.00  0.00    +0.000 S 
BRANCH  22  23
ATOM     23  C   UNL     1      -0.023  11.776  19.064  0.00  0.00    +0.000 C 
ATOM     24  S   UNL     1      -1.445  11.378  18.258  0.00  0.00    +0.000 S 
BRANCH  23  25
ATOM     25  N   UNL     1       0.683  12.962  18.850  0.00  0.00    +0.000 N 
ATOM     26  C   UNL     1       2.091  13.049  18.465  0.00  0.00    +0.000 C 
ATOM     27  C   UNL     1       2.517  14.410  18.988  0.00  0.00    +0.000 C 
ATOM     28  C   UNL     1       1.289  15.274  18.744  0.00  0.00    +0.000 C 
ATOM     29  C   UNL     1       0.113  14.311  18.879  0.00  0.00    +0.000 C 
ENDBRANCH  23  25
ENDBRANCH  22  23
ENDBRANCH  21  22
ENDBRANCH   5  21
TORSDOF 7
ENDMDL
MODEL 5
REMARK VINA RESULT:      -7.3      1.793      2.257
REMARK  Name = 
REMARK  8 active torsions:
REMARK  status: ('A' for Active; 'I' for Inactive)
REMARK    1  A    between atoms: C_1  and  C_2
REMARK    2  A    between atoms: C_2  and  C_4
REMARK    3  A    between atoms: C_7  and  S_8
REMARK    4  A    between atoms: S_8  and  N_11
REMARK    5  A    between atoms: C_15  and  C_17
REMARK    6  A    between atoms: C_17  and  S_18
REMARK    7  A    between atoms: S_18  and  C_19
REMARK    8  A    between atoms: C_19  and  N_21
REMARK                            x       y       z     vdW  Elec       q    Type
REMARK                         _______ _______ _______ _____ _____    ______ ____
ROOT
ATOM      1  N   UNL     1       3.219   4.735  18.829  0.00  0.00    +0.000 NA
ATOM      2  C   UNL     1       2.267   4.566  19.944  0.00  0.00    +0.000 C 
ATOM      3  C   UNL     1       2.015   5.895  20.646  0.00  0.00    +0.000 C 
ATOM      4  N   UNL     1       1.812   7.056  19.760  0.00  0.00    +0.000 N 
ATOM      5  C   UNL     1       1.519   8.259  20.423  0.00  0.00    +0.000 C 
ATOM      6  O   UNL     1       1.372   8.269  21.648  0.00  0.00    +0.000 OA
ATOM      7  C   UNL     1       2.444   7.052  18.427  0.00  0.00    +0.000 C 
ATOM      8  C   UNL     1       2.676   5.663  17.816  0.00  0.00    +0.000 C 
ENDROOT
BRANCH   1   9
ATOM      9  S   UNL     1       4.877   4.520  19.042  0.00  0.00    +0.000 S 
ATOM     10  O   UNL     1       5.057   3.175  19.550  0.00  0.00    +0.000 OA
ATOM     11  O   UNL     1       5.387   5.665  19.778  0.00  0.00    +0.000 OA
BRANCH   9  15
ATOM     12  C   UNL     1       6.750   4.781  14.834  0.00  0.00    +0.000 A 
ATOM     13  C   UNL     1       5.816   3.775  15.124  0.00  0.00    +0.000 A 
ATOM     14  C   UNL     1       5.262   3.665  16.416  0.00  0.00    +0.000 A 
ATOM     15  C   UNL     1       5.654   4.549  17.427  0.00  0.00    +0.000 A 
ATOM     16  C   UNL     1       6.526   5.601  17.118  0.00  0.00    +0.000 A 
ATOM     17  C   UNL     1       7.080   5.705  15.836  0.00  0.00    +0.000 A 
BRANCH  12  19
ATOM     18  C   UNL     1       6.963   4.069  12.347  0.00  0.00    +0.000 C 
ATOM     19  C   UNL     1       7.414   4.926  13.497  0.00  0.00    +0.000 C 
ATOM     20  O   UNL     1       8.335   5.734  13.365  0.00  0.00    +0.000 OA
ENDBRANCH  12  19
ENDBRANCH   9  15
ENDBRANCH   1   9
BRANCH   5  21
ATOM     21  C   UNL     1       1.377   9.519  19.557  0.00  0.00    +0.000 C 
BRANCH  21  22
ATOM     22  S   UNL     1      -0.357  10.067  19.466  0.00  0.00    +0.000 S 
BRANCH  22  23
ATOM     23  C   UNL     1      -0.450  11.447  20.568  0.00  0.00    +0.000 C 
ATOM     24  S   UNL     1      -0.609  11.260  22.231  0.00  0.00    +0.000 S 
BRANCH  23  25
ATOM     25  N   UNL     1      -0.322  12.686  19.935  0.00  0.00    +0.000 N 
ATOM     26  C   UNL     1       0.488  12.947  18.746  0.00  0.00    +0.000 C 
ATOM     27  C   UNL     1       0.813  14.428  18.858  0.00  0.00    +0.000 C 
ATOM     28  C   UNL     1      -0.467  15.020  19.429  0.00  0.00    +0.000 C 
ATOM     29  C   UNL     1      -1.050  13.906  20.294  0.00  0.00    +0.000 C 
ENDBRANCH  23  25
ENDBRANCH  22  23
ENDBRANCH  21  22
ENDBRANCH   5  21
TORSDOF 7
ENDMDL
MODEL 6
REMARK VINA RESULT:      -7.2      2.643      3.272
REMARK  Name = 
REMARK  8 active torsions:
REMARK  status: ('A' for Active; 'I' for Inactive)
REMARK    1  A    between atoms: C_1  and  C_2
REMARK    2  A    between atoms: C_2  and  C_4
REMARK    3  A    between atoms: C_7  and  S_8
REMARK    4  A    between atoms: S_8  and  N_11
REMARK    5  A    between atoms: C_15  and  C_17
REMARK    6  A    between atoms: C_17  and  S_18
REMARK    7  A    between atoms: S_18  and  C_19
REMARK    8  A    between atoms: C_19  and  N_21
REMARK                            x       y       z     vdW  Elec       q    Type
REMARK                         _______ _______ _______ _____ _____    ______ ____
ROOT
ATOM      1  N   UNL     1       1.930   3.384  19.031  0.00  0.00    +0.000 NA
ATOM      2  C   UNL     1       1.254   3.871  20.249  0.00  0.00    +0.000 C 
ATOM      3  C   UNL     1       1.645   5.313  20.544  0.00  0.00    +0.000 C 
ATOM      4  N   UNL     1       1.669   6.219  19.381  0.00  0.00    +0.000 N 
ATOM      5  C   UNL     1       1.971   7.558  19.683  0.00  0.00    +0.000 C 
ATOM      6  O   UNL     1       2.114   7.909  20.857  0.00  0.00    +0.000 OA
ATOM      7  C   UNL     1       1.946   5.655  18.046  0.00  0.00    +0.000 C 
ATOM      8  C   UNL     1       1.535   4.188  17.857  0.00  0.00    +0.000 C 
ENDROOT
BRANCH   1   9
ATOM      9  S   UNL     1       3.410   2.582  19.103  0.00  0.00    +0.000 S 
ATOM     10  O   UNL     1       3.361   1.533  18.105  0.00  0.00    +0.000 OA
ATOM     11  O   UNL     1       3.684   2.269  20.496  0.00  0.00    +0.000 OA
BRANCH   9  15
ATOM     12  C   UNL     1       6.541   5.683  17.735  0.00  0.00    +0.000 A 
ATOM     13  C   UNL     1       5.985   4.791  16.805  0.00  0.00    +0.000 A 
ATOM     14  C   UNL     1       5.053   3.818  17.217  0.00  0.00    +0.000 A 
ATOM     15  C   UNL     1       4.686   3.721  18.564  0.00  0.00    +0.000 A 
ATOM     16  C   UNL     1       5.181   4.660  19.479  0.00  0.00    +0.000 A 
ATOM     17  C   UNL     1       6.112   5.622  19.068  0.00  0.00    +0.000 A 
BRANCH  12  19
ATOM     18  C   UNL     1       8.196   7.548  18.456  0.00  0.00    +0.000 C 
ATOM     19  C   UNL     1       7.572   6.710  17.374  0.00  0.00    +0.000 C 
ATOM     20  O   UNL     1       7.879   6.868  16.192  0.00  0.00    +0.000 OA
ENDBRANCH  12  19
ENDBRANCH   9  15
ENDBRANCH   1   9
BRANCH   5  21
ATOM     21  C   UNL     1       2.090   8.532  18.503  0.00  0.00    +0.000 C 
BRANCH  21  22
ATOM     22  S   UNL     1       0.629   9.612  18.388  0.00  0.00    +0.000 S 
BRANCH  22  23
ATOM     23  C   UNL     1       1.149  11.147  19.095  0.00  0.00    +0.000 C 
ATOM     24  S   UNL     1       2.238  12.170  18.323  0.00  0.00    +0.000 S 
BRANCH  23  25
ATOM     25  N   UNL     1       0.533  11.447  20.312  0.00  0.00    +0.000 N 
ATOM     26  C   UNL     1       0.609  10.630  21.522  0.00  0.00    +0.000 C 
ATOM     27  C   UNL     1      -0.664  10.988  22.272  0.00  0.00    +0.000 C 
ATOM     28  C   UNL     1      -0.819  12.476  21.997  0.00  0.00    +0.000 C 
ATOM     29  C   UNL     1      -0.210  12.674  20.612  0.00  0.00    +0.000 C 
ENDBRANCH  23  25
ENDBRANCH  22  23
ENDBRANCH  21  22
ENDBRANCH   5  21
TORSDOF 7
ENDMDL
MODEL 7
REMARK VINA RESULT:      -7.2      1.839      2.456
REMARK  Name = 
REMARK  8 active torsions:
REMARK  status: ('A' for Active; 'I' for Inactive)
REMARK    1  A    between atoms: C_1  and  C_2
REMARK    2  A    between atoms: C_2  and  C_4
REMARK    3  A    between atoms: C_7  and  S_8
REMARK    4  A    between atoms: S_8  and  N_11
REMARK    5  A    between atoms: C_15  and  C_17
REMARK    6  A    between atoms: C_17  and  S_18
REMARK    7  A    between atoms: S_18  and  C_19
REMARK    8  A    between atoms: C_19  and  N_21
REMARK                            x       y       z     vdW  Elec       q    Type
REMARK                         _______ _______ _______ _____ _____    ______ ____
ROOT
ATOM      1  N   UNL     1       3.184   4.679  18.892  0.00  0.00    +0.000 NA
ATOM      2  C   UNL     1       2.332   4.527  20.086  0.00  0.00    +0.000 C 
ATOM      3  C   UNL     1       2.113   5.871  20.769  0.00  0.00    +0.000 C 
ATOM      4  N   UNL     1       1.816   7.002  19.871  0.00  0.00    +0.000 N 
ATOM      5  C   UNL     1       1.556   8.220  20.523  0.00  0.00    +0.000 C 
ATOM      6  O   UNL     1       1.510   8.263  21.756  0.00  0.00    +0.000 OA
ATOM      7  C   UNL     1       2.336   6.970  18.491  0.00  0.00    +0.000 C 
ATOM      8  C   UNL     1       2.543   5.568  17.902  0.00  0.00    +0.000 C 
ENDROOT
BRANCH   1   9
ATOM      9  S   UNL     1       4.858   4.498  18.972  0.00  0.00    +0.000 S 
ATOM     10  O   UNL     1       5.105   3.155  19.456  0.00  0.00    +0.000 OA
ATOM     11  O   UNL     1       5.401   5.650  19.671  0.00  0.00    +0.000 OA
BRANCH   9  15
ATOM     12  C   UNL     1       6.527   4.400  14.672  0.00  0.00    +0.000 A 
ATOM     13  C   UNL     1       7.353   4.794  15.735  0.00  0.00    +0.000 A 
ATOM     14  C   UNL     1       6.845   4.860  17.048  0.00  0.00    +0.000 A 
ATOM     15  C   UNL     1       5.504   4.549  17.300  0.00  0.00    +0.000 A 
ATOM     16  C   UNL     1       4.700   4.081  16.252  0.00  0.00    +0.000 A 
ATOM     17  C   UNL     1       5.205   4.023  14.948  0.00  0.00    +0.000 A 
BRANCH  12  19
ATOM     18  C   UNL     1       7.981   5.370  12.753  0.00  0.00    +0.000 C 
ATOM     19  C   UNL     1       6.988   4.354  13.246  0.00  0.00    +0.000 C 
ATOM     20  O   UNL     1       6.531   3.495  12.490  0.00  0.00    +0.000 OA
ENDBRANCH  12  19
ENDBRANCH   9  15
ENDBRANCH   1   9
BRANCH   5  21
ATOM     21  C   UNL     1       1.319   9.451  19.638  0.00  0.00    +0.000 C 
BRANCH  21  22
ATOM     22  S   UNL     1      -0.360  10.116  19.865  0.00  0.00    +0.000 S 
BRANCH  22  23
ATOM     23  C   UNL     1      -0.121  11.675  20.666  0.00  0.00    +0.000 C 
ATOM     24  S   UNL     1       1.256  12.609  20.420  0.00  0.00    +0.000 S 
BRANCH  23  25
ATOM     25  N   UNL     1      -1.196  12.072  21.464  0.00  0.00    +0.000 N 
ATOM     26  C   UNL     1      -1.212  12.063  22.926  0.00  0.00    +0.000 C 
ATOM     27  C   UNL     1      -2.688  11.933  23.263  0.00  0.00    +0.000 C 
ATOM     28  C   UNL     1      -3.362  12.780  22.194  0.00  0.00    +0.000 C 
ATOM     29  C   UNL     1      -2.449  12.657  20.977  0.00  0.00    +0.000 C 
ENDBRANCH  23  25
ENDBRANCH  22  23
ENDBRANCH  21  22
ENDBRANCH   5  21
TORSDOF 7
ENDMDL
MODEL 8
REMARK VINA RESULT:      -7.2      2.659      3.511
REMARK  Name = 
REMARK  8 active torsions:
REMARK  status: ('A' for Active; 'I' for Inactive)
REMARK    1  A    between atoms: C_1  and  C_2
REMARK    2  A    between atoms: C_2  and  C_4
REMARK    3  A    between atoms: C_7  and  S_8
REMARK    4  A    between atoms: S_8  and  N_11
REMARK    5  A    between atoms: C_15  and  C_17
REMARK    6  A    between atoms: C_17  and  S_18
REMARK    7  A    between atoms: S_18  and  C_19
REMARK    8  A    between atoms: C_19  and  N_21
REMARK                            x       y       z     vdW  Elec       q    Type
REMARK                         _______ _______ _______ _____ _____    ______ ____
ROOT
ATOM      1  N   UNL     1       1.857   3.465  19.007  0.00  0.00    +0.000 NA
ATOM      2  C   UNL     1       1.144   3.919  20.216  0.00  0.00    +0.000 C 
ATOM      3  C   UNL     1       1.543   5.345  20.576  0.00  0.00    +0.000 C 
ATOM      4  N   UNL     1       1.621   6.290  19.447  0.00  0.00    +0.000 N 
ATOM      5  C   UNL     1       1.930   7.613  19.806  0.00  0.00    +0.000 C 
ATOM      6  O   UNL     1       2.034   7.922  20.996  0.00  0.00    +0.000 OA
ATOM      7  C   UNL     1       1.939   5.769  18.104  0.00  0.00    +0.000 C 
ATOM      8  C   UNL     1       1.516   4.315  17.849  0.00  0.00    +0.000 C 
ENDROOT
BRANCH   1   9
ATOM      9  S   UNL     1       3.324   2.641  19.105  0.00  0.00    +0.000 S 
ATOM     10  O   UNL     1       3.266   1.577  18.122  0.00  0.00    +0.000 OA
ATOM     11  O   UNL     1       3.580   2.344  20.504  0.00  0.00    +0.000 OA
BRANCH   9  15
ATOM     12  C   UNL     1       6.519   5.669  17.723  0.00  0.00    +0.000 A 
ATOM     13  C   UNL     1       5.936   4.792  16.795  0.00  0.00    +0.000 A 
ATOM     14  C   UNL     1       4.983   3.841  17.211  0.00  0.00    +0.000 A 
ATOM     15  C   UNL     1       4.623   3.749  18.560  0.00  0.00    +0.000 A 
ATOM     16  C   UNL     1       5.146   4.675  19.474  0.00  0.00    +0.000 A 
ATOM     17  C   UNL     1       6.097   5.615  19.059  0.00  0.00    +0.000 A 
BRANCH  12  19
ATOM     18  C   UNL     1       8.174   7.539  18.429  0.00  0.00    +0.000 C 
ATOM     19  C   UNL     1       7.572   6.672  17.358  0.00  0.00    +0.000 C 
ATOM     20  O   UNL     1       7.915   6.787  16.180  0.00  0.00    +0.000 OA
ENDBRANCH  12  19
ENDBRANCH   9  15
ENDBRANCH   1   9
BRANCH   5  21
ATOM     21  C   UNL     1       2.104   8.625  18.665  0.00  0.00    +0.000 C 
BRANCH  21  22
ATOM     22  S   UNL     1       0.603   9.631  18.439  0.00  0.00    +0.000 S 
BRANCH  22  23
ATOM     23  C   UNL     1       0.684  10.851  19.717  0.00  0.00    +0.000 C 
ATOM     24  S   UNL     1      -0.155  10.691  21.166  0.00  0.00    +0.000 S 
BRANCH  23  25
ATOM     25  N   UNL     1       1.543  11.914  19.431  0.00  0.00    +0.000 N 
ATOM     26  C   UNL     1       1.958  12.943  20.383  0.00  0.00    +0.000 C 
ATOM     27  C   UNL     1       2.294  14.131  19.497  0.00  0.00    +0.000 C 
ATOM     28  C   UNL     1       2.935  13.482  18.279  0.00  0.00    +0.000 C 
ATOM     29  C   UNL     1       2.249  12.124  18.164  0.00  0.00    +0.000 C 
ENDBRANCH  23  25
ENDBRANCH  22  23
ENDBRANCH  21  22
ENDBRANCH   5  21
TORSDOF 7
ENDMDL
MODEL 9
REMARK VINA RESULT:      -7.1      1.427      1.852
REMARK  Name = 
REMARK  8 active torsions:
REMARK  status: ('A' for Active; 'I' for Inactive)
REMARK    1  A    between atoms: C_1  and  C_2
REMARK    2  A    between atoms: C_2  and  C_4
REMARK    3  A    between atoms: C_7  and  S_8
REMARK    4  A    between atoms: S_8  and  N_11
REMARK    5  A    between atoms: C_15  and  C_17
REMARK    6  A    between atoms: C_17  and  S_18
REMARK    7  A    between atoms: S_18  and  C_19
REMARK    8  A    between atoms: C_19  and  N_21
REMARK                            x       y       z     vdW  Elec       q    Type
REMARK                         _______ _______ _______ _____ _____    ______ ____
ROOT
ATOM      1  N   UNL     1       3.253   4.512  18.910  0.00  0.00    +0.000 NA
ATOM      2  C   UNL     1       2.374   4.431  20.092  0.00  0.00    +0.000 C 
ATOM      3  C   UNL     1       2.133   5.814  20.683  0.00  0.00    +0.000 C 
ATOM      4  N   UNL     1       1.852   6.885  19.709  0.00  0.00    +0.000 N 
ATOM      5  C   UNL     1       1.571   8.139  20.276  0.00  0.00    +0.000 C 
ATOM      6  O   UNL     1       1.497   8.260  21.502  0.00  0.00    +0.000 OA
ATOM      7  C   UNL     1       2.404   6.768  18.346  0.00  0.00    +0.000 C 
ATOM      8  C   UNL     1       2.631   5.333  17.851  0.00  0.00    +0.000 C 
ENDROOT
BRANCH   1   9
ATOM      9  S   UNL     1       4.925   4.346  19.040  0.00  0.00    +0.000 S 
ATOM     10  O   UNL     1       5.170   3.008  19.539  0.00  0.00    +0.000 OA
ATOM     11  O   UNL     1       5.438   5.507  19.749  0.00  0.00    +0.000 OA
BRANCH   9  15
ATOM     12  C   UNL     1       6.686   4.701  14.790  0.00  0.00    +0.000 A 
ATOM     13  C   UNL     1       5.394   4.185  14.973  0.00  0.00    +0.000 A 
ATOM     14  C   UNL     1       4.858   4.041  16.268  0.00  0.00    +0.000 A 
ATOM     15  C   UNL     1       5.620   4.395  17.388  0.00  0.00    +0.000 A 
ATOM     16  C   UNL     1       6.878   4.983  17.203  0.00  0.00    +0.000 A 
ATOM     17  C   UNL     1       7.411   5.119  15.915  0.00  0.00    +0.000 A 
BRANCH  12  19
ATOM     18  C   UNL     1       6.911   3.933  12.321  0.00  0.00    +0.000 C 
ATOM     19  C   UNL     1       7.335   4.837  13.445  0.00  0.00    +0.000 C 
ATOM     20  O   UNL     1       8.223   5.676  13.285  0.00  0.00    +0.000 OA
ENDBRANCH  12  19
ENDBRANCH   9  15
ENDBRANCH   1   9
BRANCH   5  21
ATOM     21  C   UNL     1       1.350   9.311  19.310  0.00  0.00    +0.000 C 
BRANCH  21  22
ATOM     22  S   UNL     1      -0.224  10.160  19.649  0.00  0.00    +0.000 S 
BRANCH  22  23
ATOM     23  C   UNL     1       0.151  11.881  19.490  0.00  0.00    +0.000 C 
ATOM     24  S   UNL     1       1.625  12.428  18.893  0.00  0.00    +0.000 S 
BRANCH  23  25
ATOM     25  N   UNL     1      -0.902  12.725  19.849  0.00  0.00    +0.000 N 
ATOM     26  C   UNL     1      -0.848  14.186  19.857  0.00  0.00    +0.000 C 
ATOM     27  C   UNL     1      -1.901  14.574  20.881  0.00  0.00    +0.000 C 
ATOM     28  C   UNL     1      -3.000  13.549  20.652  0.00  0.00    +0.000 C 
ATOM     29  C   UNL     1      -2.263  12.297  20.183  0.00  0.00    +0.000 C 
ENDBRANCH  23  25
ENDBRANCH  22  23
ENDBRANCH  21  22
ENDBRANCH   5  21
TORSDOF 7
ENDMDL
