MODEL 1
REMARK VINA RESULT:      -9.0      0.000      0.000
REMARK  Name = 
REMARK  5 active torsions:
REMARK  status: ('A' for Active; 'I' for Inactive)
REMARK    1  A    between atoms: C_1  and  C_2
REMARK    2  A    between atoms: C_7  and  C_9
REMARK    3  A    between atoms: C_11  and  O_12
REMARK    4  A    between atoms: O_12  and  C_13
REMARK    5  A    between atoms: C_20  and  C_21
REMARK                            x       y       z     vdW  Elec       q    Type
REMARK                         _______ _______ _______ _____ _____    ______ ____
ROOT
ATOM      1  C   UNL     1       2.740   6.094  19.564  0.00  0.00    +0.000 A 
ATOM      2  C   UNL     1       4.068   5.840  19.183  0.00  0.00    +0.000 A 
ATOM      3  C   UNL     1       4.564   4.539  19.169  0.00  0.00    +0.000 A 
ATOM      4  C   UNL     1       3.754   3.489  19.604  0.00  0.00    +0.000 A 
ATOM      5  C   UNL     1       2.404   3.715  19.923  0.00  0.00    +0.000 A 
ATOM      6  C   UNL     1       1.904   5.028  19.918  0.00  0.00    +0.000 A 
ENDROOT
BRANCH   1  13
ATOM      7  C   UNL     1      -0.777  11.679  22.578  0.00  0.00    +0.000 C 
ATOM      8  C   UNL     1      -0.163  10.941  21.445  0.00  0.00    +0.000 A 
ATOM      9  C   UNL     1       0.014  11.426  20.162  0.00  0.00    +0.000 A 
ATOM     10  S   UNL     1       0.792  10.249  19.200  0.00  0.00    +0.000 S 
ATOM     11  C   UNL     1       0.861   9.195  20.537  0.00  0.00    +0.000 A 
ATOM     12  N   UNL     1       1.426   7.940  20.468  0.00  0.00    +0.000 N 
ATOM     13  C   UNL     1       2.249   7.497  19.456  0.00  0.00    +0.000 C 
ATOM     14  O   UNL     1       2.653   8.144  18.497  0.00  0.00    +0.000 OA
ATOM     15  N   UNL     1       0.298   9.643  21.641  0.00  0.00    +0.000 NA
ATOM     16  H   UNL     1       1.317   7.408  21.320  0.00  0.00    +0.000 HD
ENDBRANCH   1  13
BRANCH   5  17
ATOM     17  C   UNL     1       1.491   2.540  20.191  0.00  0.00    +0.000 C 
ATOM     18  F   UNL     1       1.871   1.398  19.555  0.00  0.00    +0.000 F 
ATOM     19  F   UNL     1       1.414   2.233  21.512  0.00  0.00    +0.000 F 
ATOM     20  F   UNL     1       0.215   2.784  19.784  0.00  0.00    +0.000 F 
ENDBRANCH   5  17
BRANCH   3  21
ATOM     21  O   UNL     1       5.862   4.385  18.736  0.00  0.00    +0.000 OA
BRANCH  21  22
ATOM     22  C   UNL     1       6.147   4.518  17.405  0.00  0.00    +0.000 A 
ATOM     23  C   UNL     1       5.518   3.875  16.357  0.00  0.00    +0.000 A 
ATOM     24  N   UNL     1       5.887   4.000  15.064  0.00  0.00    +0.000 NA
ATOM     25  C   UNL     1       6.897   4.852  14.828  0.00  0.00    +0.000 A 
ATOM     26  N   UNL     1       7.534   5.589  15.751  0.00  0.00    +0.000 NA
ATOM     27  C   UNL     1       7.129   5.408  17.028  0.00  0.00    +0.000 A 
ENDBRANCH  21  22
ENDBRANCH   3  21
TORSDOF 4
ENDMDL
MODEL 2
REMARK VINA RESULT:      -8.9      0.181      1.185
REMARK  Name = 
REMARK  5 active torsions:
REMARK  status: ('A' for Active; 'I' for Inactive)
REMARK    1  A    between atoms: C_1  and  C_2
REMARK    2  A    between atoms: C_7  and  C_9
REMARK    3  A    between atoms: C_11  and  O_12
REMARK    4  A    between atoms: O_12  and  C_13
REMARK    5  A    between atoms: C_20  and  C_21
REMARK                            x       y       z     vdW  Elec       q    Type
REMARK                         _______ _______ _______ _____ _____    ______ ____
ROOT
ATOM      1  C   UNL     1       2.811   6.081  19.468  0.00  0.00    +0.000 A 
ATOM      2  C   UNL     1       4.148   5.813  19.130  0.00  0.00    +0.000 A 
ATOM      3  C   UNL     1       4.642   4.512  19.167  0.00  0.00    +0.000 A 
ATOM      4  C   UNL     1       3.818   3.476  19.612  0.00  0.00    +0.000 A 
ATOM      5  C   UNL     1       2.461   3.713  19.889  0.00  0.00    +0.000 A 
ATOM      6  C   UNL     1       1.964   5.027  19.832  0.00  0.00    +0.000 A 
ENDROOT
BRANCH   1  13
ATOM      7  C   UNL     1      -0.624  11.817  22.287  0.00  0.00    +0.000 C 
ATOM      8  C   UNL     1      -0.033  11.025  21.178  0.00  0.00    +0.000 A 
ATOM      9  C   UNL     1       0.125  11.451  19.872  0.00  0.00    +0.000 A 
ATOM     10  S   UNL     1       0.880  10.227  18.950  0.00  0.00    +0.000 S 
ATOM     11  C   UNL     1       0.966   9.234  20.332  0.00  0.00    +0.000 A 
ATOM     12  N   UNL     1       1.523   7.973  20.310  0.00  0.00    +0.000 N 
ATOM     13  C   UNL     1       2.326   7.480  19.305  0.00  0.00    +0.000 C 
ATOM     14  O   UNL     1       2.718   8.081  18.312  0.00  0.00    +0.000 OA
ATOM     15  N   UNL     1       0.424   9.734  21.424  0.00  0.00    +0.000 NA
ATOM     16  H   UNL     1       1.426   7.480  21.187  0.00  0.00    +0.000 HD
ENDBRANCH   1  13
BRANCH   5  17
ATOM     17  C   UNL     1       1.539   2.549  20.169  0.00  0.00    +0.000 C 
ATOM     18  F   UNL     1       1.530   2.161  21.474  0.00  0.00    +0.000 F 
ATOM     19  F   UNL     1       0.247   2.819  19.845  0.00  0.00    +0.000 F 
ATOM     20  F   UNL     1       1.884   1.443  19.455  0.00  0.00    +0.000 F 
ENDBRANCH   5  17
BRANCH   3  21
ATOM     21  O   UNL     1       5.950   4.343  18.773  0.00  0.00    +0.000 OA
BRANCH  21  22
ATOM     22  C   UNL     1       6.291   4.560  17.467  0.00  0.00    +0.000 A 
ATOM     23  C   UNL     1       7.243   5.442  16.996  0.00  0.00    +0.000 A 
ATOM     24  N   UNL     1       7.491   5.658  15.686  0.00  0.00    +0.000 NA
ATOM     25  C   UNL     1       6.780   4.909  14.829  0.00  0.00    +0.000 A 
ATOM     26  N   UNL     1       5.884   3.968  15.166  0.00  0.00    +0.000 NA
ATOM     27  C   UNL     1       5.670   3.810  16.491  0.00  0.00    +0.000 A 
ENDBRANCH  21  22
ENDBRANCH   3  21
TORSDOF 4
ENDMDL
MODEL 3
REMARK VINA RESULT:      -8.9      3.535      4.969
REMARK  Name = 
REMARK  5 active torsions:
REMARK  status: ('A' for Active; 'I' for Inactive)
REMARK    1  A    between atoms: C_1  and  C_2
REMARK    2  A    between atoms: C_7  and  C_9
REMARK    3  A    between atoms: C_11  and  O_12
REMARK    4  A    between atoms: O_12  and  C_13
REMARK    5  A    between atoms: C_20  and  C_21
REMARK                            x       y       z     vdW  Elec       q    Type
REMARK                         _______ _______ _______ _____ _____    ______ ____
ROOT
ATOM      1  C   UNL     1       3.541   6.535  17.718  0.00  0.00    +0.000 A 
ATOM      2  C   UNL     1       2.999   5.273  18.012  0.00  0.00    +0.000 A 
ATOM      3  C   UNL     1       3.723   4.113  17.748  0.00  0.00    +0.000 A 
ATOM      4  C   UNL     1       4.968   4.206  17.123  0.00  0.00    +0.000 A 
ATOM      5  C   UNL     1       5.554   5.460  16.884  0.00  0.00    +0.000 A 
ATOM      6  C   UNL     1       4.826   6.628  17.170  0.00  0.00    +0.000 A 
ENDROOT
BRANCH   1  13
ATOM      7  C   UNL     1      -0.209  10.045  22.843  0.00  0.00    +0.000 C 
ATOM      8  C   UNL     1       0.244   9.800  21.450  0.00  0.00    +0.000 A 
ATOM      9  C   UNL     1      -0.014  10.610  20.360  0.00  0.00    +0.000 A 
ATOM     10  S   UNL     1       0.729   9.960  18.967  0.00  0.00    +0.000 S 
ATOM     11  C   UNL     1       1.353   8.674  19.894  0.00  0.00    +0.000 A 
ATOM     12  N   UNL     1       2.135   7.676  19.354  0.00  0.00    +0.000 N 
ATOM     13  C   UNL     1       2.753   7.733  18.123  0.00  0.00    +0.000 C 
ATOM     14  O   UNL     1       2.757   8.679  17.343  0.00  0.00    +0.000 OA
ATOM     15  N   UNL     1       1.003   8.670  21.165  0.00  0.00    +0.000 NA
ATOM     16  H   UNL     1       2.359   6.945  20.014  0.00  0.00    +0.000 HD
ENDBRANCH   1  13
BRANCH   5  17
ATOM     17  C   UNL     1       6.983   5.540  16.398  0.00  0.00    +0.000 C 
ATOM     18  F   UNL     1       7.609   6.701  16.733  0.00  0.00    +0.000 F 
ATOM     19  F   UNL     1       7.756   4.536  16.891  0.00  0.00    +0.000 F 
ATOM     20  F   UNL     1       7.066   5.450  15.043  0.00  0.00    +0.000 F 
ENDBRANCH   5  17
BRANCH   3  21
ATOM     21  O   UNL     1       3.130   2.925  18.114  0.00  0.00    +0.000 OA
BRANCH  21  22
ATOM     22  C   UNL     1       2.582   2.805  19.360  0.00  0.00    +0.000 A 
ATOM     23  C   UNL     1       1.240   2.858  19.682  0.00  0.00    +0.000 A 
ATOM     24  N   UNL     1       0.763   2.795  20.945  0.00  0.00    +0.000 NA
ATOM     25  C   UNL     1       1.683   2.619  21.905  0.00  0.00    +0.000 A 
ATOM     26  N   UNL     1       3.004   2.476  21.711  0.00  0.00    +0.000 NA
ATOM     27  C   UNL     1       3.420   2.564  20.428  0.00  0.00    +0.000 A 
ENDBRANCH  21  22
ENDBRANCH   3  21
TORSDOF 4
ENDMDL
MODEL 4
REMARK VINA RESULT:      -8.8      3.535      5.050
REMARK  Name = 
REMARK  5 active torsions:
REMARK  status: ('A' for Active; 'I' for Inactive)
REMARK    1  A    between atoms: C_1  and  C_2
REMARK    2  A    between atoms: C_7  and  C_9
REMARK    3  A    between atoms: C_11  and  O_12
REMARK    4  A    between atoms: O_12  and  C_13
REMARK    5  A    between atoms: C_20  and  C_21
REMARK                            x       y       z     vdW  Elec       q    Type
REMARK                         _______ _______ _______ _____ _____    ______ ____
ROOT
ATOM      1  C   UNL     1       3.567   6.468  17.640  0.00  0.00    +0.000 A 
ATOM      2  C   UNL     1       3.036   5.214  17.985  0.00  0.00    +0.000 A 
ATOM      3  C   UNL     1       3.742   4.045  17.710  0.00  0.00    +0.000 A 
ATOM      4  C   UNL     1       4.954   4.120  17.023  0.00  0.00    +0.000 A 
ATOM      5  C   UNL     1       5.533   5.366  16.731  0.00  0.00    +0.000 A 
ATOM      6  C   UNL     1       4.824   6.543  17.027  0.00  0.00    +0.000 A 
ENDROOT
BRANCH   1  13
ATOM      7  C   UNL     1      -0.134   9.986  22.793  0.00  0.00    +0.000 C 
ATOM      8  C   UNL     1       0.321   9.752  21.400  0.00  0.00    +0.000 A 
ATOM      9  C   UNL     1       0.090  10.584  20.320  0.00  0.00    +0.000 A 
ATOM     10  S   UNL     1       0.827   9.937  18.921  0.00  0.00    +0.000 S 
ATOM     11  C   UNL     1       1.415   8.624  19.833  0.00  0.00    +0.000 A 
ATOM     12  N   UNL     1       2.178   7.616  19.283  0.00  0.00    +0.000 N 
ATOM     13  C   UNL     1       2.805   7.677  18.057  0.00  0.00    +0.000 C 
ATOM     14  O   UNL     1       2.836   8.634  17.292  0.00  0.00    +0.000 OA
ATOM     15  N   UNL     1       1.056   8.608  21.102  0.00  0.00    +0.000 NA
ATOM     16  H   UNL     1       2.380   6.870  19.933  0.00  0.00    +0.000 HD
ENDBRANCH   1  13
BRANCH   5  17
ATOM     17  C   UNL     1       6.938   5.429  16.174  0.00  0.00    +0.000 C 
ATOM     18  F   UNL     1       6.985   5.436  14.814  0.00  0.00    +0.000 F 
ATOM     19  F   UNL     1       7.610   6.537  16.583  0.00  0.00    +0.000 F 
ATOM     20  F   UNL     1       7.688   4.364  16.566  0.00  0.00    +0.000 F 
ENDBRANCH   5  17
BRANCH   3  21
ATOM     21  O   UNL     1       3.162   2.868  18.129  0.00  0.00    +0.000 OA
BRANCH  21  22
ATOM     22  C   UNL     1       2.692   2.770  19.409  0.00  0.00    +0.000 A 
ATOM     23  C   UNL     1       3.440   2.551  20.549  0.00  0.00    +0.000 A 
ATOM     24  N   UNL     1       2.909   2.400  21.783  0.00  0.00    +0.000 NA
ATOM     25  C   UNL     1       1.575   2.529  21.861  0.00  0.00    +0.000 A 
ATOM     26  N   UNL     1       0.753   2.816  20.839  0.00  0.00    +0.000 NA
ATOM     27  C   UNL     1       1.342   2.940  19.630  0.00  0.00    +0.000 A 
ENDBRANCH  21  22
ENDBRANCH   3  21
TORSDOF 4
ENDMDL
MODEL 5
REMARK VINA RESULT:      -8.5      1.945      2.321
REMARK  Name = 
REMARK  5 active torsions:
REMARK  status: ('A' for Active; 'I' for Inactive)
REMARK    1  A    between atoms: C_1  and  C_2
REMARK    2  A    between atoms: C_7  and  C_9
REMARK    3  A    between atoms: C_11  and  O_12
REMARK    4  A    between atoms: O_12  and  C_13
REMARK    5  A    between atoms: C_20  and  C_21
REMARK                            x       y       z     vdW  Elec       q    Type
REMARK                         _______ _______ _______ _____ _____    ______ ____
ROOT
ATOM      1  C   UNL     1       2.002   6.650  20.021  0.00  0.00    +0.000 A 
ATOM      2  C   UNL     1       2.997   6.639  19.029  0.00  0.00    +0.000 A 
ATOM      3  C   UNL     1       3.460   5.435  18.504  0.00  0.00    +0.000 A 
ATOM      4  C   UNL     1       2.980   4.230  19.019  0.00  0.00    +0.000 A 
ATOM      5  C   UNL     1       1.938   4.222  19.961  0.00  0.00    +0.000 A 
ATOM      6  C   UNL     1       1.461   5.440  20.475  0.00  0.00    +0.000 A 
ENDROOT
BRANCH   1  13
ATOM      7  C   UNL     1      -0.490  13.228  18.246  0.00  0.00    +0.000 C 
ATOM      8  C   UNL     1       0.050  12.213  19.185  0.00  0.00    +0.000 A 
ATOM      9  C   UNL     1       0.167  12.356  20.555  0.00  0.00    +0.000 A 
ATOM     10  S   UNL     1       0.805  10.926  21.235  0.00  0.00    +0.000 S 
ATOM     11  C   UNL     1       0.864  10.212  19.690  0.00  0.00    +0.000 A 
ATOM     12  N   UNL     1       1.316   8.927  19.479  0.00  0.00    +0.000 N 
ATOM     13  C   UNL     1       1.483   7.975  20.461  0.00  0.00    +0.000 C 
ATOM     14  O   UNL     1       1.213   8.088  21.651  0.00  0.00    +0.000 OA
ATOM     15  N   UNL     1       0.486  10.987  18.692  0.00  0.00    +0.000 NA
ATOM     16  H   UNL     1       1.365   8.678  18.501  0.00  0.00    +0.000 HD
ENDBRANCH   1  13
BRANCH   5  17
ATOM     17  C   UNL     1       1.291   2.912  20.353  0.00  0.00    +0.000 C 
ATOM     18  F   UNL     1       2.082   1.826  20.131  0.00  0.00    +0.000 F 
ATOM     19  F   UNL     1       0.952   2.873  21.668  0.00  0.00    +0.000 F 
ATOM     20  F   UNL     1       0.144   2.684  19.658  0.00  0.00    +0.000 F 
ENDBRANCH   5  17
BRANCH   3  21
ATOM     21  O   UNL     1       4.400   5.527  17.502  0.00  0.00    +0.000 OA
BRANCH  21  22
ATOM     22  C   UNL     1       5.650   5.997  17.796  0.00  0.00    +0.000 A 
ATOM     23  C   UNL     1       6.513   5.507  18.756  0.00  0.00    +0.000 A 
ATOM     24  N   UNL     1       7.714   6.056  19.043  0.00  0.00    +0.000 NA
ATOM     25  C   UNL     1       8.067   7.107  18.288  0.00  0.00    +0.000 A 
ATOM     26  N   UNL     1       7.350   7.625  17.278  0.00  0.00    +0.000 NA
ATOM     27  C   UNL     1       6.153   7.042  17.051  0.00  0.00    +0.000 A 
ENDBRANCH  21  22
ENDBRANCH   3  21
TORSDOF 4
ENDMDL
MODEL 6
REMARK VINA RESULT:      -8.4      1.167      1.782
REMARK  Name = 
REMARK  5 active torsions:
REMARK  status: ('A' for Active; 'I' for Inactive)
REMARK    1  A    between atoms: C_1  and  C_2
REMARK    2  A    between atoms: C_7  and  C_9
REMARK    3  A    between atoms: C_11  and  O_12
REMARK    4  A    between atoms: O_12  and  C_13
REMARK    5  A    between atoms: C_20  and  C_21
REMARK                            x       y       z     vdW  Elec       q    Type
REMARK                         _______ _______ _______ _____ _____    ______ ____
ROOT
ATOM      1  C   UNL     1       2.711   6.037  19.637  0.00  0.00    +0.000 A 
ATOM      2  C   UNL     1       4.048   5.797  19.279  0.00  0.00    +0.000 A 
ATOM      3  C   UNL     1       4.552   4.499  19.251  0.00  0.00    +0.000 A 
ATOM      4  C   UNL     1       3.739   3.437  19.649  0.00  0.00    +0.000 A 
ATOM      5  C   UNL     1       2.382   3.650  19.944  0.00  0.00    +0.000 A 
ATOM      6  C   UNL     1       1.874   4.960  19.954  0.00  0.00    +0.000 A 
ENDROOT
BRANCH   1  13
ATOM      7  C   UNL     1      -0.837  11.569  22.713  0.00  0.00    +0.000 C 
ATOM      8  C   UNL     1      -0.217  10.848  21.572  0.00  0.00    +0.000 A 
ATOM      9  C   UNL     1      -0.039  11.350  20.296  0.00  0.00    +0.000 A 
ATOM     10  S   UNL     1       0.746  10.188  19.321  0.00  0.00    +0.000 S 
ATOM     11  C   UNL     1       0.817   9.118  20.644  0.00  0.00    +0.000 A 
ATOM     12  N   UNL     1       1.387   7.866  20.561  0.00  0.00    +0.000 N 
ATOM     13  C   UNL     1       2.215   7.439  19.545  0.00  0.00    +0.000 C 
ATOM     14  O   UNL     1       2.618   8.100  18.596  0.00  0.00    +0.000 OA
ATOM     15  N   UNL     1       0.249   9.549  21.753  0.00  0.00    +0.000 NA
ATOM     16  H   UNL     1       1.279   7.323  21.406  0.00  0.00    +0.000 HD
ENDBRANCH   1  13
BRANCH   5  17
ATOM     17  C   UNL     1       1.470   2.465  20.172  0.00  0.00    +0.000 C 
ATOM     18  F   UNL     1       1.409   2.066  21.472  0.00  0.00    +0.000 F 
ATOM     19  F   UNL     1       0.190   2.715  19.791  0.00  0.00    +0.000 F 
ATOM     20  F   UNL     1       1.869   1.373  19.466  0.00  0.00    +0.000 F 
ENDBRANCH   5  17
BRANCH   3  21
ATOM     21  O   UNL     1       5.859   4.360  18.841  0.00  0.00    +0.000 OA
BRANCH  21  22
ATOM     22  C   UNL     1       6.555   5.463  18.430  0.00  0.00    +0.000 A 
ATOM     23  C   UNL     1       7.635   6.044  19.065  0.00  0.00    +0.000 A 
ATOM     24  N   UNL     1       8.242   7.174  18.641  0.00  0.00    +0.000 NA
ATOM     25  C   UNL     1       7.765   7.697  17.501  0.00  0.00    +0.000 A 
ATOM     26  N   UNL     1       6.775   7.183  16.755  0.00  0.00    +0.000 NA
ATOM     27  C   UNL     1       6.198   6.061  17.240  0.00  0.00    +0.000 A 
ENDBRANCH  21  22
ENDBRANCH   3  21
TORSDOF 4
ENDMDL
MODEL 7
REMARK VINA RESULT:      -8.3      1.959      2.465
REMARK  Name = 
REMARK  5 active torsions:
REMARK  status: ('A' for Active; 'I' for Inactive)
REMARK    1  A    between atoms: C_1  and  C_2
REMARK    2  A    between atoms: C_7  and  C_9
REMARK    3  A    between atoms: C_11  and  O_12
REMARK    4  A    between atoms: O_12  and  C_13
REMARK    5  A    between atoms: C_20  and  C_21
REMARK                            x       y       z     vdW  Elec       q    Type
REMARK                         _______ _______ _______ _____ _____    ______ ____
ROOT
ATOM      1  C   UNL     1       1.982   6.632  20.042  0.00  0.00    +0.000 A 
ATOM      2  C   UNL     1       3.005   6.618  19.079  0.00  0.00    +0.000 A 
ATOM      3  C   UNL     1       3.469   5.413  18.557  0.00  0.00    +0.000 A 
ATOM      4  C   UNL     1       2.960   4.209  19.047  0.00  0.00    +0.000 A 
ATOM      5  C   UNL     1       1.891   4.206  19.960  0.00  0.00    +0.000 A 
ATOM      6  C   UNL     1       1.415   5.426  20.470  0.00  0.00    +0.000 A 
ENDROOT
BRANCH   1  13
ATOM      7  C   UNL     1      -0.480  13.217  18.247  0.00  0.00    +0.000 C 
ATOM      8  C   UNL     1       0.052  12.201  19.190  0.00  0.00    +0.000 A 
ATOM      9  C   UNL     1       0.165  12.346  20.560  0.00  0.00    +0.000 A 
ATOM     10  S   UNL     1       0.796  10.915  21.245  0.00  0.00    +0.000 S 
ATOM     11  C   UNL     1       0.858  10.198  19.701  0.00  0.00    +0.000 A 
ATOM     12  N   UNL     1       1.306   8.911  19.493  0.00  0.00    +0.000 N 
ATOM     13  C   UNL     1       1.466   7.960  20.478  0.00  0.00    +0.000 C 
ATOM     14  O   UNL     1       1.192   8.076  21.667  0.00  0.00    +0.000 OA
ATOM     15  N   UNL     1       0.486  10.973  18.701  0.00  0.00    +0.000 NA
ATOM     16  H   UNL     1       1.358   8.661  18.516  0.00  0.00    +0.000 HD
ENDBRANCH   1  13
BRANCH   5  17
ATOM     17  C   UNL     1       1.219   2.901  20.321  0.00  0.00    +0.000 C 
ATOM     18  F   UNL     1       0.053   2.685  19.653  0.00  0.00    +0.000 F 
ATOM     19  F   UNL     1       2.006   1.823  20.068  0.00  0.00    +0.000 F 
ATOM     20  F   UNL     1       0.906   2.840  21.644  0.00  0.00    +0.000 F 
ENDBRANCH   5  17
BRANCH   3  21
ATOM     21  O   UNL     1       4.439   5.502  17.583  0.00  0.00    +0.000 OA
BRANCH  21  22
ATOM     22  C   UNL     1       5.687   5.950  17.918  0.00  0.00    +0.000 A 
ATOM     23  C   UNL     1       6.374   6.995  17.333  0.00  0.00    +0.000 A 
ATOM     24  N   UNL     1       7.634   7.351  17.666  0.00  0.00    +0.000 NA
ATOM     25  C   UNL     1       8.190   6.650  18.667  0.00  0.00    +0.000 A 
ATOM     26  N   UNL     1       7.596   5.667  19.361  0.00  0.00    +0.000 NA
ATOM     27  C   UNL     1       6.343   5.348  18.970  0.00  0.00    +0.000 A 
ENDBRANCH  21  22
ENDBRANCH   3  21
TORSDOF 4
ENDMDL
MODEL 8
REMARK VINA RESULT:      -8.2      1.156      1.627
REMARK  Name = 
REMARK  5 active torsions:
REMARK  status: ('A' for Active; 'I' for Inactive)
REMARK    1  A    between atoms: C_1  and  C_2
REMARK    2  A    between atoms: C_7  and  C_9
REMARK    3  A    between atoms: C_11  and  O_12
REMARK    4  A    between atoms: O_12  and  C_13
REMARK    5  A    between atoms: C_20  and  C_21
REMARK                            x       y       z     vdW  Elec       q    Type
REMARK                         _______ _______ _______ _____ _____    ______ ____
ROOT
ATOM      1  C   UNL     1       2.648   6.225  19.020  0.00  0.00    +0.000 A 
ATOM      2  C   UNL     1       3.191   5.656  17.856  0.00  0.00    +0.000 A 
ATOM      3  C   UNL     1       3.504   4.300  17.810  0.00  0.00    +0.000 A 
ATOM      4  C   UNL     1       3.341   3.517  18.954  0.00  0.00    +0.000 A 
ATOM      5  C   UNL     1       2.736   4.052  20.104  0.00  0.00    +0.000 A 
ATOM      6  C   UNL     1       2.405   5.418  20.139  0.00  0.00    +0.000 A 
ENDROOT
BRANCH   1  13
ATOM      7  C   UNL     1      -0.542  11.897  22.228  0.00  0.00    +0.000 C 
ATOM      8  C   UNL     1       0.032  11.166  21.070  0.00  0.00    +0.000 A 
ATOM      9  C   UNL     1       0.242  11.685  19.806  0.00  0.00    +0.000 A 
ATOM     10  S   UNL     1       0.952  10.499  18.803  0.00  0.00    +0.000 S 
ATOM     11  C   UNL     1       0.953   9.396  20.101  0.00  0.00    +0.000 A 
ATOM     12  N   UNL     1       1.443   8.112  19.988  0.00  0.00    +0.000 N 
ATOM     13  C   UNL     1       2.242   7.657  18.962  0.00  0.00    +0.000 C 
ATOM     14  O   UNL     1       2.688   8.314  18.028  0.00  0.00    +0.000 OA
ATOM     15  N   UNL     1       0.413   9.836  21.220  0.00  0.00    +0.000 NA
ATOM     16  H   UNL     1       1.299   7.557  20.820  0.00  0.00    +0.000 HD
ENDBRANCH   1  13
BRANCH   5  17
ATOM     17  C   UNL     1       2.380   3.141  21.257  0.00  0.00    +0.000 C 
ATOM     18  F   UNL     1       2.255   3.790  22.446  0.00  0.00    +0.000 F 
ATOM     19  F   UNL     1       1.207   2.485  21.057  0.00  0.00    +0.000 F 
ATOM     20  F   UNL     1       3.323   2.179  21.455  0.00  0.00    +0.000 F 
ENDBRANCH   5  17
BRANCH   3  21
ATOM     21  O   UNL     1       3.987   3.825  16.611  0.00  0.00    +0.000 OA
BRANCH  21  22
ATOM     22  C   UNL     1       5.221   4.223  16.179  0.00  0.00    +0.000 A 
ATOM     23  C   UNL     1       6.382   4.273  16.925  0.00  0.00    +0.000 A 
ATOM     24  N   UNL     1       7.561   4.737  16.456  0.00  0.00    +0.000 NA
ATOM     25  C   UNL     1       7.567   5.113  15.168  0.00  0.00    +0.000 A 
ATOM     26  N   UNL     1       6.526   5.039  14.324  0.00  0.00    +0.000 NA
ATOM     27  C   UNL     1       5.371   4.581  14.856  0.00  0.00    +0.000 A 
ENDBRANCH  21  22
ENDBRANCH   3  21
TORSDOF 4
ENDMDL
MODEL 9
REMARK VINA RESULT:      -8.2      1.392      1.809
REMARK  Name = 
REMARK  5 active torsions:
REMARK  status: ('A' for Active; 'I' for Inactive)
REMARK    1  A    between atoms: C_1  and  C_2
REMARK    2  A    between atoms: C_7  and  C_9
REMARK    3  A    between atoms: C_11  and  O_12
REMARK    4  A    between atoms: O_12  and  C_13
REMARK    5  A    between atoms: C_20  and  C_21
REMARK                            x       y       z     vdW  Elec       q    Type
REMARK                         _______ _______ _______ _____ _____    ______ ____
ROOT
ATOM      1  C   UNL     1       2.647   6.102  19.856  0.00  0.00    +0.000 A 
ATOM      2  C   UNL     1       3.852   5.890  19.166  0.00  0.00    +0.000 A 
ATOM      3  C   UNL     1       4.426   4.622  19.116  0.00  0.00    +0.000 A 
ATOM      4  C   UNL     1       3.833   3.571  19.817  0.00  0.00    +0.000 A 
ATOM      5  C   UNL     1       2.594   3.748  20.455  0.00  0.00    +0.000 A 
ATOM      6  C   UNL     1       2.010   5.026  20.487  0.00  0.00    +0.000 A 
ENDROOT
BRANCH   1  13
ATOM      7  C   UNL     1      -1.171  11.373  23.063  0.00  0.00    +0.000 C 
ATOM      8  C   UNL     1      -0.551  10.691  21.899  0.00  0.00    +0.000 A 
ATOM      9  C   UNL     1      -0.473  11.193  20.613  0.00  0.00    +0.000 A 
ATOM     10  S   UNL     1       0.353  10.086  19.608  0.00  0.00    +0.000 S 
ATOM     11  C   UNL     1       0.569   9.037  20.933  0.00  0.00    +0.000 A 
ATOM     12  N   UNL     1       1.230   7.832  20.831  0.00  0.00    +0.000 N 
ATOM     13  C   UNL     1       2.039   7.460  19.780  0.00  0.00    +0.000 C 
ATOM     14  O   UNL     1       2.345   8.141  18.808  0.00  0.00    +0.000 OA
ATOM     15  N   UNL     1       0.022   9.434  22.065  0.00  0.00    +0.000 NA
ATOM     16  H   UNL     1       1.204   7.290  21.683  0.00  0.00    +0.000 HD
ENDBRANCH   1  13
BRANCH   5  17
ATOM     17  C   UNL     1       1.869   2.552  21.030  0.00  0.00    +0.000 C 
ATOM     18  F   UNL     1       0.687   2.866  21.627  0.00  0.00    +0.000 F 
ATOM     19  F   UNL     1       1.582   1.616  20.088  0.00  0.00    +0.000 F 
ATOM     20  F   UNL     1       2.609   1.918  21.981  0.00  0.00    +0.000 F 
ENDBRANCH   5  17
BRANCH   3  21
ATOM     21  O   UNL     1       5.581   4.503  18.377  0.00  0.00    +0.000 OA
BRANCH  21  22
ATOM     22  C   UNL     1       6.314   5.622  18.091  0.00  0.00    +0.000 A 
ATOM     23  C   UNL     1       6.092   6.516  17.063  0.00  0.00    +0.000 A 
ATOM     24  N   UNL     1       6.891   7.571  16.794  0.00  0.00    +0.000 NA
ATOM     25  C   UNL     1       7.922   7.749  17.635  0.00  0.00    +0.000 A 
ATOM     26  N   UNL     1       8.196   6.995  18.711  0.00  0.00    +0.000 NA
ATOM     27  C   UNL     1       7.369   5.946  18.918  0.00  0.00    +0.000 A 
ENDBRANCH  21  22
ENDBRANCH   3  21
TORSDOF 4
ENDMDL
