MODEL 1
REMARK VINA RESULT:      -5.6      0.000      0.000
REMARK  Name = 
REMARK  19 active torsions:
REMARK  status: ('A' for Active; 'I' for Inactive)
REMARK    1  A    between atoms: C_1  and  C_2
REMARK    2  A    between atoms: C_2  and  C_3
REMARK    3  A    between atoms: C_3  and  C_4
REMARK    4  A    between atoms: C_4  and  C_5
REMARK    5  A    between atoms: C_5  and  C_6
REMARK    6  A    between atoms: C_6  and  O_7
REMARK    7  A    between atoms: C_6  and  C_8
REMARK    8  A    between atoms: C_9  and  C_10
REMARK    9  A    between atoms: C_11  and  C_12
REMARK   10  A    between atoms: C_12  and  C_13
REMARK   11  A    between atoms: C_13  and  C_14
REMARK   12  A    between atoms: C_14  and  C_15
REMARK   13  A    between atoms: C_15  and  C_16
REMARK   14  A    between atoms: C_16  and  C_17
REMARK   15  A    between atoms: C_17  and  C_18
REMARK   16  A    between atoms: C_18  and  C_19
REMARK   17  A    between atoms: C_19  and  C_20
REMARK   18  A    between atoms: C_20  and  C_21
REMARK   19  A    between atoms: C_21  and  O_23
REMARK                            x       y       z     vdW  Elec       q    Type
REMARK                         _______ _______ _______ _____ _____    ______ ____
ROOT
ATOM      1  C   UNL     1       1.286   4.547  20.681  0.00  0.00    +0.000 C 
ENDROOT
BRANCH   1   3
ATOM      2  C   UNL     1       3.095   6.030  19.768  0.00  0.00    +0.000 C 
ATOM      3  C   UNL     1       2.718   4.917  20.419  0.00  0.00    +0.000 C 
BRANCH   2   5
ATOM      4  C   UNL     1       2.494   8.011  18.439  0.00  0.00    +0.000 C 
ATOM      5  C   UNL     1       2.159   6.997  19.244  0.00  0.00    +0.000 C 
BRANCH   4   6
ATOM      6  C   UNL     1       1.469   9.000  17.957  0.00  0.00    +0.000 C 
BRANCH   6   7
ATOM      7  O   UNL     1       2.133  10.073  17.302  0.00  0.00    +0.000 OA
ATOM      8  H   UNL     1       2.624  10.569  17.978  0.00  0.00    +0.000 HD
ENDBRANCH   6   7
BRANCH   6   9
ATOM      9  C   UNL     1       0.625   9.517  19.122  0.00  0.00    +0.000 C 
BRANCH   9  10
ATOM     10  C   UNL     1      -0.340  10.618  18.677  0.00  0.00    +0.000 C 
BRANCH  10  11
ATOM     11  C   UNL     1      -1.047  11.239  19.880  0.00  0.00    +0.000 C 
BRANCH  11  13
ATOM     12  C   UNL     1      -0.514  13.323  18.582  0.00  0.00    +0.000 C 
ATOM     13  C   UNL     1      -1.443  12.687  19.601  0.00  0.00    +0.000 C 
ENDBRANCH  11  13
ENDBRANCH  10  11
ENDBRANCH   9  10
ENDBRANCH   6   9
ENDBRANCH   4   6
ENDBRANCH   2   5
ENDBRANCH   1   3
BRANCH   1  14
ATOM     14  C   UNL     1       0.997   3.065  20.489  0.00  0.00    +0.000 C 
BRANCH  14  15
ATOM     15  C   UNL     1       2.232   2.376  19.908  0.00  0.00    +0.000 C 
BRANCH  15  16
ATOM     16  C   UNL     1       2.171   2.331  18.388  0.00  0.00    +0.000 C 
BRANCH  16  17
ATOM     17  C   UNL     1       3.556   2.553  17.787  0.00  0.00    +0.000 C 
BRANCH  17  18
ATOM     18  C   UNL     1       3.547   3.773  16.873  0.00  0.00    +0.000 C 
BRANCH  18  19
ATOM     19  C   UNL     1       4.959   4.152  16.434  0.00  0.00    +0.000 C 
BRANCH  19  20
ATOM     20  C   UNL     1       5.268   5.592  16.837  0.00  0.00    +0.000 C 
BRANCH  20  21
ATOM     21  C   UNL     1       6.227   5.653  18.021  0.00  0.00    +0.000 C 
BRANCH  21  22
ATOM     22  C   UNL     1       7.428   6.515  17.711  0.00  0.00    +0.000 C 
ATOM     23  O   UNL     1       7.758   6.895  16.599  0.00  0.00    +0.000 OA
BRANCH  22  24
ATOM     24  O   UNL     1       8.126   6.838  18.824  0.00  0.00    +0.000 OA
ATOM     25  H   UNL     1       8.114   6.144  19.509  0.00  0.00    +0.000 HD
ENDBRANCH  22  24
ENDBRANCH  21  22
ENDBRANCH  20  21
ENDBRANCH  19  20
ENDBRANCH  18  19
ENDBRANCH  17  18
ENDBRANCH  16  17
ENDBRANCH  15  16
ENDBRANCH  14  15
ENDBRANCH   1  14
TORSDOF 18
ENDMDL
MODEL 2
REMARK VINA RESULT:      -5.5      1.723      2.804
REMARK  Name = 
REMARK  19 active torsions:
REMARK  status: ('A' for Active; 'I' for Inactive)
REMARK    1  A    between atoms: C_1  and  C_2
REMARK    2  A    between atoms: C_2  and  C_3
REMARK    3  A    between atoms: C_3  and  C_4
REMARK    4  A    between atoms: C_4  and  C_5
REMARK    5  A    between atoms: C_5  and  C_6
REMARK    6  A    between atoms: C_6  and  O_7
REMARK    7  A    between atoms: C_6  and  C_8
REMARK    8  A    between atoms: C_9  and  C_10
REMARK    9  A    between atoms: C_11  and  C_12
REMARK   10  A    between atoms: C_12  and  C_13
REMARK   11  A    between atoms: C_13  and  C_14
REMARK   12  A    between atoms: C_14  and  C_15
REMARK   13  A    between atoms: C_15  and  C_16
REMARK   14  A    between atoms: C_16  and  C_17
REMARK   15  A    between atoms: C_17  and  C_18
REMARK   16  A    between atoms: C_18  and  C_19
REMARK   17  A    between atoms: C_19  and  C_20
REMARK   18  A    between atoms: C_20  and  C_21
REMARK   19  A    between atoms: C_21  and  O_23
REMARK                            x       y       z     vdW  Elec       q    Type
REMARK                         _______ _______ _______ _____ _____    ______ ____
ROOT
ATOM      1  C   UNL     1       2.462   6.820  19.912  0.00  0.00    +0.000 C 
ENDROOT
BRANCH   1   3
ATOM      2  C   UNL     1       2.116   7.976  17.710  0.00  0.00    +0.000 C 
ATOM      3  C   UNL     1       2.670   6.990  18.434  0.00  0.00    +0.000 C 
BRANCH   2   5
ATOM      4  C   UNL     1       1.597  10.268  18.441  0.00  0.00    +0.000 C 
ATOM      5  C   UNL     1       1.252   8.985  18.276  0.00  0.00    +0.000 C 
BRANCH   4   6
ATOM      6  C   UNL     1       0.656  11.258  19.069  0.00  0.00    +0.000 C 
BRANCH   6   7
ATOM      7  O   UNL     1       0.443  12.333  18.164  0.00  0.00    +0.000 OA
ATOM      8  H   UNL     1       0.414  11.958  17.268  0.00  0.00    +0.000 HD
ENDBRANCH   6   7
BRANCH   6   9
ATOM      9  C   UNL     1       1.214  11.770  20.396  0.00  0.00    +0.000 C 
BRANCH   9  10
ATOM     10  C   UNL     1       0.100  12.225  21.342  0.00  0.00    +0.000 C 
BRANCH  10  11
ATOM     11  C   UNL     1      -0.643  11.023  21.920  0.00  0.00    +0.000 C 
BRANCH  11  13
ATOM     12  C   UNL     1      -0.362   8.529  21.801  0.00  0.00    +0.000 C 
ATOM     13  C   UNL     1       0.304   9.848  22.152  0.00  0.00    +0.000 C 
ENDBRANCH  11  13
ENDBRANCH  10  11
ENDBRANCH   9  10
ENDBRANCH   6   9
ENDBRANCH   4   6
ENDBRANCH   2   5
ENDBRANCH   1   3
BRANCH   1  14
ATOM     14  C   UNL     1       1.355   5.835  20.260  0.00  0.00    +0.000 C 
BRANCH  14  15
ATOM     15  C   UNL     1       1.955   4.441  20.450  0.00  0.00    +0.000 C 
BRANCH  15  16
ATOM     16  C   UNL     1       0.924   3.357  20.175  0.00  0.00    +0.000 C 
BRANCH  16  17
ATOM     17  C   UNL     1       1.385   2.451  19.037  0.00  0.00    +0.000 C 
BRANCH  17  18
ATOM     18  C   UNL     1       2.019   3.279  17.925  0.00  0.00    +0.000 C 
BRANCH  18  19
ATOM     19  C   UNL     1       3.425   2.785  17.594  0.00  0.00    +0.000 C 
BRANCH  19  20
ATOM     20  C   UNL     1       4.400   3.959  17.555  0.00  0.00    +0.000 C 
BRANCH  20  21
ATOM     21  C   UNL     1       5.166   4.099  18.866  0.00  0.00    +0.000 C 
BRANCH  21  22
ATOM     22  C   UNL     1       6.077   5.304  18.842  0.00  0.00    +0.000 C 
ATOM     23  O   UNL     1       6.043   6.201  18.016  0.00  0.00    +0.000 OA
BRANCH  22  24
ATOM     24  O   UNL     1       6.966   5.292  19.863  0.00  0.00    +0.000 OA
ATOM     25  H   UNL     1       7.880   5.496  19.590  0.00  0.00    +0.000 HD
ENDBRANCH  22  24
ENDBRANCH  21  22
ENDBRANCH  20  21
ENDBRANCH  19  20
ENDBRANCH  18  19
ENDBRANCH  17  18
ENDBRANCH  16  17
ENDBRANCH  15  16
ENDBRANCH  14  15
ENDBRANCH   1  14
TORSDOF 18
ENDMDL
MODEL 3
REMARK VINA RESULT:      -5.5      2.043      3.010
REMARK  Name = 
REMARK  19 active torsions:
REMARK  status: ('A' for Active; 'I' for Inactive)
REMARK    1  A    between atoms: C_1  and  C_2
REMARK    2  A    between atoms: C_2  and  C_3
REMARK    3  A    between atoms: C_3  and  C_4
REMARK    4  A    between atoms: C_4  and  C_5
REMARK    5  A    between atoms: C_5  and  C_6
REMARK    6  A    between atoms: C_6  and  O_7
REMARK    7  A    between atoms: C_6  and  C_8
REMARK    8  A    between atoms: C_9  and  C_10
REMARK    9  A    between atoms: C_11  and  C_12
REMARK   10  A    between atoms: C_12  and  C_13
REMARK   11  A    between atoms: C_13  and  C_14
REMARK   12  A    between atoms: C_14  and  C_15
REMARK   13  A    between atoms: C_15  and  C_16
REMARK   14  A    between atoms: C_16  and  C_17
REMARK   15  A    between atoms: C_17  and  C_18
REMARK   16  A    between atoms: C_18  and  C_19
REMARK   17  A    between atoms: C_19  and  C_20
REMARK   18  A    between atoms: C_20  and  C_21
REMARK   19  A    between atoms: C_21  and  O_23
REMARK                            x       y       z     vdW  Elec       q    Type
REMARK                         _______ _______ _______ _____ _____    ______ ____
ROOT
ATOM      1  C   UNL     1       2.101   6.560  18.355  0.00  0.00    +0.000 C 
ENDROOT
BRANCH   1   3
ATOM      2  C   UNL     1       2.448   8.984  17.799  0.00  0.00    +0.000 C 
ATOM      3  C   UNL     1       2.851   7.704  17.734  0.00  0.00    +0.000 C 
BRANCH   2   5
ATOM      4  C   UNL     1       0.944  10.672  18.768  0.00  0.00    +0.000 C 
ATOM      5  C   UNL     1       1.243   9.401  18.475  0.00  0.00    +0.000 C 
BRANCH   4   6
ATOM      6  C   UNL     1      -0.318  11.030  19.504  0.00  0.00    +0.000 C 
BRANCH   6   7
ATOM      7  O   UNL     1      -0.226  10.552  20.839  0.00  0.00    +0.000 OA
ATOM      8  H   UNL     1       0.712  10.385  21.026  0.00  0.00    +0.000 HD
ENDBRANCH   6   7
BRANCH   6   9
ATOM      9  C   UNL     1      -1.541  10.443  18.801  0.00  0.00    +0.000 C 
BRANCH   9  10
ATOM     10  C   UNL     1      -1.919  11.247  17.554  0.00  0.00    +0.000 C 
BRANCH  10  11
ATOM     11  C   UNL     1      -2.305  10.316  16.407  0.00  0.00    +0.000 C 
BRANCH  11  13
ATOM     12  C   UNL     1      -4.604  11.304  16.632  0.00  0.00    +0.000 C 
ATOM     13  C   UNL     1      -3.532  10.837  15.663  0.00  0.00    +0.000 C 
ENDBRANCH  11  13
ENDBRANCH  10  11
ENDBRANCH   9  10
ENDBRANCH   6   9
ENDBRANCH   4   6
ENDBRANCH   2   5
ENDBRANCH   1   3
BRANCH   1  14
ATOM     14  C   UNL     1       2.729   6.052  19.646  0.00  0.00    +0.000 C 
BRANCH  14  15
ATOM     15  C   UNL     1       2.019   4.772  20.088  0.00  0.00    +0.000 C 
BRANCH  15  16
ATOM     16  C   UNL     1       2.777   3.536  19.627  0.00  0.00    +0.000 C 
BRANCH  16  17
ATOM     17  C   UNL     1       2.085   2.895  18.428  0.00  0.00    +0.000 C 
BRANCH  17  18
ATOM     18  C   UNL     1       2.831   3.231  17.142  0.00  0.00    +0.000 C 
BRANCH  18  19
ATOM     19  C   UNL     1       4.296   3.560  17.417  0.00  0.00    +0.000 C 
BRANCH  19  20
ATOM     20  C   UNL     1       4.852   4.454  16.312  0.00  0.00    +0.000 C 
BRANCH  20  21
ATOM     21  C   UNL     1       6.301   4.110  15.984  0.00  0.00    +0.000 C 
BRANCH  21  22
ATOM     22  C   UNL     1       7.259   4.855  16.884  0.00  0.00    +0.000 C 
ATOM     23  O   UNL     1       7.825   4.385  17.857  0.00  0.00    +0.000 OA
BRANCH  22  24
ATOM     24  O   UNL     1       7.437   6.137  16.491  0.00  0.00    +0.000 OA
ATOM     25  H   UNL     1       7.523   6.766  17.232  0.00  0.00    +0.000 HD
ENDBRANCH  22  24
ENDBRANCH  21  22
ENDBRANCH  20  21
ENDBRANCH  19  20
ENDBRANCH  18  19
ENDBRANCH  17  18
ENDBRANCH  16  17
ENDBRANCH  15  16
ENDBRANCH  14  15
ENDBRANCH   1  14
TORSDOF 18
ENDMDL
MODEL 4
REMARK VINA RESULT:      -5.5      2.571      7.594
REMARK  Name = 
REMARK  19 active torsions:
REMARK  status: ('A' for Active; 'I' for Inactive)
REMARK    1  A    between atoms: C_1  and  C_2
REMARK    2  A    between atoms: C_2  and  C_3
REMARK    3  A    between atoms: C_3  and  C_4
REMARK    4  A    between atoms: C_4  and  C_5
REMARK    5  A    between atoms: C_5  and  C_6
REMARK    6  A    between atoms: C_6  and  O_7
REMARK    7  A    between atoms: C_6  and  C_8
REMARK    8  A    between atoms: C_9  and  C_10
REMARK    9  A    between atoms: C_11  and  C_12
REMARK   10  A    between atoms: C_12  and  C_13
REMARK   11  A    between atoms: C_13  and  C_14
REMARK   12  A    between atoms: C_14  and  C_15
REMARK   13  A    between atoms: C_15  and  C_16
REMARK   14  A    between atoms: C_16  and  C_17
REMARK   15  A    between atoms: C_17  and  C_18
REMARK   16  A    between atoms: C_18  and  C_19
REMARK   17  A    between atoms: C_19  and  C_20
REMARK   18  A    between atoms: C_20  and  C_21
REMARK   19  A    between atoms: C_21  and  O_23
REMARK                            x       y       z     vdW  Elec       q    Type
REMARK                         _______ _______ _______ _____ _____    ______ ____
ROOT
ATOM      1  C   UNL     1       4.746   3.395  18.483  0.00  0.00    +0.000 C 
ENDROOT
BRANCH   1   3
ATOM      2  C   UNL     1       5.584   5.705  17.967  0.00  0.00    +0.000 C 
ATOM      3  C   UNL     1       5.084   4.815  18.839  0.00  0.00    +0.000 C 
BRANCH   2   5
ATOM      4  C   UNL     1       7.049   5.005  16.119  0.00  0.00    +0.000 C 
ATOM      5  C   UNL     1       5.856   5.393  16.584  0.00  0.00    +0.000 C 
BRANCH   4   6
ATOM      6  C   UNL     1       7.268   4.726  14.658  0.00  0.00    +0.000 C 
BRANCH   6   7
ATOM      7  O   UNL     1       8.182   5.682  14.136  0.00  0.00    +0.000 OA
ATOM      8  H   UNL     1       9.009   5.599  14.638  0.00  0.00    +0.000 HD
ENDBRANCH   6   7
BRANCH   6   9
ATOM      9  C   UNL     1       5.945   4.770  13.893  0.00  0.00    +0.000 C 
BRANCH   9  10
ATOM     10  C   UNL     1       5.514   3.377  13.427  0.00  0.00    +0.000 C 
BRANCH  10  11
ATOM     11  C   UNL     1       5.594   3.266  11.906  0.00  0.00    +0.000 C 
BRANCH  11  13
ATOM     12  C   UNL     1       6.378   1.022  11.092  0.00  0.00    +0.000 C 
ATOM     13  C   UNL     1       6.797   2.431  11.476  0.00  0.00    +0.000 C 
ENDBRANCH  11  13
ENDBRANCH  10  11
ENDBRANCH   9  10
ENDBRANCH   6   9
ENDBRANCH   4   6
ENDBRANCH   2   5
ENDBRANCH   1   3
BRANCH   1  14
ATOM     14  C   UNL     1       3.330   3.223  17.951  0.00  0.00    +0.000 C 
BRANCH  14  15
ATOM     15  C   UNL     1       2.706   1.969  18.563  0.00  0.00    +0.000 C 
BRANCH  15  16
ATOM     16  C   UNL     1       1.422   2.302  19.309  0.00  0.00    +0.000 C 
BRANCH  16  17
ATOM     17  C   UNL     1       1.123   3.796  19.228  0.00  0.00    +0.000 C 
BRANCH  17  18
ATOM     18  C   UNL     1       1.082   4.405  20.624  0.00  0.00    +0.000 C 
BRANCH  18  19
ATOM     19  C   UNL     1       2.166   5.464  20.804  0.00  0.00    +0.000 C 
BRANCH  19  20
ATOM     20  C   UNL     1       1.671   6.816  20.296  0.00  0.00    +0.000 C 
BRANCH  20  21
ATOM     21  C   UNL     1       2.463   7.286  19.080  0.00  0.00    +0.000 C 
BRANCH  21  22
ATOM     22  C   UNL     1       1.902   8.574  18.524  0.00  0.00    +0.000 C 
ATOM     23  O   UNL     1       2.038   8.968  17.378  0.00  0.00    +0.000 OA
BRANCH  22  24
ATOM     24  O   UNL     1       1.208   9.272  19.453  0.00  0.00    +0.000 OA
ATOM     25  H   UNL     1       1.102  10.217  19.235  0.00  0.00    +0.000 HD
ENDBRANCH  22  24
ENDBRANCH  21  22
ENDBRANCH  20  21
ENDBRANCH  19  20
ENDBRANCH  18  19
ENDBRANCH  17  18
ENDBRANCH  16  17
ENDBRANCH  15  16
ENDBRANCH  14  15
ENDBRANCH   1  14
TORSDOF 18
ENDMDL
MODEL 5
REMARK VINA RESULT:      -5.5      1.953      2.680
REMARK  Name = 
REMARK  19 active torsions:
REMARK  status: ('A' for Active; 'I' for Inactive)
REMARK    1  A    between atoms: C_1  and  C_2
REMARK    2  A    between atoms: C_2  and  C_3
REMARK    3  A    between atoms: C_3  and  C_4
REMARK    4  A    between atoms: C_4  and  C_5
REMARK    5  A    between atoms: C_5  and  C_6
REMARK    6  A    between atoms: C_6  and  O_7
REMARK    7  A    between atoms: C_6  and  C_8
REMARK    8  A    between atoms: C_9  and  C_10
REMARK    9  A    between atoms: C_11  and  C_12
REMARK   10  A    between atoms: C_12  and  C_13
REMARK   11  A    between atoms: C_13  and  C_14
REMARK   12  A    between atoms: C_14  and  C_15
REMARK   13  A    between atoms: C_15  and  C_16
REMARK   14  A    between atoms: C_16  and  C_17
REMARK   15  A    between atoms: C_17  and  C_18
REMARK   16  A    between atoms: C_18  and  C_19
REMARK   17  A    between atoms: C_19  and  C_20
REMARK   18  A    between atoms: C_20  and  C_21
REMARK   19  A    between atoms: C_21  and  O_23
REMARK                            x       y       z     vdW  Elec       q    Type
REMARK                         _______ _______ _______ _____ _____    ______ ____
ROOT
ATOM      1  C   UNL     1       0.825   3.307  19.777  0.00  0.00    +0.000 C 
ENDROOT
BRANCH   1   3
ATOM      2  C   UNL     1       2.138   5.160  20.848  0.00  0.00    +0.000 C 
ATOM      3  C   UNL     1       1.617   3.923  20.896  0.00  0.00    +0.000 C 
BRANCH   2   5
ATOM      4  C   UNL     1       2.194   7.360  19.748  0.00  0.00    +0.000 C 
ATOM      5  C   UNL     1       1.996   6.037  19.710  0.00  0.00    +0.000 C 
BRANCH   4   6
ATOM      6  C   UNL     1       1.995   8.216  18.528  0.00  0.00    +0.000 C 
BRANCH   6   7
ATOM      7  O   UNL     1       3.171   8.167  17.732  0.00  0.00    +0.000 OA
ATOM      8  H   UNL     1       3.697   8.957  17.938  0.00  0.00    +0.000 HD
ENDBRANCH   6   7
BRANCH   6   9
ATOM      9  C   UNL     1       1.669   9.656  18.924  0.00  0.00    +0.000 C 
BRANCH   9  10
ATOM     10  C   UNL     1       0.265   9.775  19.522  0.00  0.00    +0.000 C 
BRANCH  10  11
ATOM     11  C   UNL     1       0.334  10.228  20.979  0.00  0.00    +0.000 C 
BRANCH  11  13
ATOM     12  C   UNL     1      -0.135   9.590  23.363  0.00  0.00    +0.000 C 
ATOM     13  C   UNL     1      -0.321   9.207  21.905  0.00  0.00    +0.000 C 
ENDBRANCH  11  13
ENDBRANCH  10  11
ENDBRANCH   9  10
ENDBRANCH   6   9
ENDBRANCH   4   6
ENDBRANCH   2   5
ENDBRANCH   1   3
BRANCH   1  14
ATOM     14  C   UNL     1       1.455   3.508  18.405  0.00  0.00    +0.000 C 
BRANCH  14  15
ATOM     15  C   UNL     1       2.357   2.318  18.080  0.00  0.00    +0.000 C 
BRANCH  15  16
ATOM     16  C   UNL     1       3.760   2.777  17.711  0.00  0.00    +0.000 C 
BRANCH  16  17
ATOM     17  C   UNL     1       3.729   4.182  17.116  0.00  0.00    +0.000 C 
BRANCH  17  18
ATOM     18  C   UNL     1       4.820   5.045  17.739  0.00  0.00    +0.000 C 
BRANCH  18  19
ATOM     19  C   UNL     1       6.062   4.222  18.071  0.00  0.00    +0.000 C 
BRANCH  19  20
ATOM     20  C   UNL     1       7.228   4.645  17.182  0.00  0.00    +0.000 C 
BRANCH  20  21
ATOM     21  C   UNL     1       6.763   5.514  16.017  0.00  0.00    +0.000 C 
BRANCH  21  22
ATOM     22  C   UNL     1       7.051   4.852  14.690  0.00  0.00    +0.000 C 
ATOM     23  O   UNL     1       6.540   3.820  14.289  0.00  0.00    +0.000 OA
BRANCH  22  24
ATOM     24  O   UNL     1       7.961   5.541  13.963  0.00  0.00    +0.000 OA
ATOM     25  H   UNL     1       8.318   5.040  13.205  0.00  0.00    +0.000 HD
ENDBRANCH  22  24
ENDBRANCH  21  22
ENDBRANCH  20  21
ENDBRANCH  19  20
ENDBRANCH  18  19
ENDBRANCH  17  18
ENDBRANCH  16  17
ENDBRANCH  15  16
ENDBRANCH  14  15
ENDBRANCH   1  14
TORSDOF 18
ENDMDL
MODEL 6
REMARK VINA RESULT:      -5.4      1.934      2.744
REMARK  Name = 
REMARK  19 active torsions:
REMARK  status: ('A' for Active; 'I' for Inactive)
REMARK    1  A    between atoms: C_1  and  C_2
REMARK    2  A    between atoms: C_2  and  C_3
REMARK    3  A    between atoms: C_3  and  C_4
REMARK    4  A    between atoms: C_4  and  C_5
REMARK    5  A    between atoms: C_5  and  C_6
REMARK    6  A    between atoms: C_6  and  O_7
REMARK    7  A    between atoms: C_6  and  C_8
REMARK    8  A    between atoms: C_9  and  C_10
REMARK    9  A    between atoms: C_11  and  C_12
REMARK   10  A    between atoms: C_12  and  C_13
REMARK   11  A    between atoms: C_13  and  C_14
REMARK   12  A    between atoms: C_14  and  C_15
REMARK   13  A    between atoms: C_15  and  C_16
REMARK   14  A    between atoms: C_16  and  C_17
REMARK   15  A    between atoms: C_17  and  C_18
REMARK   16  A    between atoms: C_18  and  C_19
REMARK   17  A    between atoms: C_19  and  C_20
REMARK   18  A    between atoms: C_20  and  C_21
REMARK   19  A    between atoms: C_21  and  O_23
REMARK                            x       y       z     vdW  Elec       q    Type
REMARK                         _______ _______ _______ _____ _____    ______ ____
ROOT
ATOM      1  C   UNL     1       0.561   2.910  20.105  0.00  0.00    +0.000 C 
ENDROOT
BRANCH   1   3
ATOM      2  C   UNL     1       2.430   4.312  21.022  0.00  0.00    +0.000 C 
ATOM      3  C   UNL     1       1.875   3.109  20.805  0.00  0.00    +0.000 C 
BRANCH   2   5
ATOM      4  C   UNL     1       2.412   6.445  19.795  0.00  0.00    +0.000 C 
ATOM      5  C   UNL     1       1.824   5.553  20.600  0.00  0.00    +0.000 C 
BRANCH   4   6
ATOM      6  C   UNL     1       1.731   7.733  19.424  0.00  0.00    +0.000 C 
BRANCH   6   7
ATOM      7  O   UNL     1       2.530   8.421  18.471  0.00  0.00    +0.000 OA
ATOM      8  H   UNL     1       3.338   7.899  18.337  0.00  0.00    +0.000 HD
ENDBRANCH   6   7
BRANCH   6   9
ATOM      9  C   UNL     1       1.499   8.600  20.661  0.00  0.00    +0.000 C 
BRANCH   9  10
ATOM     10  C   UNL     1       0.090   9.198  20.677  0.00  0.00    +0.000 C 
BRANCH  10  11
ATOM     11  C   UNL     1      -0.012  10.370  19.704  0.00  0.00    +0.000 C 
BRANCH  11  13
ATOM     12  C   UNL     1      -1.228  10.023  17.532  0.00  0.00    +0.000 C 
ATOM     13  C   UNL     1      -1.367  10.389  19.000  0.00  0.00    +0.000 C 
ENDBRANCH  11  13
ENDBRANCH  10  11
ENDBRANCH   9  10
ENDBRANCH   6   9
ENDBRANCH   4   6
ENDBRANCH   2   5
ENDBRANCH   1   3
BRANCH   1  14
ATOM     14  C   UNL     1       0.706   2.567  18.628  0.00  0.00    +0.000 C 
BRANCH  14  15
ATOM     15  C   UNL     1       2.160   2.200  18.331  0.00  0.00    +0.000 C 
BRANCH  15  16
ATOM     16  C   UNL     1       2.809   3.227  17.415  0.00  0.00    +0.000 C 
BRANCH  16  17
ATOM     17  C   UNL     1       4.204   3.591  17.915  0.00  0.00    +0.000 C 
BRANCH  17  18
ATOM     18  C   UNL     1       4.636   4.938  17.347  0.00  0.00    +0.000 C 
BRANCH  18  19
ATOM     19  C   UNL     1       6.037   4.868  16.747  0.00  0.00    +0.000 C 
BRANCH  19  20
ATOM     20  C   UNL     1       6.080   3.833  15.626  0.00  0.00    +0.000 C 
BRANCH  20  21
ATOM     21  C   UNL     1       5.672   4.436  14.286  0.00  0.00    +0.000 C 
BRANCH  21  22
ATOM     22  C   UNL     1       6.854   4.547  13.352  0.00  0.00    +0.000 C 
ATOM     23  O   UNL     1       7.002   3.913  12.320  0.00  0.00    +0.000 OA
BRANCH  22  24
ATOM     24  O   UNL     1       7.764   5.451  13.784  0.00  0.00    +0.000 OA
ATOM     25  H   UNL     1       7.383   6.328  13.978  0.00  0.00    +0.000 HD
ENDBRANCH  22  24
ENDBRANCH  21  22
ENDBRANCH  20  21
ENDBRANCH  19  20
ENDBRANCH  18  19
ENDBRANCH  17  18
ENDBRANCH  16  17
ENDBRANCH  15  16
ENDBRANCH  14  15
ENDBRANCH   1  14
TORSDOF 18
ENDMDL
MODEL 7
REMARK VINA RESULT:      -5.4      2.006      7.494
REMARK  Name = 
REMARK  19 active torsions:
REMARK  status: ('A' for Active; 'I' for Inactive)
REMARK    1  A    between atoms: C_1  and  C_2
REMARK    2  A    between atoms: C_2  and  C_3
REMARK    3  A    between atoms: C_3  and  C_4
REMARK    4  A    between atoms: C_4  and  C_5
REMARK    5  A    between atoms: C_5  and  C_6
REMARK    6  A    between atoms: C_6  and  O_7
REMARK    7  A    between atoms: C_6  and  C_8
REMARK    8  A    between atoms: C_9  and  C_10
REMARK    9  A    between atoms: C_11  and  C_12
REMARK   10  A    between atoms: C_12  and  C_13
REMARK   11  A    between atoms: C_13  and  C_14
REMARK   12  A    between atoms: C_14  and  C_15
REMARK   13  A    between atoms: C_15  and  C_16
REMARK   14  A    between atoms: C_16  and  C_17
REMARK   15  A    between atoms: C_17  and  C_18
REMARK   16  A    between atoms: C_18  and  C_19
REMARK   17  A    between atoms: C_19  and  C_20
REMARK   18  A    between atoms: C_20  and  C_21
REMARK   19  A    between atoms: C_21  and  O_23
REMARK                            x       y       z     vdW  Elec       q    Type
REMARK                         _______ _______ _______ _____ _____    ______ ____
ROOT
ATOM      1  C   UNL     1       1.955   4.024  20.839  0.00  0.00    +0.000 C 
ENDROOT
BRANCH   1   3
ATOM      2  C   UNL     1       1.451   2.480  18.925  0.00  0.00    +0.000 C 
ATOM      3  C   UNL     1       1.063   3.114  20.044  0.00  0.00    +0.000 C 
BRANCH   2   5
ATOM      4  C   UNL     1       3.141   3.573  17.511  0.00  0.00    +0.000 C 
ATOM      5  C   UNL     1       2.773   2.607  18.360  0.00  0.00    +0.000 C 
BRANCH   4   6
ATOM      6  C   UNL     1       4.529   3.624  16.936  0.00  0.00    +0.000 C 
BRANCH   6   7
ATOM      7  O   UNL     1       5.473   3.509  17.993  0.00  0.00    +0.000 OA
ATOM      8  H   UNL     1       6.041   4.296  17.964  0.00  0.00    +0.000 HD
ENDBRANCH   6   7
BRANCH   6   9
ATOM      9  C   UNL     1       4.747   4.920  16.156  0.00  0.00    +0.000 C 
BRANCH   9  10
ATOM     10  C   UNL     1       5.089   6.089  17.083  0.00  0.00    +0.000 C 
BRANCH  10  11
ATOM     11  C   UNL     1       6.384   6.768  16.643  0.00  0.00    +0.000 C 
BRANCH  11  13
ATOM     12  C   UNL     1       8.022   8.229  17.865  0.00  0.00    +0.000 C 
ATOM     13  C   UNL     1       7.382   6.853  17.795  0.00  0.00    +0.000 C 
ENDBRANCH  11  13
ENDBRANCH  10  11
ENDBRANCH   9  10
ENDBRANCH   6   9
ENDBRANCH   4   6
ENDBRANCH   2   5
ENDBRANCH   1   3
BRANCH   1  14
ATOM     14  C   UNL     1       1.552   5.491  20.760  0.00  0.00    +0.000 C 
BRANCH  14  15
ATOM     15  C   UNL     1       2.288   6.158  19.598  0.00  0.00    +0.000 C 
BRANCH  15  16
ATOM     16  C   UNL     1       2.291   7.673  19.747  0.00  0.00    +0.000 C 
BRANCH  16  17
ATOM     17  C   UNL     1       1.318   8.109  20.839  0.00  0.00    +0.000 C 
BRANCH  17  18
ATOM     18  C   UNL     1       0.371   9.180  20.308  0.00  0.00    +0.000 C 
BRANCH  18  19
ATOM     19  C   UNL     1       1.115  10.216  19.470  0.00  0.00    +0.000 C 
BRANCH  19  20
ATOM     20  C   UNL     1       0.155  11.310  19.012  0.00  0.00    +0.000 C 
BRANCH  20  21
ATOM     21  C   UNL     1      -1.237  10.757  18.728  0.00  0.00    +0.000 C 
BRANCH  21  22
ATOM     22  C   UNL     1      -1.994  11.641  17.765  0.00  0.00    +0.000 C 
ATOM     23  O   UNL     1      -3.147  11.472  17.406  0.00  0.00    +0.000 OA
BRANCH  22  24
ATOM     24  O   UNL     1      -1.242  12.676  17.323  0.00  0.00    +0.000 OA
ATOM     25  H   UNL     1      -1.014  13.320  18.020  0.00  0.00    +0.000 HD
ENDBRANCH  22  24
ENDBRANCH  21  22
ENDBRANCH  20  21
ENDBRANCH  19  20
ENDBRANCH  18  19
ENDBRANCH  17  18
ENDBRANCH  16  17
ENDBRANCH  15  16
ENDBRANCH  14  15
ENDBRANCH   1  14
TORSDOF 18
ENDMDL
MODEL 8
REMARK VINA RESULT:      -5.4      4.348      7.841
REMARK  Name = 
REMARK  19 active torsions:
REMARK  status: ('A' for Active; 'I' for Inactive)
REMARK    1  A    between atoms: C_1  and  C_2
REMARK    2  A    between atoms: C_2  and  C_3
REMARK    3  A    between atoms: C_3  and  C_4
REMARK    4  A    between atoms: C_4  and  C_5
REMARK    5  A    between atoms: C_5  and  C_6
REMARK    6  A    between atoms: C_6  and  O_7
REMARK    7  A    between atoms: C_6  and  C_8
REMARK    8  A    between atoms: C_9  and  C_10
REMARK    9  A    between atoms: C_11  and  C_12
REMARK   10  A    between atoms: C_12  and  C_13
REMARK   11  A    between atoms: C_13  and  C_14
REMARK   12  A    between atoms: C_14  and  C_15
REMARK   13  A    between atoms: C_15  and  C_16
REMARK   14  A    between atoms: C_16  and  C_17
REMARK   15  A    between atoms: C_17  and  C_18
REMARK   16  A    between atoms: C_18  and  C_19
REMARK   17  A    between atoms: C_19  and  C_20
REMARK   18  A    between atoms: C_20  and  C_21
REMARK   19  A    between atoms: C_21  and  O_23
REMARK                            x       y       z     vdW  Elec       q    Type
REMARK                         _______ _______ _______ _____ _____    ______ ____
ROOT
ATOM      1  C   UNL     1       7.401   5.342  16.749  0.00  0.00    +0.000 C 
ENDROOT
BRANCH   1   3
ATOM      2  C   UNL     1       5.064   4.811  15.999  0.00  0.00    +0.000 C 
ATOM      3  C   UNL     1       6.208   5.499  15.849  0.00  0.00    +0.000 C 
BRANCH   2   5
ATOM      4  C   UNL     1       3.903   3.930  17.981  0.00  0.00    +0.000 C 
ATOM      5  C   UNL     1       4.855   3.839  17.046  0.00  0.00    +0.000 C 
BRANCH   4   6
ATOM      6  C   UNL     1       3.765   2.894  19.062  0.00  0.00    +0.000 C 
BRANCH   6   7
ATOM      7  O   UNL     1       5.043   2.334  19.332  0.00  0.00    +0.000 OA
ATOM      8  H   UNL     1       5.119   2.231  20.295  0.00  0.00    +0.000 HD
ENDBRANCH   6   7
BRANCH   6   9
ATOM      9  C   UNL     1       2.774   1.807  18.648  0.00  0.00    +0.000 C 
BRANCH   9  10
ATOM     10  C   UNL     1       1.358   2.115  19.139  0.00  0.00    +0.000 C 
BRANCH  10  11
ATOM     11  C   UNL     1       1.395   2.809  20.498  0.00  0.00    +0.000 C 
BRANCH  11  13
ATOM     12  C   UNL     1       1.834   5.278  20.644  0.00  0.00    +0.000 C 
ATOM     13  C   UNL     1       0.782   4.205  20.422  0.00  0.00    +0.000 C 
ENDBRANCH  11  13
ENDBRANCH  10  11
ENDBRANCH   9  10
ENDBRANCH   6   9
ENDBRANCH   4   6
ENDBRANCH   2   5
ENDBRANCH   1   3
BRANCH   1  14
ATOM     14  C   UNL     1       7.315   6.173  18.022  0.00  0.00    +0.000 C 
BRANCH  14  15
ATOM     15  C   UNL     1       7.005   7.626  17.661  0.00  0.00    +0.000 C 
BRANCH  15  16
ATOM     16  C   UNL     1       8.284   8.417  17.425  0.00  0.00    +0.000 C 
BRANCH  16  17
ATOM     17  C   UNL     1       8.641   9.245  18.656  0.00  0.00    +0.000 C 
BRANCH  17  18
ATOM     18  C   UNL     1       8.944  10.684  18.256  0.00  0.00    +0.000 C 
BRANCH  18  19
ATOM     19  C   UNL     1       9.487  11.489  19.434  0.00  0.00    +0.000 C 
BRANCH  19  20
ATOM     20  C   UNL     1      11.004  11.342  19.519  0.00  0.00    +0.000 C 
BRANCH  20  21
ATOM     21  C   UNL     1      11.673  12.642  19.950  0.00  0.00    +0.000 C 
BRANCH  21  22
ATOM     22  C   UNL     1      11.582  13.692  18.867  0.00  0.00    +0.000 C 
ATOM     23  O   UNL     1      12.023  13.580  17.735  0.00  0.00    +0.000 OA
BRANCH  22  24
ATOM     24  O   UNL     1      10.941  14.806  19.288  0.00  0.00    +0.000 OA
ATOM     25  H   UNL     1      11.374  15.636  19.013  0.00  0.00    +0.000 HD
ENDBRANCH  22  24
ENDBRANCH  21  22
ENDBRANCH  20  21
ENDBRANCH  19  20
ENDBRANCH  18  19
ENDBRANCH  17  18
ENDBRANCH  16  17
ENDBRANCH  15  16
ENDBRANCH  14  15
ENDBRANCH   1  14
TORSDOF 18
ENDMDL
MODEL 9
REMARK VINA RESULT:      -5.4      2.738      4.081
REMARK  Name = 
REMARK  19 active torsions:
REMARK  status: ('A' for Active; 'I' for Inactive)
REMARK    1  A    between atoms: C_1  and  C_2
REMARK    2  A    between atoms: C_2  and  C_3
REMARK    3  A    between atoms: C_3  and  C_4
REMARK    4  A    between atoms: C_4  and  C_5
REMARK    5  A    between atoms: C_5  and  C_6
REMARK    6  A    between atoms: C_6  and  O_7
REMARK    7  A    between atoms: C_6  and  C_8
REMARK    8  A    between atoms: C_9  and  C_10
REMARK    9  A    between atoms: C_11  and  C_12
REMARK   10  A    between atoms: C_12  and  C_13
REMARK   11  A    between atoms: C_13  and  C_14
REMARK   12  A    between atoms: C_14  and  C_15
REMARK   13  A    between atoms: C_15  and  C_16
REMARK   14  A    between atoms: C_16  and  C_17
REMARK   15  A    between atoms: C_17  and  C_18
REMARK   16  A    between atoms: C_18  and  C_19
REMARK   17  A    between atoms: C_19  and  C_20
REMARK   18  A    between atoms: C_20  and  C_21
REMARK   19  A    between atoms: C_21  and  O_23
REMARK                            x       y       z     vdW  Elec       q    Type
REMARK                         _______ _______ _______ _____ _____    ______ ____
ROOT
ATOM      1  C   UNL     1       3.894   3.119  19.085  0.00  0.00    +0.000 C 
ENDROOT
BRANCH   1   3
ATOM      2  C   UNL     1       1.852   4.176  18.076  0.00  0.00    +0.000 C 
ATOM      3  C   UNL     1       2.643   3.105  18.252  0.00  0.00    +0.000 C 
BRANCH   2   5
ATOM      4  C   UNL     1       2.159   6.616  17.991  0.00  0.00    +0.000 C 
ATOM      5  C   UNL     1       2.118   5.464  18.671  0.00  0.00    +0.000 C 
BRANCH   4   6
ATOM      6  C   UNL     1       2.474   7.918  18.674  0.00  0.00    +0.000 C 
BRANCH   6   7
ATOM      7  O   UNL     1       1.839   7.940  19.945  0.00  0.00    +0.000 OA
ATOM      8  H   UNL     1       0.908   7.699  19.810  0.00  0.00    +0.000 HD
ENDBRANCH   6   7
BRANCH   6   9
ATOM      9  C   UNL     1       2.019   9.102  17.821  0.00  0.00    +0.000 C 
BRANCH   9  10
ATOM     10  C   UNL     1       1.024   9.991  18.571  0.00  0.00    +0.000 C 
BRANCH  10  11
ATOM     11  C   UNL     1      -0.391   9.796  18.030  0.00  0.00    +0.000 C 
BRANCH  11  13
ATOM     12  C   UNL     1      -1.297  11.152  19.941  0.00  0.00    +0.000 C 
ATOM     13  C   UNL     1      -1.301  10.952  18.436  0.00  0.00    +0.000 C 
ENDBRANCH  11  13
ENDBRANCH  10  11
ENDBRANCH   9  10
ENDBRANCH   6   9
ENDBRANCH   4   6
ENDBRANCH   2   5
ENDBRANCH   1   3
BRANCH   1  14
ATOM     14  C   UNL     1       5.133   3.551  18.311  0.00  0.00    +0.000 C 
BRANCH  14  15
ATOM     15  C   UNL     1       5.721   4.807  18.954  0.00  0.00    +0.000 C 
BRANCH  15  16
ATOM     16  C   UNL     1       6.564   5.590  17.958  0.00  0.00    +0.000 C 
BRANCH  16  17
ATOM     17  C   UNL     1       5.732   6.677  17.284  0.00  0.00    +0.000 C 
BRANCH  17  18
ATOM     18  C   UNL     1       5.197   6.182  15.946  0.00  0.00    +0.000 C 
BRANCH  18  19
ATOM     19  C   UNL     1       6.171   5.214  15.279  0.00  0.00    +0.000 C 
BRANCH  19  20
ATOM     20  C   UNL     1       5.429   4.315  14.293  0.00  0.00    +0.000 C 
BRANCH  20  21
ATOM     21  C   UNL     1       6.370   3.730  13.245  0.00  0.00    +0.000 C 
BRANCH  21  22
ATOM     22  C   UNL     1       5.602   3.051  12.135  0.00  0.00    +0.000 C 
ATOM     23  O   UNL     1       4.512   3.400  11.714  0.00  0.00    +0.000 OA
BRANCH  22  24
ATOM     24  O   UNL     1       6.264   1.982  11.636  0.00  0.00    +0.000 OA
ATOM     25  H   UNL     1       5.911   1.125  11.941  0.00  0.00    +0.000 HD
ENDBRANCH  22  24
ENDBRANCH  21  22
ENDBRANCH  20  21
ENDBRANCH  19  20
ENDBRANCH  18  19
ENDBRANCH  17  18
ENDBRANCH  16  17
ENDBRANCH  15  16
ENDBRANCH  14  15
ENDBRANCH   1  14
TORSDOF 18
ENDMDL
