MODEL 1
REMARK VINA RESULT:      -8.4      0.000      0.000
REMARK  Name = 
REMARK  7 active torsions:
REMARK  status: ('A' for Active; 'I' for Inactive)
REMARK    1  A    between atoms: C_1  and  O_2
REMARK    2  A    between atoms: O_2  and  C_3
REMARK    3  A    between atoms: C_3  and  C_5
REMARK    4  A    between atoms: C_8  and  C_9
REMARK    5  A    between atoms: C_14  and  C_15
REMARK    6  A    between atoms: C_15  and  N_16
REMARK    7  A    between atoms: N_19  and  C_20
REMARK                            x       y       z     vdW  Elec       q    Type
REMARK                         _______ _______ _______ _____ _____    ______ ____
ROOT
ATOM      1  C   UNL     1       1.460  12.750  20.161  0.00  0.00    +0.000 C 
ATOM      2  O   UNL     1       1.378  12.645  21.385  0.00  0.00    +0.000 OA
ATOM      3  N   UNL     1       2.453  13.511  19.541  0.00  0.00    +0.000 N 
ATOM      4  C   UNL     1       3.583  13.966  20.353  0.00  0.00    +0.000 C 
ATOM      5  C   UNL     1       3.725  15.483  20.303  0.00  0.00    +0.000 C 
ATOM      6  C   UNL     1       3.819  16.004  18.862  0.00  0.00    +0.000 C 
ATOM      7  C   UNL     1       2.605  15.492  18.067  0.00  0.00    +0.000 C 
ATOM      8  C   UNL     1       2.438  13.976  18.154  0.00  0.00    +0.000 C 
ENDROOT
BRANCH   1  12
ATOM      9  C   UNL     1      -1.542  10.588  17.967  0.00  0.00    +0.000 A 
ATOM     10  C   UNL     1      -1.800  11.872  18.465  0.00  0.00    +0.000 A 
ATOM     11  C   UNL     1      -0.803  12.575  19.150  0.00  0.00    +0.000 A 
ATOM     12  C   UNL     1       0.458  11.999  19.353  0.00  0.00    +0.000 A 
ATOM     13  C   UNL     1       0.696  10.698  18.894  0.00  0.00    +0.000 A 
ATOM     14  C   UNL     1      -0.285  10.009  18.175  0.00  0.00    +0.000 A 
BRANCH   9  15
ATOM     15  C   UNL     1      -2.634   9.868  17.259  0.00  0.00    +0.000 C 
ATOM     16  O   UNL     1      -3.603   9.383  17.823  0.00  0.00    +0.000 OA
BRANCH  15  18
ATOM     17  C   UNL     1      -3.406  10.417  15.121  0.00  0.00    +0.000 C 
ATOM     18  O   UNL     1      -2.385   9.828  15.927  0.00  0.00    +0.000 OA
ENDBRANCH  15  18
ENDBRANCH   9  15
ENDBRANCH   1  12
BRANCH   6  19
ATOM     19  C   UNL     1       5.122  15.610  18.154  0.00  0.00    +0.000 C 
BRANCH  19  20
ATOM     20  N   UNL     1       6.244  15.393  19.048  0.00  0.00    +0.000 N 
ATOM     21  C   UNL     1       7.238  14.556  18.594  0.00  0.00    +0.000 C 
ATOM     22  O   UNL     1       7.159  13.945  17.539  0.00  0.00    +0.000 OA
ATOM     23  N   UNL     1       8.309  14.507  19.456  0.00  0.00    +0.000 N 
ATOM     24  H   UNL     1       6.585  16.186  19.572  0.00  0.00    +0.000 HD
ATOM     25  H   UNL     1       8.060  14.632  20.425  0.00  0.00    +0.000 HD
BRANCH  23  26
ATOM     26  C   UNL     1       9.501  13.688  19.171  0.00  0.00    +0.000 C 
ATOM     27  C   UNL     1       9.918  13.816  17.681  0.00  0.00    +0.000 C 
ATOM     28  C   UNL     1      11.171  12.976  17.388  0.00  0.00    +0.000 C 
ATOM     29  C   UNL     1      12.333  13.478  18.255  0.00  0.00    +0.000 C 
ATOM     30  C   UNL     1      11.964  13.360  19.743  0.00  0.00    +0.000 C 
ATOM     31  C   UNL     1      11.689  11.883  20.073  0.00  0.00    +0.000 C 
ATOM     32  C   UNL     1      10.526  11.363  19.217  0.00  0.00    +0.000 C 
ATOM     33  C   UNL     1      10.881  11.505  17.727  0.00  0.00    +0.000 C 
ATOM     34  C   UNL     1       9.269  12.195  19.518  0.00  0.00    +0.000 C 
ATOM     35  C   UNL     1      10.696  14.192  20.026  0.00  0.00    +0.000 C 
ENDBRANCH  23  26
ENDBRANCH  19  20
ENDBRANCH   6  19
TORSDOF 6
ENDMDL
MODEL 2
REMARK VINA RESULT:      -8.4      6.340      8.778
REMARK  Name = 
REMARK  7 active torsions:
REMARK  status: ('A' for Active; 'I' for Inactive)
REMARK    1  A    between atoms: C_1  and  O_2
REMARK    2  A    between atoms: O_2  and  C_3
REMARK    3  A    between atoms: C_3  and  C_5
REMARK    4  A    between atoms: C_8  and  C_9
REMARK    5  A    between atoms: C_14  and  C_15
REMARK    6  A    between atoms: C_15  and  N_16
REMARK    7  A    between atoms: N_19  and  C_20
REMARK                            x       y       z     vdW  Elec       q    Type
REMARK                         _______ _______ _______ _____ _____    ______ ____
ROOT
ATOM      1  C   UNL     1      -1.157  13.149  20.622  0.00  0.00    +0.000 C 
ATOM      2  O   UNL     1      -0.735  14.300  20.733  0.00  0.00    +0.000 OA
ATOM      3  N   UNL     1      -0.340  12.087  20.232  0.00  0.00    +0.000 N 
ATOM      4  C   UNL     1       1.109  12.297  20.224  0.00  0.00    +0.000 C 
ATOM      5  C   UNL     1       1.702  12.010  18.850  0.00  0.00    +0.000 C 
ATOM      6  C   UNL     1       1.332  10.607  18.346  0.00  0.00    +0.000 C 
ATOM      7  C   UNL     1      -0.199  10.454  18.378  0.00  0.00    +0.000 C 
ATOM      8  C   UNL     1      -0.797  10.785  19.744  0.00  0.00    +0.000 C 
ENDROOT
BRANCH   1  12
ATOM      9  C   UNL     1      -5.344  12.634  21.463  0.00  0.00    +0.000 A 
ATOM     10  C   UNL     1      -4.849  12.489  20.161  0.00  0.00    +0.000 A 
ATOM     11  C   UNL     1      -3.480  12.629  19.908  0.00  0.00    +0.000 A 
ATOM     12  C   UNL     1      -2.593  12.925  20.952  0.00  0.00    +0.000 A 
ATOM     13  C   UNL     1      -3.100  13.115  22.243  0.00  0.00    +0.000 A 
ATOM     14  C   UNL     1      -4.460  12.937  22.505  0.00  0.00    +0.000 A 
BRANCH   9  15
ATOM     15  C   UNL     1      -6.808  12.494  21.686  0.00  0.00    +0.000 C 
ATOM     16  O   UNL     1      -7.595  13.426  21.626  0.00  0.00    +0.000 OA
BRANCH  15  18
ATOM     17  C   UNL     1      -7.913  10.560  20.973  0.00  0.00    +0.000 C 
ATOM     18  O   UNL     1      -7.119  11.205  21.970  0.00  0.00    +0.000 OA
ENDBRANCH  15  18
ENDBRANCH   9  15
ENDBRANCH   1  12
BRANCH   6  19
ATOM     19  C   UNL     1       1.996   9.477  19.143  0.00  0.00    +0.000 C 
BRANCH  19  20
ATOM     20  N   UNL     1       2.282   8.286  18.364  0.00  0.00    +0.000 N 
ATOM     21  C   UNL     1       2.248   7.087  19.041  0.00  0.00    +0.000 C 
ATOM     22  O   UNL     1       2.079   7.012  20.249  0.00  0.00    +0.000 OA
ATOM     23  N   UNL     1       2.413   6.013  18.199  0.00  0.00    +0.000 N 
ATOM     24  H   UNL     1       1.907   8.238  17.429  0.00  0.00    +0.000 HD
ATOM     25  H   UNL     1       2.996   6.206  17.399  0.00  0.00    +0.000 HD
BRANCH  23  26
ATOM     26  C   UNL     1       2.396   4.625  18.696  0.00  0.00    +0.000 C 
ATOM     27  C   UNL     1       2.325   3.615  17.518  0.00  0.00    +0.000 C 
ATOM     28  C   UNL     1       2.325   2.169  18.035  0.00  0.00    +0.000 C 
ATOM     29  C   UNL     1       3.621   1.906  18.813  0.00  0.00    +0.000 C 
ATOM     30  C   UNL     1       3.726   2.881  19.996  0.00  0.00    +0.000 C 
ATOM     31  C   UNL     1       2.525   2.663  20.931  0.00  0.00    +0.000 C 
ATOM     32  C   UNL     1       1.216   2.924  20.171  0.00  0.00    +0.000 C 
ATOM     33  C   UNL     1       1.120   1.969  18.969  0.00  0.00    +0.000 C 
ATOM     34  C   UNL     1       1.211   4.376  19.664  0.00  0.00    +0.000 C 
ATOM     35  C   UNL     1       3.710   4.332  19.472  0.00  0.00    +0.000 C 
ENDBRANCH  23  26
ENDBRANCH  19  20
ENDBRANCH   6  19
TORSDOF 6
ENDMDL
MODEL 3
REMARK VINA RESULT:      -8.4      6.496      9.096
REMARK  Name = 
REMARK  7 active torsions:
REMARK  status: ('A' for Active; 'I' for Inactive)
REMARK    1  A    between atoms: C_1  and  O_2
REMARK    2  A    between atoms: O_2  and  C_3
REMARK    3  A    between atoms: C_3  and  C_5
REMARK    4  A    between atoms: C_8  and  C_9
REMARK    5  A    between atoms: C_14  and  C_15
REMARK    6  A    between atoms: C_15  and  N_16
REMARK    7  A    between atoms: N_19  and  C_20
REMARK                            x       y       z     vdW  Elec       q    Type
REMARK                         _______ _______ _______ _____ _____    ______ ____
ROOT
ATOM      1  C   UNL     1      -0.914  13.545  20.914  0.00  0.00    +0.000 C 
ATOM      2  O   UNL     1      -0.469  14.678  20.726  0.00  0.00    +0.000 OA
ATOM      3  N   UNL     1      -0.233  12.397  20.503  0.00  0.00    +0.000 N 
ATOM      4  C   UNL     1       1.163  12.533  20.087  0.00  0.00    +0.000 C 
ATOM      5  C   UNL     1       1.374  12.010  18.671  0.00  0.00    +0.000 C 
ATOM      6  C   UNL     1       0.876  10.566  18.512  0.00  0.00    +0.000 C 
ATOM      7  C   UNL     1      -0.595  10.495  18.962  0.00  0.00    +0.000 C 
ATOM      8  C   UNL     1      -0.811  11.060  20.365  0.00  0.00    +0.000 C 
ENDROOT
BRANCH   1  12
ATOM      9  C   UNL     1      -4.611  13.102  23.066  0.00  0.00    +0.000 A 
ATOM     10  C   UNL     1      -3.387  13.167  23.745  0.00  0.00    +0.000 A 
ATOM     11  C   UNL     1      -2.196  13.342  23.032  0.00  0.00    +0.000 A 
ATOM     12  C   UNL     1      -2.214  13.444  21.635  0.00  0.00    +0.000 A 
ATOM     13  C   UNL     1      -3.435  13.333  20.959  0.00  0.00    +0.000 A 
ATOM     14  C   UNL     1      -4.630  13.198  21.670  0.00  0.00    +0.000 A 
BRANCH   9  15
ATOM     15  C   UNL     1      -5.854  12.899  23.859  0.00  0.00    +0.000 C 
ATOM     16  O   UNL     1      -6.240  11.806  24.243  0.00  0.00    +0.000 OA
BRANCH  15  18
ATOM     17  C   UNL     1      -7.785  14.169  23.508  0.00  0.00    +0.000 C 
ATOM     18  O   UNL     1      -6.475  14.085  24.072  0.00  0.00    +0.000 OA
ENDBRANCH  15  18
ENDBRANCH   9  15
ENDBRANCH   1  12
BRANCH   6  19
ATOM     19  C   UNL     1       1.718   9.541  19.282  0.00  0.00    +0.000 C 
BRANCH  19  20
ATOM     20  N   UNL     1       2.108   8.382  18.501  0.00  0.00    +0.000 N 
ATOM     21  C   UNL     1       2.112   7.172  19.157  0.00  0.00    +0.000 C 
ATOM     22  O   UNL     1       1.891   7.067  20.355  0.00  0.00    +0.000 OA
ATOM     23  N   UNL     1       2.378   6.123  18.309  0.00  0.00    +0.000 N 
ATOM     24  H   UNL     1       1.781   8.329  17.548  0.00  0.00    +0.000 HD
ATOM     25  H   UNL     1       2.985   6.363  17.540  0.00  0.00    +0.000 HD
BRANCH  23  26
ATOM     26  C   UNL     1       2.417   4.729  18.784  0.00  0.00    +0.000 C 
ATOM     27  C   UNL     1       1.274   4.455  19.798  0.00  0.00    +0.000 C 
ATOM     28  C   UNL     1       1.305   2.997  20.280  0.00  0.00    +0.000 C 
ATOM     29  C   UNL     1       1.113   2.061  19.079  0.00  0.00    +0.000 C 
ATOM     30  C   UNL     1       2.232   2.293  18.051  0.00  0.00    +0.000 C 
ATOM     31  C   UNL     1       3.587   1.992  18.714  0.00  0.00    +0.000 C 
ATOM     32  C   UNL     1       3.800   2.922  19.917  0.00  0.00    +0.000 C 
ATOM     33  C   UNL     1       2.666   2.712  20.935  0.00  0.00    +0.000 C 
ATOM     34  C   UNL     1       3.781   4.381  19.434  0.00  0.00    +0.000 C 
ATOM     35  C   UNL     1       2.206   3.763  17.585  0.00  0.00    +0.000 C 
ENDBRANCH  23  26
ENDBRANCH  19  20
ENDBRANCH   6  19
TORSDOF 6
ENDMDL
MODEL 4
REMARK VINA RESULT:      -8.3      6.457      9.020
REMARK  Name = 
REMARK  7 active torsions:
REMARK  status: ('A' for Active; 'I' for Inactive)
REMARK    1  A    between atoms: C_1  and  O_2
REMARK    2  A    between atoms: O_2  and  C_3
REMARK    3  A    between atoms: C_3  and  C_5
REMARK    4  A    between atoms: C_8  and  C_9
REMARK    5  A    between atoms: C_14  and  C_15
REMARK    6  A    between atoms: C_15  and  N_16
REMARK    7  A    between atoms: N_19  and  C_20
REMARK                            x       y       z     vdW  Elec       q    Type
REMARK                         _______ _______ _______ _____ _____    ______ ____
ROOT
ATOM      1  C   UNL     1      -1.028  13.324  20.908  0.00  0.00    +0.000 C 
ATOM      2  O   UNL     1      -0.539  14.454  20.902  0.00  0.00    +0.000 OA
ATOM      3  N   UNL     1      -0.316  12.199  20.487  0.00  0.00    +0.000 N 
ATOM      4  C   UNL     1       1.129  12.327  20.298  0.00  0.00    +0.000 C 
ATOM      5  C   UNL     1       1.539  11.937  18.882  0.00  0.00    +0.000 C 
ATOM      6  C   UNL     1       1.042  10.533  18.506  0.00  0.00    +0.000 C 
ATOM      7  C   UNL     1      -0.480  10.469  18.726  0.00  0.00    +0.000 C 
ATOM      8  C   UNL     1      -0.893  10.902  20.132  0.00  0.00    +0.000 C 
ENDROOT
BRANCH   1  12
ATOM      9  C   UNL     1      -5.014  12.801  22.436  0.00  0.00    +0.000 A 
ATOM     10  C   UNL     1      -3.904  12.749  23.289  0.00  0.00    +0.000 A 
ATOM     11  C   UNL     1      -2.616  12.952  22.782  0.00  0.00    +0.000 A 
ATOM     12  C   UNL     1      -2.424  13.199  21.416  0.00  0.00    +0.000 A 
ATOM     13  C   UNL     1      -3.532  13.204  20.561  0.00  0.00    +0.000 A 
ATOM     14  C   UNL     1      -4.822  13.041  21.071  0.00  0.00    +0.000 A 
BRANCH   9  15
ATOM     15  C   UNL     1      -6.365  12.564  23.012  0.00  0.00    +0.000 C 
ATOM     16  O   UNL     1      -7.194  11.819  22.512  0.00  0.00    +0.000 OA
BRANCH  15  18
ATOM     17  C   UNL     1      -7.331  14.464  23.974  0.00  0.00    +0.000 C 
ATOM     18  O   UNL     1      -6.529  13.294  24.143  0.00  0.00    +0.000 OA
ENDBRANCH  15  18
ENDBRANCH   9  15
ENDBRANCH   1  12
BRANCH   6  19
ATOM     19  C   UNL     1       1.740   9.410  19.285  0.00  0.00    +0.000 C 
BRANCH  19  20
ATOM     20  N   UNL     1       2.127   8.272  18.471  0.00  0.00    +0.000 N 
ATOM     21  C   UNL     1       2.155   7.048  19.101  0.00  0.00    +0.000 C 
ATOM     22  O   UNL     1       1.958   6.915  20.299  0.00  0.00    +0.000 OA
ATOM     23  N   UNL     1       2.416   6.021  18.225  0.00  0.00    +0.000 N 
ATOM     24  H   UNL     1       1.783   8.236  17.523  0.00  0.00    +0.000 HD
ATOM     25  H   UNL     1       3.007   6.284  17.450  0.00  0.00    +0.000 HD
BRANCH  23  26
ATOM     26  C   UNL     1       2.479   4.617  18.668  0.00  0.00    +0.000 C 
ATOM     27  C   UNL     1       3.843   4.308  19.341  0.00  0.00    +0.000 C 
ATOM     28  C   UNL     1       3.902   2.849  19.818  0.00  0.00    +0.000 C 
ATOM     29  C   UNL     1       2.794   2.607  20.852  0.00  0.00    +0.000 C 
ATOM     30  C   UNL     1       1.421   2.894  20.222  0.00  0.00    +0.000 C 
ATOM     31  C   UNL     1       1.212   1.947  19.028  0.00  0.00    +0.000 C 
ATOM     32  C   UNL     1       2.312   2.176  17.980  0.00  0.00    +0.000 C 
ATOM     33  C   UNL     1       3.689   1.917  18.615  0.00  0.00    +0.000 C 
ATOM     34  C   UNL     1       2.246   3.633  17.493  0.00  0.00    +0.000 C 
ATOM     35  C   UNL     1       1.375   4.355  19.730  0.00  0.00    +0.000 C 
ENDBRANCH  23  26
ENDBRANCH  19  20
ENDBRANCH   6  19
TORSDOF 6
ENDMDL
MODEL 5
REMARK VINA RESULT:      -8.3      0.275      1.334
REMARK  Name = 
REMARK  7 active torsions:
REMARK  status: ('A' for Active; 'I' for Inactive)
REMARK    1  A    between atoms: C_1  and  O_2
REMARK    2  A    between atoms: O_2  and  C_3
REMARK    3  A    between atoms: C_3  and  C_5
REMARK    4  A    between atoms: C_8  and  C_9
REMARK    5  A    between atoms: C_14  and  C_15
REMARK    6  A    between atoms: C_15  and  N_16
REMARK    7  A    between atoms: N_19  and  C_20
REMARK                            x       y       z     vdW  Elec       q    Type
REMARK                         _______ _______ _______ _____ _____    ______ ____
ROOT
ATOM      1  C   UNL     1       1.297  12.795  20.297  0.00  0.00    +0.000 C 
ATOM      2  O   UNL     1       1.232  12.664  21.520  0.00  0.00    +0.000 OA
ATOM      3  N   UNL     1       2.316  13.521  19.677  0.00  0.00    +0.000 N 
ATOM      4  C   UNL     1       3.482  13.898  20.477  0.00  0.00    +0.000 C 
ATOM      5  C   UNL     1       3.699  15.407  20.461  0.00  0.00    +0.000 C 
ATOM      6  C   UNL     1       3.794  15.959  19.032  0.00  0.00    +0.000 C 
ATOM      7  C   UNL     1       2.541  15.528  18.248  0.00  0.00    +0.000 C 
ATOM      8  C   UNL     1       2.299  14.021  18.301  0.00  0.00    +0.000 C 
ENDROOT
BRANCH   1  12
ATOM      9  C   UNL     1      -1.843  10.828  18.114  0.00  0.00    +0.000 A 
ATOM     10  C   UNL     1      -2.065  12.064  18.736  0.00  0.00    +0.000 A 
ATOM     11  C   UNL     1      -1.024  12.706  19.416  0.00  0.00    +0.000 A 
ATOM     12  C   UNL     1       0.244  12.115  19.490  0.00  0.00    +0.000 A 
ATOM     13  C   UNL     1       0.447  10.859  18.907  0.00  0.00    +0.000 A 
ATOM     14  C   UNL     1      -0.579  10.234  18.193  0.00  0.00    +0.000 A 
BRANCH   9  15
ATOM     15  C   UNL     1      -2.981  10.170  17.415  0.00  0.00    +0.000 C 
ATOM     16  O   UNL     1      -4.111  10.105  17.874  0.00  0.00    +0.000 OA
BRANCH  15  18
ATOM     17  C   UNL     1      -3.008  10.406  15.089  0.00  0.00    +0.000 C 
ATOM     18  O   UNL     1      -2.572   9.661  16.227  0.00  0.00    +0.000 OA
ENDBRANCH  15  18
ENDBRANCH   9  15
ENDBRANCH   1  12
BRANCH   6  19
ATOM     19  C   UNL     1       5.062  15.518  18.289  0.00  0.00    +0.000 C 
BRANCH  19  20
ATOM     20  N   UNL     1       6.224  15.350  19.142  0.00  0.00    +0.000 N 
ATOM     21  C   UNL     1       7.218  14.523  18.670  0.00  0.00    +0.000 C 
ATOM     22  O   UNL     1       7.111  13.882  17.634  0.00  0.00    +0.000 OA
ATOM     23  N   UNL     1       8.323  14.521  19.488  0.00  0.00    +0.000 N 
ATOM     24  H   UNL     1       6.567  16.164  19.630  0.00  0.00    +0.000 HD
ATOM     25  H   UNL     1       8.110  14.666  20.463  0.00  0.00    +0.000 HD
BRANCH  23  26
ATOM     26  C   UNL     1       9.521  13.721  19.176  0.00  0.00    +0.000 C 
ATOM     27  C   UNL     1      10.737  14.191  20.019  0.00  0.00    +0.000 C 
ATOM     28  C   UNL     1      11.981  13.347  19.707  0.00  0.00    +0.000 C 
ATOM     29  C   UNL     1      11.699  11.878  20.052  0.00  0.00    +0.000 C 
ATOM     30  C   UNL     1      10.505  11.369  19.229  0.00  0.00    +0.000 C 
ATOM     31  C   UNL     1      10.846  11.479  17.733  0.00  0.00    +0.000 C 
ATOM     32  C   UNL     1      11.129  12.944  17.368  0.00  0.00    +0.000 C 
ATOM     33  C   UNL     1      12.307  13.465  18.209  0.00  0.00    +0.000 C 
ATOM     34  C   UNL     1       9.880  13.787  17.669  0.00  0.00    +0.000 C 
ATOM     35  C   UNL     1       9.263  12.232  19.535  0.00  0.00    +0.000 C 
ENDBRANCH  23  26
ENDBRANCH  19  20
ENDBRANCH   6  19
TORSDOF 6
ENDMDL
MODEL 6
REMARK VINA RESULT:      -8.3      6.475      9.012
REMARK  Name = 
REMARK  7 active torsions:
REMARK  status: ('A' for Active; 'I' for Inactive)
REMARK    1  A    between atoms: C_1  and  O_2
REMARK    2  A    between atoms: O_2  and  C_3
REMARK    3  A    between atoms: C_3  and  C_5
REMARK    4  A    between atoms: C_8  and  C_9
REMARK    5  A    between atoms: C_14  and  C_15
REMARK    6  A    between atoms: C_15  and  N_16
REMARK    7  A    between atoms: N_19  and  C_20
REMARK                            x       y       z     vdW  Elec       q    Type
REMARK                         _______ _______ _______ _____ _____    ______ ____
ROOT
ATOM      1  C   UNL     1      -0.870  13.506  21.061  0.00  0.00    +0.000 C 
ATOM      2  O   UNL     1      -0.390  14.633  20.931  0.00  0.00    +0.000 OA
ATOM      3  N   UNL     1      -0.203  12.356  20.635  0.00  0.00    +0.000 N 
ATOM      4  C   UNL     1       1.212  12.470  20.280  0.00  0.00    +0.000 C 
ATOM      5  C   UNL     1       1.466  11.992  18.854  0.00  0.00    +0.000 C 
ATOM      6  C   UNL     1       0.938  10.569  18.623  0.00  0.00    +0.000 C 
ATOM      7  C   UNL     1      -0.550  10.520  19.013  0.00  0.00    +0.000 C 
ATOM      8  C   UNL     1      -0.809  11.040  20.426  0.00  0.00    +0.000 C 
ENDROOT
BRANCH   1  12
ATOM      9  C   UNL     1      -4.661  13.086  23.048  0.00  0.00    +0.000 A 
ATOM     10  C   UNL     1      -3.464  13.087  23.776  0.00  0.00    +0.000 A 
ATOM     11  C   UNL     1      -2.241  13.256  23.118  0.00  0.00    +0.000 A 
ATOM     12  C   UNL     1      -2.201  13.415  21.726  0.00  0.00    +0.000 A 
ATOM     13  C   UNL     1      -3.396  13.367  20.999  0.00  0.00    +0.000 A 
ATOM     14  C   UNL     1      -4.622  13.238  21.657  0.00  0.00    +0.000 A 
BRANCH   9  15
ATOM     15  C   UNL     1      -5.939  12.887  23.783  0.00  0.00    +0.000 C 
ATOM     16  O   UNL     1      -6.366  11.792  24.116  0.00  0.00    +0.000 OA
BRANCH  15  18
ATOM     17  C   UNL     1      -7.710  14.305  23.218  0.00  0.00    +0.000 C 
ATOM     18  O   UNL     1      -6.543  14.080  24.009  0.00  0.00    +0.000 OA
ENDBRANCH  15  18
ENDBRANCH   9  15
ENDBRANCH   1  12
BRANCH   6  19
ATOM     19  C   UNL     1       1.723   9.495  19.388  0.00  0.00    +0.000 C 
BRANCH  19  20
ATOM     20  N   UNL     1       2.109   8.351  18.582  0.00  0.00    +0.000 N 
ATOM     21  C   UNL     1       2.105   7.127  19.211  0.00  0.00    +0.000 C 
ATOM     22  O   UNL     1       1.880   6.996  20.405  0.00  0.00    +0.000 OA
ATOM     23  N   UNL     1       2.368   6.096  18.340  0.00  0.00    +0.000 N 
ATOM     24  H   UNL     1       1.784   8.321  17.627  0.00  0.00    +0.000 HD
ATOM     25  H   UNL     1       2.978   6.349  17.579  0.00  0.00    +0.000 HD
BRANCH  23  26
ATOM     26  C   UNL     1       2.398   4.691  18.784  0.00  0.00    +0.000 C 
ATOM     27  C   UNL     1       2.206   3.725  17.584  0.00  0.00    +0.000 C 
ATOM     28  C   UNL     1       2.256   2.261  18.043  0.00  0.00    +0.000 C 
ATOM     29  C   UNL     1       3.624   1.972  18.675  0.00  0.00    +0.000 C 
ATOM     30  C   UNL     1       3.851   2.903  19.877  0.00  0.00    +0.000 C 
ATOM     31  C   UNL     1       2.751   2.647  20.921  0.00  0.00    +0.000 C 
ATOM     32  C   UNL     1       1.372   2.934  20.308  0.00  0.00    +0.000 C 
ATOM     33  C   UNL     1       1.152   2.023  19.088  0.00  0.00    +0.000 C 
ATOM     34  C   UNL     1       1.318   4.403  19.858  0.00  0.00    +0.000 C 
ATOM     35  C   UNL     1       3.784   4.371  19.411  0.00  0.00    +0.000 C 
ENDBRANCH  23  26
ENDBRANCH  19  20
ENDBRANCH   6  19
TORSDOF 6
ENDMDL
MODEL 7
REMARK VINA RESULT:      -8.1      7.016      8.535
REMARK  Name = 
REMARK  7 active torsions:
REMARK  status: ('A' for Active; 'I' for Inactive)
REMARK    1  A    between atoms: C_1  and  O_2
REMARK    2  A    between atoms: O_2  and  C_3
REMARK    3  A    between atoms: C_3  and  C_5
REMARK    4  A    between atoms: C_8  and  C_9
REMARK    5  A    between atoms: C_14  and  C_15
REMARK    6  A    between atoms: C_15  and  N_16
REMARK    7  A    between atoms: N_19  and  C_20
REMARK                            x       y       z     vdW  Elec       q    Type
REMARK                         _______ _______ _______ _____ _____    ______ ____
ROOT
ATOM      1  C   UNL     1      -2.562  11.442  18.911  0.00  0.00    +0.000 C 
ATOM      2  O   UNL     1      -3.256  12.358  19.355  0.00  0.00    +0.000 OA
ATOM      3  N   UNL     1      -1.557  10.834  19.665  0.00  0.00    +0.000 N 
ATOM      4  C   UNL     1      -1.513  11.102  21.103  0.00  0.00    +0.000 C 
ATOM      5  C   UNL     1      -0.161  11.671  21.519  0.00  0.00    +0.000 C 
ATOM      6  C   UNL     1       1.002  10.771  21.077  0.00  0.00    +0.000 C 
ATOM      7  C   UNL     1       0.897  10.532  19.560  0.00  0.00    +0.000 C 
ATOM      8  C   UNL     1      -0.473  10.003  19.138  0.00  0.00    +0.000 C 
ENDROOT
BRANCH   1  12
ATOM      9  C   UNL     1      -3.261  10.167  14.864  0.00  0.00    +0.000 A 
ATOM     10  C   UNL     1      -2.224   9.612  15.624  0.00  0.00    +0.000 A 
ATOM     11  C   UNL     1      -2.028  10.015  16.949  0.00  0.00    +0.000 A 
ATOM     12  C   UNL     1      -2.861  10.984  17.525  0.00  0.00    +0.000 A 
ATOM     13  C   UNL     1      -3.867  11.568  16.747  0.00  0.00    +0.000 A 
ATOM     14  C   UNL     1      -4.089  11.139  15.436  0.00  0.00    +0.000 A 
BRANCH   9  15
ATOM     15  C   UNL     1      -3.425   9.723  13.453  0.00  0.00    +0.000 C 
ATOM     16  O   UNL     1      -2.491   9.433  12.722  0.00  0.00    +0.000 OA
BRANCH  15  18
ATOM     17  C   UNL     1      -4.982   9.730  11.708  0.00  0.00    +0.000 C 
ATOM     18  O   UNL     1      -4.738   9.704  13.115  0.00  0.00    +0.000 OA
ENDBRANCH  15  18
ENDBRANCH   9  15
ENDBRANCH   1  12
BRANCH   6  19
ATOM     19  C   UNL     1       1.056   9.432  21.824  0.00  0.00    +0.000 C 
BRANCH  19  20
ATOM     20  N   UNL     1       2.100   8.535  21.364  0.00  0.00    +0.000 N 
ATOM     21  C   UNL     1       1.688   7.334  20.832  0.00  0.00    +0.000 C 
ATOM     22  O   UNL     1       0.518   6.981  20.821  0.00  0.00    +0.000 OA
ATOM     23  N   UNL     1       2.736   6.608  20.319  0.00  0.00    +0.000 N 
ATOM     24  H   UNL     1       2.891   8.943  20.888  0.00  0.00    +0.000 HD
ATOM     25  H   UNL     1       3.611   6.754  20.800  0.00  0.00    +0.000 HD
BRANCH  23  26
ATOM     26  C   UNL     1       2.535   5.294  19.681  0.00  0.00    +0.000 C 
ATOM     27  C   UNL     1       3.889   4.561  19.481  0.00  0.00    +0.000 C 
ATOM     28  C   UNL     1       3.678   3.185  18.833  0.00  0.00    +0.000 C 
ATOM     29  C   UNL     1       2.797   2.322  19.747  0.00  0.00    +0.000 C 
ATOM     30  C   UNL     1       1.440   3.009  19.964  0.00  0.00    +0.000 C 
ATOM     31  C   UNL     1       0.742   3.176  18.604  0.00  0.00    +0.000 C 
ATOM     32  C   UNL     1       1.607   4.040  17.675  0.00  0.00    +0.000 C 
ATOM     33  C   UNL     1       2.977   3.370  17.477  0.00  0.00    +0.000 C 
ATOM     34  C   UNL     1       1.809   5.422  18.318  0.00  0.00    +0.000 C 
ATOM     35  C   UNL     1       1.660   4.397  20.600  0.00  0.00    +0.000 C 
ENDBRANCH  23  26
ENDBRANCH  19  20
ENDBRANCH   6  19
TORSDOF 6
ENDMDL
MODEL 8
REMARK VINA RESULT:      -7.9      0.736      1.426
REMARK  Name = 
REMARK  7 active torsions:
REMARK  status: ('A' for Active; 'I' for Inactive)
REMARK    1  A    between atoms: C_1  and  O_2
REMARK    2  A    between atoms: O_2  and  C_3
REMARK    3  A    between atoms: C_3  and  C_5
REMARK    4  A    between atoms: C_8  and  C_9
REMARK    5  A    between atoms: C_14  and  C_15
REMARK    6  A    between atoms: C_15  and  N_16
REMARK    7  A    between atoms: N_19  and  C_20
REMARK                            x       y       z     vdW  Elec       q    Type
REMARK                         _______ _______ _______ _____ _____    ______ ____
ROOT
ATOM      1  C   UNL     1       0.952  12.766  20.562  0.00  0.00    +0.000 C 
ATOM      2  O   UNL     1       0.912  12.647  21.787  0.00  0.00    +0.000 OA
ATOM      3  N   UNL     1       1.978  13.453  19.910  0.00  0.00    +0.000 N 
ATOM      4  C   UNL     1       3.174  13.801  20.679  0.00  0.00    +0.000 C 
ATOM      5  C   UNL     1       3.438  15.302  20.643  0.00  0.00    +0.000 C 
ATOM      6  C   UNL     1       3.515  15.837  19.206  0.00  0.00    +0.000 C 
ATOM      7  C   UNL     1       2.231  15.440  18.457  0.00  0.00    +0.000 C 
ATOM      8  C   UNL     1       1.943  13.941  18.531  0.00  0.00    +0.000 C 
ENDROOT
BRANCH   1  12
ATOM      9  C   UNL     1      -2.109  10.908  18.179  0.00  0.00    +0.000 A 
ATOM     10  C   UNL     1      -0.800  10.408  18.186  0.00  0.00    +0.000 A 
ATOM     11  C   UNL     1       0.177  11.005  18.989  0.00  0.00    +0.000 A 
ATOM     12  C   UNL     1      -0.141  12.112  19.788  0.00  0.00    +0.000 A 
ATOM     13  C   UNL     1      -1.438  12.635  19.743  0.00  0.00    +0.000 A 
ATOM     14  C   UNL     1      -2.426  12.018  18.971  0.00  0.00    +0.000 A 
BRANCH   9  15
ATOM     15  C   UNL     1      -3.114  10.255  17.298  0.00  0.00    +0.000 C 
ATOM     16  O   UNL     1      -4.314  10.250  17.528  0.00  0.00    +0.000 OA
BRANCH  15  18
ATOM     17  C   UNL     1      -2.959  10.149  14.967  0.00  0.00    +0.000 C 
ATOM     18  O   UNL     1      -2.503   9.676  16.235  0.00  0.00    +0.000 OA
ENDBRANCH  15  18
ENDBRANCH   9  15
ENDBRANCH   1  12
BRANCH   6  19
ATOM     19  C   UNL     1       4.751  15.350  18.438  0.00  0.00    +0.000 C 
BRANCH  19  20
ATOM     20  N   UNL     1       5.889  15.031  19.280  0.00  0.00    +0.000 N 
ATOM     21  C   UNL     1       7.007  14.541  18.642  0.00  0.00    +0.000 C 
ATOM     22  O   UNL     1       7.032  14.294  17.445  0.00  0.00    +0.000 OA
ATOM     23  N   UNL     1       8.067  14.383  19.503  0.00  0.00    +0.000 N 
ATOM     24  H   UNL     1       6.096  15.658  20.043  0.00  0.00    +0.000 HD
ATOM     25  H   UNL     1       7.796  14.154  20.447  0.00  0.00    +0.000 HD
BRANCH  23  26
ATOM     26  C   UNL     1       9.376  13.887  19.042  0.00  0.00    +0.000 C 
ATOM     27  C   UNL     1       9.216  12.582  18.216  0.00  0.00    +0.000 C 
ATOM     28  C   UNL     1      10.578  12.074  17.722  0.00  0.00    +0.000 C 
ATOM     29  C   UNL     1      11.220  13.137  16.819  0.00  0.00    +0.000 C 
ATOM     30  C   UNL     1      11.405  14.446  17.603  0.00  0.00    +0.000 C 
ATOM     31  C   UNL     1      12.329  14.181  18.804  0.00  0.00    +0.000 C 
ATOM     32  C   UNL     1      11.702  13.122  19.722  0.00  0.00    +0.000 C 
ATOM     33  C   UNL     1      11.490  11.818  18.933  0.00  0.00    +0.000 C 
ATOM     34  C   UNL     1      10.344  13.634  20.227  0.00  0.00    +0.000 C 
ATOM     35  C   UNL     1      10.035  14.941  18.110  0.00  0.00    +0.000 C 
ENDBRANCH  23  26
ENDBRANCH  19  20
ENDBRANCH   6  19
TORSDOF 6
ENDMDL
MODEL 9
REMARK VINA RESULT:      -7.7      6.284     10.906
REMARK  Name = 
REMARK  7 active torsions:
REMARK  status: ('A' for Active; 'I' for Inactive)
REMARK    1  A    between atoms: C_1  and  O_2
REMARK    2  A    between atoms: O_2  and  C_3
REMARK    3  A    between atoms: C_3  and  C_5
REMARK    4  A    between atoms: C_8  and  C_9
REMARK    5  A    between atoms: C_14  and  C_15
REMARK    6  A    between atoms: C_15  and  N_16
REMARK    7  A    between atoms: N_19  and  C_20
REMARK                            x       y       z     vdW  Elec       q    Type
REMARK                         _______ _______ _______ _____ _____    ______ ____
ROOT
ATOM      1  C   UNL     1       2.695   6.517  19.090  0.00  0.00    +0.000 C 
ATOM      2  O   UNL     1       2.385   5.626  19.882  0.00  0.00    +0.000 OA
ATOM      3  N   UNL     1       2.253   7.834  19.236  0.00  0.00    +0.000 N 
ATOM      4  C   UNL     1       1.637   8.220  20.506  0.00  0.00    +0.000 C 
ATOM      5  C   UNL     1       0.235   8.779  20.293  0.00  0.00    +0.000 C 
ATOM      6  C   UNL     1       0.226   9.939  19.286  0.00  0.00    +0.000 C 
ATOM      7  C   UNL     1       0.884   9.466  17.978  0.00  0.00    +0.000 C 
ATOM      8  C   UNL     1       2.271   8.865  18.197  0.00  0.00    +0.000 C 
ENDROOT
BRANCH   1  12
ATOM      9  C   UNL     1       5.381   5.297  15.960  0.00  0.00    +0.000 A 
ATOM     10  C   UNL     1       4.528   4.373  16.577  0.00  0.00    +0.000 A 
ATOM     11  C   UNL     1       3.639   4.791  17.573  0.00  0.00    +0.000 A 
ATOM     12  C   UNL     1       3.598   6.135  17.968  0.00  0.00    +0.000 A 
ATOM     13  C   UNL     1       4.485   7.045  17.381  0.00  0.00    +0.000 A 
ATOM     14  C   UNL     1       5.346   6.638  16.359  0.00  0.00    +0.000 A 
BRANCH   9  15
ATOM     15  C   UNL     1       6.324   4.809  14.918  0.00  0.00    +0.000 C 
ATOM     16  O   UNL     1       7.438   5.276  14.741  0.00  0.00    +0.000 OA
BRANCH  15  18
ATOM     17  C   UNL     1       6.246   3.679  12.872  0.00  0.00    +0.000 C 
ATOM     18  O   UNL     1       5.760   3.799  14.210  0.00  0.00    +0.000 OA
ENDBRANCH  15  18
ENDBRANCH   9  15
ENDBRANCH   1  12
BRANCH   6  19
ATOM     19  C   UNL     1       0.922  11.204  19.805  0.00  0.00    +0.000 C 
BRANCH  19  20
ATOM     20  N   UNL     1       0.414  11.686  21.076  0.00  0.00    +0.000 N 
ATOM     21  C   UNL     1      -0.720  12.466  21.028  0.00  0.00    +0.000 C 
ATOM     22  O   UNL     1      -1.236  12.821  19.978  0.00  0.00    +0.000 OA
ATOM     23  N   UNL     1      -1.191  12.773  22.282  0.00  0.00    +0.000 N 
ATOM     24  H   UNL     1       0.441  11.053  21.861  0.00  0.00    +0.000 HD
ATOM     25  H   UNL     1      -0.469  12.850  22.983  0.00  0.00    +0.000 HD
BRANCH  23  26
ATOM     26  C   UNL     1      -2.405  13.585  22.481  0.00  0.00    +0.000 C 
ATOM     27  C   UNL     1      -3.667  12.825  21.990  0.00  0.00    +0.000 C 
ATOM     28  C   UNL     1      -4.934  13.663  22.213  0.00  0.00    +0.000 C 
ATOM     29  C   UNL     1      -5.099  13.947  23.712  0.00  0.00    +0.000 C 
ATOM     30  C   UNL     1      -3.872  14.709  24.238  0.00  0.00    +0.000 C 
ATOM     31  C   UNL     1      -3.752  16.044  23.482  0.00  0.00    +0.000 C 
ATOM     32  C   UNL     1      -3.583  15.780  21.979  0.00  0.00    +0.000 C 
ATOM     33  C   UNL     1      -4.797  14.994  21.455  0.00  0.00    +0.000 C 
ATOM     34  C   UNL     1      -2.308  14.951  21.754  0.00  0.00    +0.000 C 
ATOM     35  C   UNL     1      -2.602  13.868  23.996  0.00  0.00    +0.000 C 
ENDBRANCH  23  26
ENDBRANCH  19  20
ENDBRANCH   6  19
TORSDOF 6
ENDMDL
