MODEL 1
REMARK VINA RESULT:      -8.7      0.000      0.000
REMARK  Name = 
REMARK  5 active torsions:
REMARK  status: ('A' for Active; 'I' for Inactive)
REMARK    1  A    between atoms: C_2  and  O_3
REMARK    2  A    between atoms: C_2  and  C_4
REMARK    3  A    between atoms: C_7  and  N_8
REMARK    4  A    between atoms: C_13  and  C_14
REMARK    5  A    between atoms: C_17  and  O_18
REMARK                            x       y       z     vdW  Elec       q    Type
REMARK                         _______ _______ _______ _____ _____    ______ ____
ROOT
ATOM      1  N   UNL     1       6.836   6.205  18.081  0.00  0.00    +0.000 N 
ATOM      2  C   UNL     1       7.914   6.263  18.930  0.00  0.00    +0.000 C 
ATOM      3  O   UNL     1       8.352   5.367  19.641  0.00  0.00    +0.000 OA
ATOM      4  O   UNL     1       8.559   7.475  18.885  0.00  0.00    +0.000 OA
ATOM      5  C   UNL     1       7.869   8.160  17.910  0.00  0.00    +0.000 C 
ATOM      6  C   UNL     1       8.087   9.451  17.612  0.00  0.00    +0.000 C 
ATOM      7  C   UNL     1       6.802   7.333  17.315  0.00  0.00    +0.000 C 
ATOM      8  O   UNL     1       6.076   7.675  16.401  0.00  0.00    +0.000 OA
ENDROOT
BRANCH   6   9
ATOM      9  C   UNL     1       9.070  10.311  18.298  0.00  0.00    +0.000 A 
ATOM     10  C   UNL     1       9.168  10.249  19.696  0.00  0.00    +0.000 A 
ATOM     11  C   UNL     1      10.115  11.016  20.384  0.00  0.00    +0.000 A 
ATOM     12  C   UNL     1      10.974  11.858  19.678  0.00  0.00    +0.000 A 
ATOM     13  C   UNL     1      10.873  11.949  18.292  0.00  0.00    +0.000 A 
ATOM     14 BR   UNL     1      12.023  13.070  17.282  0.00  0.00    +0.000 Br
ATOM     15  C   UNL     1       9.915  11.195  17.610  0.00  0.00    +0.000 A 
BRANCH  12  16
ATOM     16  O   UNL     1      11.910  12.595  20.345  0.00  0.00    +0.000 OA
ATOM     17  H   UNL     1      11.758  12.527  21.300  0.00  0.00    +0.000 HD
ENDBRANCH  12  16
ENDBRANCH   6   9
BRANCH   1  21
ATOM     18  C   UNL     1       4.018   3.019  18.007  0.00  0.00    +0.000 A 
ATOM     19  C   UNL     1       4.280   3.709  19.189  0.00  0.00    +0.000 A 
ATOM     20  C   UNL     1       5.219   4.742  19.202  0.00  0.00    +0.000 A 
ATOM     21  C   UNL     1       5.907   5.130  18.037  0.00  0.00    +0.000 A 
ATOM     22  C   UNL     1       5.602   4.453  16.847  0.00  0.00    +0.000 A 
ATOM     23  C   UNL     1       4.668   3.402  16.830  0.00  0.00    +0.000 A 
BRANCH  18  25
ATOM     24  O   UNL     1       1.838   2.104  17.777  0.00  0.00    +0.000 OA
ATOM     25  C   UNL     1       3.012   1.931  18.049  0.00  0.00    +0.000 C 
BRANCH  25  26
ATOM     26  O   UNL     1       3.511   0.752  18.471  0.00  0.00    +0.000 OA
ATOM     27  H   UNL     1       4.144   0.331  17.862  0.00  0.00    +0.000 HD
ENDBRANCH  25  26
ENDBRANCH  18  25
ENDBRANCH   1  21
TORSDOF 5
ENDMDL
MODEL 2
REMARK VINA RESULT:      -8.4      1.129      1.444
REMARK  Name = 
REMARK  5 active torsions:
REMARK  status: ('A' for Active; 'I' for Inactive)
REMARK    1  A    between atoms: C_2  and  O_3
REMARK    2  A    between atoms: C_2  and  C_4
REMARK    3  A    between atoms: C_7  and  N_8
REMARK    4  A    between atoms: C_13  and  C_14
REMARK    5  A    between atoms: C_17  and  O_18
REMARK                            x       y       z     vdW  Elec       q    Type
REMARK                         _______ _______ _______ _____ _____    ______ ____
ROOT
ATOM      1  N   UNL     1       6.933   6.250  18.136  0.00  0.00    +0.000 N 
ATOM      2  C   UNL     1       7.999   6.334  18.998  0.00  0.00    +0.000 C 
ATOM      3  O   UNL     1       8.444   5.454  19.723  0.00  0.00    +0.000 OA
ATOM      4  O   UNL     1       8.623   7.557  18.950  0.00  0.00    +0.000 OA
ATOM      5  C   UNL     1       7.932   8.221  17.960  0.00  0.00    +0.000 C 
ATOM      6  C   UNL     1       8.130   9.513  17.652  0.00  0.00    +0.000 C 
ATOM      7  C   UNL     1       6.889   7.369  17.359  0.00  0.00    +0.000 C 
ATOM      8  O   UNL     1       6.168   7.690  16.433  0.00  0.00    +0.000 OA
ENDROOT
BRANCH   6   9
ATOM      9  C   UNL     1       9.089  10.397  18.343  0.00  0.00    +0.000 A 
ATOM     10  C   UNL     1      10.261  10.782  17.677  0.00  0.00    +0.000 A 
ATOM     11  C   UNL     1      11.177  11.652  18.279  0.00  0.00    +0.000 A 
ATOM     12  C   UNL     1      10.929  12.145  19.559  0.00  0.00    +0.000 A 
ATOM     13  C   UNL     1       9.781  11.754  20.244  0.00  0.00    +0.000 A 
ATOM     14 BR   UNL     1       9.391  12.403  21.983  0.00  0.00    +0.000 Br
ATOM     15  C   UNL     1       8.878  10.871  19.647  0.00  0.00    +0.000 A 
BRANCH  12  16
ATOM     16  O   UNL     1      11.813  13.007  20.143  0.00  0.00    +0.000 OA
ATOM     17  H   UNL     1      12.681  12.582  20.219  0.00  0.00    +0.000 HD
ENDBRANCH  12  16
ENDBRANCH   6   9
BRANCH   1  21
ATOM     18  C   UNL     1       4.172   3.014  18.053  0.00  0.00    +0.000 A 
ATOM     19  C   UNL     1       4.360   3.758  19.216  0.00  0.00    +0.000 A 
ATOM     20  C   UNL     1       5.281   4.808  19.233  0.00  0.00    +0.000 A 
ATOM     21  C   UNL     1       6.024   5.157  18.090  0.00  0.00    +0.000 A 
ATOM     22  C   UNL     1       5.795   4.424  16.916  0.00  0.00    +0.000 A 
ATOM     23  C   UNL     1       4.879   3.357  16.897  0.00  0.00    +0.000 A 
BRANCH  18  25
ATOM     24  O   UNL     1       1.982   2.096  18.008  0.00  0.00    +0.000 OA
ATOM     25  C   UNL     1       3.183   1.911  18.090  0.00  0.00    +0.000 C 
BRANCH  25  26
ATOM     26  O   UNL     1       3.737   0.696  18.279  0.00  0.00    +0.000 OA
ATOM     27  H   UNL     1       4.384   0.429  17.602  0.00  0.00    +0.000 HD
ENDBRANCH  25  26
ENDBRANCH  18  25
ENDBRANCH   1  21
TORSDOF 5
ENDMDL
MODEL 3
REMARK VINA RESULT:      -8.1      6.290      7.813
REMARK  Name = 
REMARK  5 active torsions:
REMARK  status: ('A' for Active; 'I' for Inactive)
REMARK    1  A    between atoms: C_2  and  O_3
REMARK    2  A    between atoms: C_2  and  C_4
REMARK    3  A    between atoms: C_7  and  N_8
REMARK    4  A    between atoms: C_13  and  C_14
REMARK    5  A    between atoms: C_17  and  O_18
REMARK                            x       y       z     vdW  Elec       q    Type
REMARK                         _______ _______ _______ _____ _____    ______ ____
ROOT
ATOM      1  N   UNL     1       2.755   7.228  18.585  0.00  0.00    +0.000 N 
ATOM      2  C   UNL     1       2.209   8.419  18.171  0.00  0.00    +0.000 C 
ATOM      3  O   UNL     1       2.291   8.932  17.062  0.00  0.00    +0.000 OA
ATOM      4  O   UNL     1       1.455   9.024  19.147  0.00  0.00    +0.000 OA
ATOM      5  C   UNL     1       1.499   8.116  20.182  0.00  0.00    +0.000 C 
ATOM      6  C   UNL     1       0.986   8.351  21.401  0.00  0.00    +0.000 C 
ATOM      7  C   UNL     1       2.263   6.909  19.816  0.00  0.00    +0.000 C 
ATOM      8  O   UNL     1       2.416   5.932  20.525  0.00  0.00    +0.000 OA
ENDROOT
BRANCH   6   9
ATOM      9  C   UNL     1       0.333   9.612  21.801  0.00  0.00    +0.000 A 
ATOM     10  C   UNL     1      -0.633   9.585  22.817  0.00  0.00    +0.000 A 
ATOM     11  C   UNL     1      -1.246  10.764  23.257  0.00  0.00    +0.000 A 
ATOM     12  C   UNL     1      -0.901  11.985  22.679  0.00  0.00    +0.000 A 
ATOM     13  C   UNL     1       0.039  12.026  21.652  0.00  0.00    +0.000 A 
ATOM     14 BR   UNL     1       0.554  13.661  20.839  0.00  0.00    +0.000 Br
ATOM     15  C   UNL     1       0.637  10.845  21.204  0.00  0.00    +0.000 A 
BRANCH  12  16
ATOM     16  O   UNL     1      -1.485  13.139  23.117  0.00  0.00    +0.000 OA
ATOM     17  H   UNL     1      -2.253  12.925  23.669  0.00  0.00    +0.000 HD
ENDBRANCH  12  16
ENDBRANCH   6   9
BRANCH   1  21
ATOM     18  C   UNL     1       5.623   5.011  16.359  0.00  0.00    +0.000 A 
ATOM     19  C   UNL     1       5.856   6.344  16.688  0.00  0.00    +0.000 A 
ATOM     20  C   UNL     1       4.898   7.065  17.406  0.00  0.00    +0.000 A 
ATOM     21  C   UNL     1       3.695   6.473  17.832  0.00  0.00    +0.000 A 
ATOM     22  C   UNL     1       3.493   5.118  17.527  0.00  0.00    +0.000 A 
ATOM     23  C   UNL     1       4.447   4.392  16.792  0.00  0.00    +0.000 A 
BRANCH  18  25
ATOM     24  O   UNL     1       7.862   4.498  15.753  0.00  0.00    +0.000 OA
ATOM     25  C   UNL     1       6.671   4.293  15.597  0.00  0.00    +0.000 C 
BRANCH  25  26
ATOM     26  O   UNL     1       6.180   3.438  14.677  0.00  0.00    +0.000 OA
ATOM     27  H   UNL     1       5.208   3.400  14.628  0.00  0.00    +0.000 HD
ENDBRANCH  25  26
ENDBRANCH  18  25
ENDBRANCH   1  21
TORSDOF 5
ENDMDL
MODEL 4
REMARK VINA RESULT:      -8.0      7.077      9.408
REMARK  Name = 
REMARK  5 active torsions:
REMARK  status: ('A' for Active; 'I' for Inactive)
REMARK    1  A    between atoms: C_2  and  O_3
REMARK    2  A    between atoms: C_2  and  C_4
REMARK    3  A    between atoms: C_7  and  N_8
REMARK    4  A    between atoms: C_13  and  C_14
REMARK    5  A    between atoms: C_17  and  O_18
REMARK                            x       y       z     vdW  Elec       q    Type
REMARK                         _______ _______ _______ _____ _____    ______ ____
ROOT
ATOM      1  N   UNL     1       1.101   9.346  19.445  0.00  0.00    +0.000 N 
ATOM      2  C   UNL     1       1.901   9.311  18.329  0.00  0.00    +0.000 C 
ATOM      3  O   UNL     1       2.045  10.189  17.486  0.00  0.00    +0.000 OA
ATOM      4  O   UNL     1       2.635   8.154  18.239  0.00  0.00    +0.000 OA
ATOM      5  C   UNL     1       2.305   7.485  19.397  0.00  0.00    +0.000 C 
ATOM      6  C   UNL     1       2.707   6.234  19.674  0.00  0.00    +0.000 C 
ATOM      7  C   UNL     1       1.379   8.270  20.234  0.00  0.00    +0.000 C 
ATOM      8  O   UNL     1       0.968   7.936  21.330  0.00  0.00    +0.000 OA
ENDROOT
BRANCH   6   9
ATOM      9  C   UNL     1       3.530   5.404  18.774  0.00  0.00    +0.000 A 
ATOM     10  C   UNL     1       2.892   4.533  17.879  0.00  0.00    +0.000 A 
ATOM     11  C   UNL     1       3.633   3.758  16.979  0.00  0.00    +0.000 A 
ATOM     12  C   UNL     1       5.024   3.846  16.966  0.00  0.00    +0.000 A 
ATOM     13  C   UNL     1       5.675   4.689  17.865  0.00  0.00    +0.000 A 
ATOM     14 BR   UNL     1       7.564   4.855  17.884  0.00  0.00    +0.000 Br
ATOM     15  C   UNL     1       4.933   5.448  18.774  0.00  0.00    +0.000 A 
BRANCH  12  16
ATOM     16  O   UNL     1       5.749   3.105  16.078  0.00  0.00    +0.000 OA
ATOM     17  H   UNL     1       5.259   3.025  15.245  0.00  0.00    +0.000 HD
ENDBRANCH  12  16
ENDBRANCH   6   9
BRANCH   1  21
ATOM     18  C   UNL     1      -1.851  12.315  20.195  0.00  0.00    +0.000 A 
ATOM     19  C   UNL     1      -2.009  11.404  19.153  0.00  0.00    +0.000 A 
ATOM     20  C   UNL     1      -1.024  10.445  18.908  0.00  0.00    +0.000 A 
ATOM     21  C   UNL     1       0.132  10.354  19.705  0.00  0.00    +0.000 A 
ATOM     22  C   UNL     1       0.257  11.253  20.775  0.00  0.00    +0.000 A 
ATOM     23  C   UNL     1      -0.724  12.230  21.017  0.00  0.00    +0.000 A 
BRANCH  18  25
ATOM     24  O   UNL     1      -2.835  14.221  21.218  0.00  0.00    +0.000 OA
ATOM     25  C   UNL     1      -2.926  13.313  20.411  0.00  0.00    +0.000 C 
BRANCH  25  26
ATOM     26  O   UNL     1      -4.031  13.084  19.672  0.00  0.00    +0.000 OA
ATOM     27  H   UNL     1      -4.283  12.147  19.587  0.00  0.00    +0.000 HD
ENDBRANCH  25  26
ENDBRANCH  18  25
ENDBRANCH   1  21
TORSDOF 5
ENDMDL
MODEL 5
REMARK VINA RESULT:      -7.7      7.413      9.957
REMARK  Name = 
REMARK  5 active torsions:
REMARK  status: ('A' for Active; 'I' for Inactive)
REMARK    1  A    between atoms: C_2  and  O_3
REMARK    2  A    between atoms: C_2  and  C_4
REMARK    3  A    between atoms: C_7  and  N_8
REMARK    4  A    between atoms: C_13  and  C_14
REMARK    5  A    between atoms: C_17  and  O_18
REMARK                            x       y       z     vdW  Elec       q    Type
REMARK                         _______ _______ _______ _____ _____    ______ ____
ROOT
ATOM      1  N   UNL     1       1.099   9.792  19.638  0.00  0.00    +0.000 N 
ATOM      2  C   UNL     1       1.054   8.748  20.529  0.00  0.00    +0.000 C 
ATOM      3  O   UNL     1       0.475   8.711  21.608  0.00  0.00    +0.000 OA
ATOM      4  O   UNL     1       1.710   7.631  20.070  0.00  0.00    +0.000 OA
ATOM      5  C   UNL     1       2.116   8.006  18.808  0.00  0.00    +0.000 C 
ATOM      6  C   UNL     1       2.907   7.252  18.026  0.00  0.00    +0.000 C 
ATOM      7  C   UNL     1       1.663   9.368  18.472  0.00  0.00    +0.000 C 
ATOM      8  O   UNL     1       1.842   9.925  17.404  0.00  0.00    +0.000 OA
ENDROOT
BRANCH   6   9
ATOM      9  C   UNL     1       3.463   5.943  18.418  0.00  0.00    +0.000 A 
ATOM     10  C   UNL     1       4.828   5.848  18.723  0.00  0.00    +0.000 A 
ATOM     11  C   UNL     1       5.389   4.635  19.139  0.00  0.00    +0.000 A 
ATOM     12  C   UNL     1       4.586   3.501  19.253  0.00  0.00    +0.000 A 
ATOM     13  C   UNL     1       3.233   3.573  18.932  0.00  0.00    +0.000 A 
ATOM     14 BR   UNL     1       2.094   2.063  19.079  0.00  0.00    +0.000 Br
ATOM     15  C   UNL     1       2.680   4.781  18.499  0.00  0.00    +0.000 A 
BRANCH  12  16
ATOM     16  O   UNL     1       5.126   2.320  19.675  0.00  0.00    +0.000 OA
ATOM     17  H   UNL     1       4.497   1.599  19.516  0.00  0.00    +0.000 HD
ENDBRANCH  12  16
ENDBRANCH   6   9
BRANCH   1  21
ATOM     18  C   UNL     1      -0.364  13.695  20.489  0.00  0.00    +0.000 A 
ATOM     19  C   UNL     1      -1.178  12.751  19.865  0.00  0.00    +0.000 A 
ATOM     20  C   UNL     1      -0.679  11.479  19.578  0.00  0.00    +0.000 A 
ATOM     21  C   UNL     1       0.634  11.106  19.920  0.00  0.00    +0.000 A 
ATOM     22  C   UNL     1       1.427  12.054  20.583  0.00  0.00    +0.000 A 
ATOM     23  C   UNL     1       0.935  13.342  20.862  0.00  0.00    +0.000 A 
BRANCH  18  25
ATOM     24  O   UNL     1      -0.611  15.708  21.726  0.00  0.00    +0.000 OA
ATOM     25  C   UNL     1      -0.944  15.030  20.770  0.00  0.00    +0.000 C 
BRANCH  25  26
ATOM     26  O   UNL     1      -1.909  15.393  19.902  0.00  0.00    +0.000 OA
ATOM     27  H   UNL     1      -1.622  15.467  18.974  0.00  0.00    +0.000 HD
ENDBRANCH  25  26
ENDBRANCH  18  25
ENDBRANCH   1  21
TORSDOF 5
ENDMDL
MODEL 6
REMARK VINA RESULT:      -7.7      6.965     10.381
REMARK  Name = 
REMARK  5 active torsions:
REMARK  status: ('A' for Active; 'I' for Inactive)
REMARK    1  A    between atoms: C_2  and  O_3
REMARK    2  A    between atoms: C_2  and  C_4
REMARK    3  A    between atoms: C_7  and  N_8
REMARK    4  A    between atoms: C_13  and  C_14
REMARK    5  A    between atoms: C_17  and  O_18
REMARK                            x       y       z     vdW  Elec       q    Type
REMARK                         _______ _______ _______ _____ _____    ______ ____
ROOT
ATOM      1  N   UNL     1       1.251   9.763  19.465  0.00  0.00    +0.000 N 
ATOM      2  C   UNL     1       1.788   9.057  18.416  0.00  0.00    +0.000 C 
ATOM      3  O   UNL     1       2.113   9.486  17.316  0.00  0.00    +0.000 OA
ATOM      4  O   UNL     1       2.009   7.737  18.724  0.00  0.00    +0.000 OA
ATOM      5  C   UNL     1       1.643   7.661  20.050  0.00  0.00    +0.000 C 
ATOM      6  C   UNL     1       1.585   6.511  20.742  0.00  0.00    +0.000 C 
ATOM      7  C   UNL     1       1.228   8.975  20.577  0.00  0.00    +0.000 C 
ATOM      8  O   UNL     1       0.905   9.199  21.728  0.00  0.00    +0.000 OA
ENDROOT
BRANCH   6   9
ATOM      9  C   UNL     1       1.879   5.181  20.175  0.00  0.00    +0.000 A 
ATOM     10  C   UNL     1       1.153   4.072  20.630  0.00  0.00    +0.000 A 
ATOM     11  C   UNL     1       1.371   2.799  20.089  0.00  0.00    +0.000 A 
ATOM     12  C   UNL     1       2.322   2.623  19.086  0.00  0.00    +0.000 A 
ATOM     13  C   UNL     1       3.069   3.711  18.639  0.00  0.00    +0.000 A 
ATOM     14 BR   UNL     1       4.369   3.530  17.269  0.00  0.00    +0.000 Br
ATOM     15  C   UNL     1       2.862   4.977  19.193  0.00  0.00    +0.000 A 
BRANCH  12  16
ATOM     16  O   UNL     1       2.526   1.387  18.544  0.00  0.00    +0.000 OA
ATOM     17  H   UNL     1       2.264   0.705  19.183  0.00  0.00    +0.000 HD
ENDBRANCH  12  16
ENDBRANCH   6   9
BRANCH   1  21
ATOM     18  C   UNL     1      -0.063  13.799  19.185  0.00  0.00    +0.000 A 
ATOM     19  C   UNL     1       1.186  13.494  19.722  0.00  0.00    +0.000 A 
ATOM     20  C   UNL     1       1.598  12.164  19.822  0.00  0.00    +0.000 A 
ATOM     21  C   UNL     1       0.788  11.104  19.374  0.00  0.00    +0.000 A 
ATOM     22  C   UNL     1      -0.450  11.430  18.799  0.00  0.00    +0.000 A 
ATOM     23  C   UNL     1      -0.877  12.767  18.709  0.00  0.00    +0.000 A 
BRANCH  18  25
ATOM     24  O   UNL     1       0.234  16.069  18.550  0.00  0.00    +0.000 OA
ATOM     25  C   UNL     1      -0.451  15.227  19.103  0.00  0.00    +0.000 C 
BRANCH  25  26
ATOM     26  O   UNL     1      -1.602  15.512  19.745  0.00  0.00    +0.000 OA
ATOM     27  H   UNL     1      -2.414  15.275  19.261  0.00  0.00    +0.000 HD
ENDBRANCH  25  26
ENDBRANCH  18  25
ENDBRANCH   1  21
TORSDOF 5
ENDMDL
MODEL 7
REMARK VINA RESULT:      -7.6      7.753      9.833
REMARK  Name = 
REMARK  5 active torsions:
REMARK  status: ('A' for Active; 'I' for Inactive)
REMARK    1  A    between atoms: C_2  and  O_3
REMARK    2  A    between atoms: C_2  and  C_4
REMARK    3  A    between atoms: C_7  and  N_8
REMARK    4  A    between atoms: C_13  and  C_14
REMARK    5  A    between atoms: C_17  and  O_18
REMARK                            x       y       z     vdW  Elec       q    Type
REMARK                         _______ _______ _______ _____ _____    ______ ____
ROOT
ATOM      1  N   UNL     1       0.720  10.102  20.643  0.00  0.00    +0.000 N 
ATOM      2  C   UNL     1       1.317   9.045  21.286  0.00  0.00    +0.000 C 
ATOM      3  O   UNL     1       1.352   8.828  22.491  0.00  0.00    +0.000 OA
ATOM      4  O   UNL     1       1.873   8.140  20.415  0.00  0.00    +0.000 OA
ATOM      5  C   UNL     1       1.536   8.650  19.180  0.00  0.00    +0.000 C 
ATOM      6  C   UNL     1       1.980   8.141  18.019  0.00  0.00    +0.000 C 
ATOM      7  C   UNL     1       0.720   9.872  19.299  0.00  0.00    +0.000 C 
ATOM      8  O   UNL     1       0.247  10.495  18.367  0.00  0.00    +0.000 OA
ENDROOT
BRANCH   6   9
ATOM      9  C   UNL     1       2.900   6.993  17.909  0.00  0.00    +0.000 A 
ATOM     10  C   UNL     1       2.384   5.695  18.029  0.00  0.00    +0.000 A 
ATOM     11  C   UNL     1       3.215   4.577  17.890  0.00  0.00    +0.000 A 
ATOM     12  C   UNL     1       4.574   4.747  17.632  0.00  0.00    +0.000 A 
ATOM     13  C   UNL     1       5.106   6.031  17.534  0.00  0.00    +0.000 A 
ATOM     14 BR   UNL     1       6.946   6.320  17.173  0.00  0.00    +0.000 Br
ATOM     15  C   UNL     1       4.278   7.145  17.690  0.00  0.00    +0.000 A 
BRANCH  12  16
ATOM     16  O   UNL     1       5.384   3.659  17.479  0.00  0.00    +0.000 OA
ATOM     17  H   UNL     1       6.160   3.902  16.951  0.00  0.00    +0.000 HD
ENDBRANCH  12  16
ENDBRANCH   6   9
BRANCH   1  21
ATOM     18  C   UNL     1      -0.846  13.497  22.672  0.00  0.00    +0.000 A 
ATOM     19  C   UNL     1      -1.350  12.223  22.926  0.00  0.00    +0.000 A 
ATOM     20  C   UNL     1      -0.836  11.119  22.241  0.00  0.00    +0.000 A 
ATOM     21  C   UNL     1       0.203  11.251  21.301  0.00  0.00    +0.000 A 
ATOM     22  C   UNL     1       0.726  12.535  21.087  0.00  0.00    +0.000 A 
ATOM     23  C   UNL     1       0.203  13.652  21.762  0.00  0.00    +0.000 A 
BRANCH  18  25
ATOM     24  O   UNL     1      -2.294  15.357  22.971  0.00  0.00    +0.000 OA
ATOM     25  C   UNL     1      -1.427  14.633  23.427  0.00  0.00    +0.000 C 
BRANCH  25  26
ATOM     26  O   UNL     1      -0.864  14.820  24.638  0.00  0.00    +0.000 OA
ATOM     27  H   UNL     1      -0.160  15.492  24.666  0.00  0.00    +0.000 HD
ENDBRANCH  25  26
ENDBRANCH  18  25
ENDBRANCH   1  21
TORSDOF 5
ENDMDL
MODEL 8
REMARK VINA RESULT:      -7.6      7.143     10.455
REMARK  Name = 
REMARK  5 active torsions:
REMARK  status: ('A' for Active; 'I' for Inactive)
REMARK    1  A    between atoms: C_2  and  O_3
REMARK    2  A    between atoms: C_2  and  C_4
REMARK    3  A    between atoms: C_7  and  N_8
REMARK    4  A    between atoms: C_13  and  C_14
REMARK    5  A    between atoms: C_17  and  O_18
REMARK                            x       y       z     vdW  Elec       q    Type
REMARK                         _______ _______ _______ _____ _____    ______ ____
ROOT
ATOM      1  N   UNL     1       1.112   9.731  19.684  0.00  0.00    +0.000 N 
ATOM      2  C   UNL     1       1.609   9.092  18.573  0.00  0.00    +0.000 C 
ATOM      3  O   UNL     1       1.871   9.586  17.484  0.00  0.00    +0.000 OA
ATOM      4  O   UNL     1       1.867   7.762  18.798  0.00  0.00    +0.000 OA
ATOM      5  C   UNL     1       1.569   7.608  20.134  0.00  0.00    +0.000 C 
ATOM      6  C   UNL     1       1.565   6.422  20.765  0.00  0.00    +0.000 C 
ATOM      7  C   UNL     1       1.158   8.883  20.751  0.00  0.00    +0.000 C 
ATOM      8  O   UNL     1       0.888   9.040  21.927  0.00  0.00    +0.000 OA
ENDROOT
BRANCH   6   9
ATOM      9  C   UNL     1       1.854   5.131  20.112  0.00  0.00    +0.000 A 
ATOM     10  C   UNL     1       1.084   4.009  20.454  0.00  0.00    +0.000 A 
ATOM     11  C   UNL     1       1.297   2.775  19.829  0.00  0.00    +0.000 A 
ATOM     12  C   UNL     1       2.286   2.650  18.855  0.00  0.00    +0.000 A 
ATOM     13  C   UNL     1       3.075   3.748  18.521  0.00  0.00    +0.000 A 
ATOM     14 BR   UNL     1       4.427   3.635  17.196  0.00  0.00    +0.000 Br
ATOM     15  C   UNL     1       2.872   4.974  19.159  0.00  0.00    +0.000 A 
BRANCH  12  16
ATOM     16  O   UNL     1       2.484   1.451  18.231  0.00  0.00    +0.000 OA
ATOM     17  H   UNL     1       2.042   1.456  17.368  0.00  0.00    +0.000 HD
ENDBRANCH  12  16
ENDBRANCH   6   9
BRANCH   1  21
ATOM     18  C   UNL     1      -0.426  13.697  19.709  0.00  0.00    +0.000 A 
ATOM     19  C   UNL     1      -1.219  12.630  19.292  0.00  0.00    +0.000 A 
ATOM     20  C   UNL     1      -0.696  11.335  19.274  0.00  0.00    +0.000 A 
ATOM     21  C   UNL     1       0.622  11.065  19.688  0.00  0.00    +0.000 A 
ATOM     22  C   UNL     1       1.394  12.144  20.143  0.00  0.00    +0.000 A 
ATOM     23  C   UNL     1       0.878  13.452  20.149  0.00  0.00    +0.000 A 
BRANCH  18  25
ATOM     24  O   UNL     1      -1.721  15.467  20.620  0.00  0.00    +0.000 OA
ATOM     25  C   UNL     1      -1.030  15.050  19.708  0.00  0.00    +0.000 C 
BRANCH  25  26
ATOM     26  O   UNL     1      -0.790  15.747  18.579  0.00  0.00    +0.000 OA
ATOM     27  H   UNL     1      -1.418  15.584  17.852  0.00  0.00    +0.000 HD
ENDBRANCH  25  26
ENDBRANCH  18  25
ENDBRANCH   1  21
TORSDOF 5
ENDMDL
MODEL 9
REMARK VINA RESULT:      -7.5      8.056     10.128
REMARK  Name = 
REMARK  5 active torsions:
REMARK  status: ('A' for Active; 'I' for Inactive)
REMARK    1  A    between atoms: C_2  and  O_3
REMARK    2  A    between atoms: C_2  and  C_4
REMARK    3  A    between atoms: C_7  and  N_8
REMARK    4  A    between atoms: C_13  and  C_14
REMARK    5  A    between atoms: C_17  and  O_18
REMARK                            x       y       z     vdW  Elec       q    Type
REMARK                         _______ _______ _______ _____ _____    ______ ____
ROOT
ATOM      1  N   UNL     1       0.716  10.132  20.609  0.00  0.00    +0.000 N 
ATOM      2  C   UNL     1       1.256   9.047  21.254  0.00  0.00    +0.000 C 
ATOM      3  O   UNL     1       1.258   8.819  22.458  0.00  0.00    +0.000 OA
ATOM      4  O   UNL     1       1.791   8.126  20.386  0.00  0.00    +0.000 OA
ATOM      5  C   UNL     1       1.500   8.658  19.150  0.00  0.00    +0.000 C 
ATOM      6  C   UNL     1       1.945   8.141  17.993  0.00  0.00    +0.000 C 
ATOM      7  C   UNL     1       0.733   9.913  19.263  0.00  0.00    +0.000 C 
ATOM      8  O   UNL     1       0.305  10.562  18.327  0.00  0.00    +0.000 OA
ENDROOT
BRANCH   6   9
ATOM      9  C   UNL     1       2.819   6.957  17.892  0.00  0.00    +0.000 A 
ATOM     10  C   UNL     1       4.178   7.138  17.596  0.00  0.00    +0.000 A 
ATOM     11  C   UNL     1       5.051   6.045  17.531  0.00  0.00    +0.000 A 
ATOM     12  C   UNL     1       4.571   4.757  17.761  0.00  0.00    +0.000 A 
ATOM     13  C   UNL     1       3.219   4.557  18.032  0.00  0.00    +0.000 A 
ATOM     14 BR   UNL     1       2.516   2.827  18.362  0.00  0.00    +0.000 Br
ATOM     15  C   UNL     1       2.347   5.648  18.079  0.00  0.00    +0.000 A 
BRANCH  12  16
ATOM     16  O   UNL     1       5.423   3.691  17.715  0.00  0.00    +0.000 OA
ATOM     17  H   UNL     1       4.916   2.876  17.573  0.00  0.00    +0.000 HD
ENDBRANCH  12  16
ENDBRANCH   6   9
BRANCH   1  21
ATOM     18  C   UNL     1      -0.749  13.573  22.636  0.00  0.00    +0.000 A 
ATOM     19  C   UNL     1      -1.300  12.317  22.879  0.00  0.00    +0.000 A 
ATOM     20  C   UNL     1      -0.819  11.198  22.195  0.00  0.00    +0.000 A 
ATOM     21  C   UNL     1       0.233  11.297  21.266  0.00  0.00    +0.000 A 
ATOM     22  C   UNL     1       0.804  12.562  21.062  0.00  0.00    +0.000 A 
ATOM     23  C   UNL     1       0.315  13.694  21.737  0.00  0.00    +0.000 A 
BRANCH  18  25
ATOM     24  O   UNL     1      -2.080  15.523  22.904  0.00  0.00    +0.000 OA
ATOM     25  C   UNL     1      -1.296  14.727  23.389  0.00  0.00    +0.000 C 
BRANCH  25  26
ATOM     26  O   UNL     1      -0.799  14.840  24.638  0.00  0.00    +0.000 OA
ATOM     27  H   UNL     1      -1.257  15.485  25.206  0.00  0.00    +0.000 HD
ENDBRANCH  25  26
ENDBRANCH  18  25
ENDBRANCH   1  21
TORSDOF 5
ENDMDL
