MODEL 1
REMARK VINA RESULT:      -5.6      0.000      0.000
REMARK  Name = 
REMARK  28 active torsions:
REMARK  status: ('A' for Active; 'I' for Inactive)
REMARK    1  A    between atoms: C_1  and  C_2
REMARK    2  A    between atoms: C_2  and  C_3
REMARK    3  A    between atoms: C_3  and  C_4
REMARK    4  A    between atoms: C_4  and  C_5
REMARK    5  A    between atoms: C_5  and  C_6
REMARK    6  A    between atoms: C_6  and  C_7
REMARK    7  A    between atoms: C_7  and  C_8
REMARK    8  A    between atoms: C_8  and  C_9
REMARK    9  A    between atoms: C_9  and  C_10
REMARK   10  A    between atoms: C_10  and  C_11
REMARK   11  A    between atoms: C_11  and  C_12
REMARK   12  A    between atoms: C_12  and  O_13
REMARK   13  A    between atoms: O_13  and  C_14
REMARK   14  A    between atoms: C_14  and  C_16
REMARK   15  A    between atoms: C_16  and  C_17
REMARK   16  A    between atoms: C_17  and  C_18
REMARK   17  A    between atoms: C_18  and  C_19
REMARK   18  A    between atoms: C_19  and  C_20
REMARK   19  A    between atoms: C_20  and  N_21
REMARK   20  A    between atoms: C_22  and  O_24
REMARK   21  A    between atoms: O_24  and  C_25
REMARK   22  A    between atoms: C_25  and  C_26
REMARK   23  A    between atoms: C_26  and  C_27
REMARK   24  A    between atoms: C_27  and  C_28
REMARK   25  A    between atoms: C_28  and  C_29
REMARK   26  A    between atoms: C_29  and  C_30
REMARK   27  A    between atoms: C_30  and  C_31
REMARK   28  A    between atoms: C_31  and  C_32
REMARK                            x       y       z     vdW  Elec       q    Type
REMARK                         _______ _______ _______ _____ _____    ______ ____
ROOT
ATOM      1  C   UNL     1       7.475   6.636  17.355  0.00  0.00    +0.000 C 
ENDROOT
BRANCH   1   2
ATOM      2  C   UNL     1       6.134   6.138  17.900  0.00  0.00    +0.000 C 
BRANCH   2   3
ATOM      3  C   UNL     1       6.319   5.146  19.027  0.00  0.00    +0.000 C 
ATOM      4  O   UNL     1       7.103   5.260  19.957  0.00  0.00    +0.000 OA
BRANCH   3   5
ATOM      5  O   UNL     1       5.575   4.031  18.766  0.00  0.00    +0.000 OA
BRANCH   5   6
ATOM      6  C   UNL     1       4.696   3.668  19.834  0.00  0.00    +0.000 C 
BRANCH   6   7
ATOM      7  C   UNL     1       4.145   2.256  19.695  0.00  0.00    +0.000 C 
BRANCH   7   8
ATOM      8  C   UNL     1       3.713   2.023  18.244  0.00  0.00    +0.000 C 
BRANCH   8   9
ATOM      9  C   UNL     1       2.239   2.343  18.023  0.00  0.00    +0.000 C 
BRANCH   9  10
ATOM     10  C   UNL     1       2.079   3.632  17.217  0.00  0.00    +0.000 C 
BRANCH  10  11
ATOM     11  C   UNL     1       1.792   4.815  18.136  0.00  0.00    +0.000 C 
BRANCH  11  12
ATOM     12  C   UNL     1       2.754   5.965  17.862  0.00  0.00    +0.000 C 
BRANCH  12  13
ATOM     13  C   UNL     1       2.409   7.175  18.734  0.00  0.00    +0.000 C 
BRANCH  13  14
ATOM     14  C   UNL     1       2.540   8.473  17.944  0.00  0.00    +0.000 C 
BRANCH  14  15
ATOM     15  C   UNL     1       1.198   9.195  17.858  0.00  0.00    +0.000 C 
BRANCH  15  17
ATOM     16  C   UNL     1      -0.192  11.089  18.741  0.00  0.00    +0.000 C 
ATOM     17  C   UNL     1       1.147  10.376  18.823  0.00  0.00    +0.000 C 
ENDBRANCH  15  17
ENDBRANCH  14  15
ENDBRANCH  13  14
ENDBRANCH  12  13
ENDBRANCH  11  12
ENDBRANCH  10  11
ENDBRANCH   9  10
ENDBRANCH   8   9
ENDBRANCH   7   8
ENDBRANCH   6   7
ENDBRANCH   5   6
ENDBRANCH   3   5
ENDBRANCH   2   3
ENDBRANCH   1   2
BRANCH   1  18
ATOM     18  C   UNL     1       8.127   7.666  18.285  0.00  0.00    +0.000 C 
BRANCH  18  19
ATOM     19  C   UNL     1       7.976   9.098  17.750  0.00  0.00    +0.000 C 
BRANCH  19  20
ATOM     20  C   UNL     1       9.059  10.020  18.320  0.00  0.00    +0.000 C 
BRANCH  20  21
ATOM     21  N   UNL     1       8.748  11.426  18.167  0.00  0.00    +0.000 N 
ATOM     22  C   UNL     1       9.678  12.371  17.858  0.00  0.00    +0.000 C 
ATOM     23  O   UNL     1      10.861  12.162  17.621  0.00  0.00    +0.000 OA
ATOM     24  H   UNL     1       7.863  11.784  18.494  0.00  0.00    +0.000 HD
BRANCH  22  25
ATOM     25  O   UNL     1       9.115  13.599  17.980  0.00  0.00    +0.000 OA
BRANCH  25  26
ATOM     26  C   UNL     1       8.880  14.005  19.334  0.00  0.00    +0.000 C 
BRANCH  26  27
ATOM     27  C   UNL     1      10.063  14.715  19.986  0.00  0.00    +0.000 C 
BRANCH  27  28
ATOM     28  C   UNL     1      10.194  14.258  21.443  0.00  0.00    +0.000 C 
BRANCH  28  29
ATOM     29  C   UNL     1       8.852  13.889  22.073  0.00  0.00    +0.000 C 
BRANCH  29  30
ATOM     30  C   UNL     1       8.964  12.618  22.925  0.00  0.00    +0.000 C 
BRANCH  30  31
ATOM     31  C   UNL     1       7.728  11.729  22.758  0.00  0.00    +0.000 C 
BRANCH  31  32
ATOM     32  C   UNL     1       6.509  12.313  23.472  0.00  0.00    +0.000 C 
ATOM     33  C   UNL     1       6.123  11.478  24.683  0.00  0.00    +0.000 C 
ENDBRANCH  31  32
ENDBRANCH  30  31
ENDBRANCH  29  30
ENDBRANCH  28  29
ENDBRANCH  27  28
ENDBRANCH  26  27
ENDBRANCH  25  26
ENDBRANCH  22  25
ENDBRANCH  20  21
ENDBRANCH  19  20
ENDBRANCH  18  19
ENDBRANCH   1  18
TORSDOF 26
ENDMDL
MODEL 2
REMARK VINA RESULT:      -5.5      4.795      7.148
REMARK  Name = 
REMARK  28 active torsions:
REMARK  status: ('A' for Active; 'I' for Inactive)
REMARK    1  A    between atoms: C_1  and  C_2
REMARK    2  A    between atoms: C_2  and  C_3
REMARK    3  A    between atoms: C_3  and  C_4
REMARK    4  A    between atoms: C_4  and  C_5
REMARK    5  A    between atoms: C_5  and  C_6
REMARK    6  A    between atoms: C_6  and  C_7
REMARK    7  A    between atoms: C_7  and  C_8
REMARK    8  A    between atoms: C_8  and  C_9
REMARK    9  A    between atoms: C_9  and  C_10
REMARK   10  A    between atoms: C_10  and  C_11
REMARK   11  A    between atoms: C_11  and  C_12
REMARK   12  A    between atoms: C_12  and  O_13
REMARK   13  A    between atoms: O_13  and  C_14
REMARK   14  A    between atoms: C_14  and  C_16
REMARK   15  A    between atoms: C_16  and  C_17
REMARK   16  A    between atoms: C_17  and  C_18
REMARK   17  A    between atoms: C_18  and  C_19
REMARK   18  A    between atoms: C_19  and  C_20
REMARK   19  A    between atoms: C_20  and  N_21
REMARK   20  A    between atoms: C_22  and  O_24
REMARK   21  A    between atoms: O_24  and  C_25
REMARK   22  A    between atoms: C_25  and  C_26
REMARK   23  A    between atoms: C_26  and  C_27
REMARK   24  A    between atoms: C_27  and  C_28
REMARK   25  A    between atoms: C_28  and  C_29
REMARK   26  A    between atoms: C_29  and  C_30
REMARK   27  A    between atoms: C_30  and  C_31
REMARK   28  A    between atoms: C_31  and  C_32
REMARK                            x       y       z     vdW  Elec       q    Type
REMARK                         _______ _______ _______ _____ _____    ______ ____
ROOT
ATOM      1  C   UNL     1       1.179   6.173  20.806  0.00  0.00    +0.000 C 
ENDROOT
BRANCH   1   2
ATOM      2  C   UNL     1       2.255   5.138  21.144  0.00  0.00    +0.000 C 
BRANCH   2   3
ATOM      3  C   UNL     1       1.679   3.743  21.256  0.00  0.00    +0.000 C 
ATOM      4  O   UNL     1       2.193   2.803  21.842  0.00  0.00    +0.000 OA
BRANCH   3   5
ATOM      5  O   UNL     1       0.562   3.658  20.474  0.00  0.00    +0.000 OA
BRANCH   5   6
ATOM      6  C   UNL     1       0.647   2.648  19.465  0.00  0.00    +0.000 C 
BRANCH   6   7
ATOM      7  C   UNL     1       1.442   3.094  18.245  0.00  0.00    +0.000 C 
BRANCH   7   8
ATOM      8  C   UNL     1       2.374   1.960  17.808  0.00  0.00    +0.000 C 
BRANCH   8   9
ATOM      9  C   UNL     1       3.749   2.063  18.456  0.00  0.00    +0.000 C 
BRANCH   9  10
ATOM     10  C   UNL     1       4.513   3.273  17.919  0.00  0.00    +0.000 C 
BRANCH  10  11
ATOM     11  C   UNL     1       5.234   4.004  19.047  0.00  0.00    +0.000 C 
BRANCH  11  12
ATOM     12  C   UNL     1       4.775   5.454  19.139  0.00  0.00    +0.000 C 
BRANCH  12  13
ATOM     13  C   UNL     1       3.999   5.855  17.883  0.00  0.00    +0.000 C 
BRANCH  13  14
ATOM     14  C   UNL     1       4.819   6.801  17.012  0.00  0.00    +0.000 C 
BRANCH  14  15
ATOM     15  C   UNL     1       5.550   6.033  15.913  0.00  0.00    +0.000 C 
BRANCH  15  17
ATOM     16  C   UNL     1       7.468   6.833  17.321  0.00  0.00    +0.000 C 
ATOM     17  C   UNL     1       7.019   5.831  16.270  0.00  0.00    +0.000 C 
ENDBRANCH  15  17
ENDBRANCH  14  15
ENDBRANCH  13  14
ENDBRANCH  12  13
ENDBRANCH  11  12
ENDBRANCH  10  11
ENDBRANCH   9  10
ENDBRANCH   8   9
ENDBRANCH   7   8
ENDBRANCH   6   7
ENDBRANCH   5   6
ENDBRANCH   3   5
ENDBRANCH   2   3
ENDBRANCH   1   2
BRANCH   1  18
ATOM     18  C   UNL     1       1.784   7.540  20.466  0.00  0.00    +0.000 C 
BRANCH  18  19
ATOM     19  C   UNL     1       1.143   8.671  21.285  0.00  0.00    +0.000 C 
BRANCH  19  20
ATOM     20  C   UNL     1       0.069   9.403  20.473  0.00  0.00    +0.000 C 
BRANCH  20  21
ATOM     21  N   UNL     1       0.390  10.794  20.229  0.00  0.00    +0.000 N 
ATOM     22  C   UNL     1       1.158  11.216  19.187  0.00  0.00    +0.000 C 
ATOM     23  O   UNL     1       1.625  10.504  18.307  0.00  0.00    +0.000 OA
ATOM     24  H   UNL     1       0.228  11.481  20.951  0.00  0.00    +0.000 HD
BRANCH  22  25
ATOM     25  O   UNL     1       1.433  12.534  19.348  0.00  0.00    +0.000 OA
BRANCH  25  26
ATOM     26  C   UNL     1       2.621  12.972  18.676  0.00  0.00    +0.000 C 
BRANCH  26  27
ATOM     27  C   UNL     1       3.036  14.402  19.014  0.00  0.00    +0.000 C 
BRANCH  27  28
ATOM     28  C   UNL     1       1.854  15.347  18.771  0.00  0.00    +0.000 C 
BRANCH  28  29
ATOM     29  C   UNL     1       2.256  16.628  18.041  0.00  0.00    +0.000 C 
BRANCH  29  30
ATOM     30  C   UNL     1       1.314  17.789  18.385  0.00  0.00    +0.000 C 
BRANCH  30  31
ATOM     31  C   UNL     1       0.334  18.064  17.242  0.00  0.00    +0.000 C 
BRANCH  31  32
ATOM     32  C   UNL     1      -0.994  18.621  17.755  0.00  0.00    +0.000 C 
ATOM     33  C   UNL     1      -1.651  17.667  18.740  0.00  0.00    +0.000 C 
ENDBRANCH  31  32
ENDBRANCH  30  31
ENDBRANCH  29  30
ENDBRANCH  28  29
ENDBRANCH  27  28
ENDBRANCH  26  27
ENDBRANCH  25  26
ENDBRANCH  22  25
ENDBRANCH  20  21
ENDBRANCH  19  20
ENDBRANCH  18  19
ENDBRANCH   1  18
TORSDOF 26
ENDMDL
MODEL 3
REMARK VINA RESULT:      -5.5      6.204     10.181
REMARK  Name = 
REMARK  28 active torsions:
REMARK  status: ('A' for Active; 'I' for Inactive)
REMARK    1  A    between atoms: C_1  and  C_2
REMARK    2  A    between atoms: C_2  and  C_3
REMARK    3  A    between atoms: C_3  and  C_4
REMARK    4  A    between atoms: C_4  and  C_5
REMARK    5  A    between atoms: C_5  and  C_6
REMARK    6  A    between atoms: C_6  and  C_7
REMARK    7  A    between atoms: C_7  and  C_8
REMARK    8  A    between atoms: C_8  and  C_9
REMARK    9  A    between atoms: C_9  and  C_10
REMARK   10  A    between atoms: C_10  and  C_11
REMARK   11  A    between atoms: C_11  and  C_12
REMARK   12  A    between atoms: C_12  and  O_13
REMARK   13  A    between atoms: O_13  and  C_14
REMARK   14  A    between atoms: C_14  and  C_16
REMARK   15  A    between atoms: C_16  and  C_17
REMARK   16  A    between atoms: C_17  and  C_18
REMARK   17  A    between atoms: C_18  and  C_19
REMARK   18  A    between atoms: C_19  and  C_20
REMARK   19  A    between atoms: C_20  and  N_21
REMARK   20  A    between atoms: C_22  and  O_24
REMARK   21  A    between atoms: O_24  and  C_25
REMARK   22  A    between atoms: C_25  and  C_26
REMARK   23  A    between atoms: C_26  and  C_27
REMARK   24  A    between atoms: C_27  and  C_28
REMARK   25  A    between atoms: C_28  and  C_29
REMARK   26  A    between atoms: C_29  and  C_30
REMARK   27  A    between atoms: C_30  and  C_31
REMARK   28  A    between atoms: C_31  and  C_32
REMARK                            x       y       z     vdW  Elec       q    Type
REMARK                         _______ _______ _______ _____ _____    ______ ____
ROOT
ATOM      1  C   UNL     1       1.836   7.876  19.853  0.00  0.00    +0.000 C 
ENDROOT
BRANCH   1   2
ATOM      2  C   UNL     1       1.539   8.173  21.325  0.00  0.00    +0.000 C 
BRANCH   2   3
ATOM      3  C   UNL     1       0.119   8.655  21.526  0.00  0.00    +0.000 C 
ATOM      4  O   UNL     1      -0.889   7.972  21.416  0.00  0.00    +0.000 OA
BRANCH   3   5
ATOM      5  O   UNL     1       0.128  10.008  21.706  0.00  0.00    +0.000 OA
BRANCH   5   6
ATOM      6  C   UNL     1      -0.454  10.424  22.945  0.00  0.00    +0.000 C 
BRANCH   6   7
ATOM      7  C   UNL     1      -1.619  11.386  22.759  0.00  0.00    +0.000 C 
BRANCH   7   8
ATOM      8  C   UNL     1      -1.143  12.814  23.039  0.00  0.00    +0.000 C 
BRANCH   8   9
ATOM      9  C   UNL     1      -0.251  13.353  21.927  0.00  0.00    +0.000 C 
BRANCH   9  10
ATOM     10  C   UNL     1      -1.060  14.200  20.945  0.00  0.00    +0.000 C 
BRANCH  10  11
ATOM     11  C   UNL     1      -0.829  13.735  19.511  0.00  0.00    +0.000 C 
BRANCH  11  12
ATOM     12  C   UNL     1      -0.945  12.219  19.402  0.00  0.00    +0.000 C 
BRANCH  12  13
ATOM     13  C   UNL     1      -1.419  11.814  18.004  0.00  0.00    +0.000 C 
BRANCH  13  14
ATOM     14  C   UNL     1      -2.903  11.462  18.011  0.00  0.00    +0.000 C 
BRANCH  14  15
ATOM     15  C   UNL     1      -3.124  10.030  17.529  0.00  0.00    +0.000 C 
BRANCH  15  17
ATOM     16  C   UNL     1      -3.242  10.703  15.114  0.00  0.00    +0.000 C 
ATOM     17  C   UNL     1      -2.540   9.823  16.136  0.00  0.00    +0.000 C 
ENDBRANCH  15  17
ENDBRANCH  14  15
ENDBRANCH  13  14
ENDBRANCH  12  13
ENDBRANCH  11  12
ENDBRANCH  10  11
ENDBRANCH   9  10
ENDBRANCH   8   9
ENDBRANCH   7   8
ENDBRANCH   6   7
ENDBRANCH   5   6
ENDBRANCH   3   5
ENDBRANCH   2   3
ENDBRANCH   1   2
BRANCH   1  18
ATOM     18  C   UNL     1       1.904   6.370  19.573  0.00  0.00    +0.000 C 
BRANCH  18  19
ATOM     19  C   UNL     1       1.997   5.550  20.869  0.00  0.00    +0.000 C 
BRANCH  19  20
ATOM     20  C   UNL     1       1.345   4.173  20.701  0.00  0.00    +0.000 C 
BRANCH  20  21
ATOM     21  N   UNL     1       1.456   3.651  19.355  0.00  0.00    +0.000 N 
ATOM     22  C   UNL     1       2.345   2.684  18.995  0.00  0.00    +0.000 C 
ATOM     23  O   UNL     1       3.113   2.100  19.749  0.00  0.00    +0.000 OA
ATOM     24  H   UNL     1       1.019   4.141  18.588  0.00  0.00    +0.000 HD
BRANCH  22  25
ATOM     25  O   UNL     1       2.336   2.559  17.645  0.00  0.00    +0.000 OA
BRANCH  25  26
ATOM     26  C   UNL     1       2.819   3.712  16.945  0.00  0.00    +0.000 C 
BRANCH  26  27
ATOM     27  C   UNL     1       4.337   3.872  16.982  0.00  0.00    +0.000 C 
BRANCH  27  28
ATOM     28  C   UNL     1       4.706   5.321  16.645  0.00  0.00    +0.000 C 
BRANCH  28  29
ATOM     29  C   UNL     1       5.601   5.436  15.412  0.00  0.00    +0.000 C 
BRANCH  29  30
ATOM     30  C   UNL     1       5.668   4.110  14.642  0.00  0.00    +0.000 C 
BRANCH  30  31
ATOM     31  C   UNL     1       6.435   4.272  13.327  0.00  0.00    +0.000 C 
BRANCH  31  32
ATOM     32  C   UNL     1       6.068   3.183  12.319  0.00  0.00    +0.000 C 
ATOM     33  C   UNL     1       4.669   3.392  11.761  0.00  0.00    +0.000 C 
ENDBRANCH  31  32
ENDBRANCH  30  31
ENDBRANCH  29  30
ENDBRANCH  28  29
ENDBRANCH  27  28
ENDBRANCH  26  27
ENDBRANCH  25  26
ENDBRANCH  22  25
ENDBRANCH  20  21
ENDBRANCH  19  20
ENDBRANCH  18  19
ENDBRANCH   1  18
TORSDOF 26
ENDMDL
MODEL 4
REMARK VINA RESULT:      -5.5      3.291      9.454
REMARK  Name = 
REMARK  28 active torsions:
REMARK  status: ('A' for Active; 'I' for Inactive)
REMARK    1  A    between atoms: C_1  and  C_2
REMARK    2  A    between atoms: C_2  and  C_3
REMARK    3  A    between atoms: C_3  and  C_4
REMARK    4  A    between atoms: C_4  and  C_5
REMARK    5  A    between atoms: C_5  and  C_6
REMARK    6  A    between atoms: C_6  and  C_7
REMARK    7  A    between atoms: C_7  and  C_8
REMARK    8  A    between atoms: C_8  and  C_9
REMARK    9  A    between atoms: C_9  and  C_10
REMARK   10  A    between atoms: C_10  and  C_11
REMARK   11  A    between atoms: C_11  and  C_12
REMARK   12  A    between atoms: C_12  and  O_13
REMARK   13  A    between atoms: O_13  and  C_14
REMARK   14  A    between atoms: C_14  and  C_16
REMARK   15  A    between atoms: C_16  and  C_17
REMARK   16  A    between atoms: C_17  and  C_18
REMARK   17  A    between atoms: C_18  and  C_19
REMARK   18  A    between atoms: C_19  and  C_20
REMARK   19  A    between atoms: C_20  and  N_21
REMARK   20  A    between atoms: C_22  and  O_24
REMARK   21  A    between atoms: O_24  and  C_25
REMARK   22  A    between atoms: C_25  and  C_26
REMARK   23  A    between atoms: C_26  and  C_27
REMARK   24  A    between atoms: C_27  and  C_28
REMARK   25  A    between atoms: C_28  and  C_29
REMARK   26  A    between atoms: C_29  and  C_30
REMARK   27  A    between atoms: C_30  and  C_31
REMARK   28  A    between atoms: C_31  and  C_32
REMARK                            x       y       z     vdW  Elec       q    Type
REMARK                         _______ _______ _______ _____ _____    ______ ____
ROOT
ATOM      1  C   UNL     1       5.335   5.624  18.827  0.00  0.00    +0.000 C 
ENDROOT
BRANCH   1   2
ATOM      2  C   UNL     1       6.691   4.994  18.499  0.00  0.00    +0.000 C 
BRANCH   2   3
ATOM      3  C   UNL     1       7.813   5.630  19.290  0.00  0.00    +0.000 C 
ATOM      4  O   UNL     1       8.602   5.039  20.011  0.00  0.00    +0.000 OA
BRANCH   3   5
ATOM      5  O   UNL     1       7.715   6.988  19.188  0.00  0.00    +0.000 OA
BRANCH   5   6
ATOM      6  C   UNL     1       8.184   7.503  17.939  0.00  0.00    +0.000 C 
BRANCH   6   7
ATOM      7  C   UNL     1       7.439   8.753  17.495  0.00  0.00    +0.000 C 
BRANCH   7   8
ATOM      8  C   UNL     1       8.215   9.992  17.950  0.00  0.00    +0.000 C 
BRANCH   8   9
ATOM      9  C   UNL     1       9.189   9.679  19.079  0.00  0.00    +0.000 C 
BRANCH   9  10
ATOM     10  C   UNL     1       9.712  10.966  19.716  0.00  0.00    +0.000 C 
BRANCH  10  11
ATOM     11  C   UNL     1      10.920  11.498  18.952  0.00  0.00    +0.000 C 
BRANCH  11  12
ATOM     12  C   UNL     1      11.796  12.365  19.850  0.00  0.00    +0.000 C 
BRANCH  12  13
ATOM     13  C   UNL     1      10.965  13.468  20.510  0.00  0.00    +0.000 C 
BRANCH  13  14
ATOM     14  C   UNL     1      10.964  14.735  19.661  0.00  0.00    +0.000 C 
BRANCH  14  15
ATOM     15  C   UNL     1       9.538  15.158  19.315  0.00  0.00    +0.000 C 
BRANCH  15  17
ATOM     16  C   UNL     1       7.980  13.751  17.939  0.00  0.00    +0.000 C 
ATOM     17  C   UNL     1       9.159  14.710  17.908  0.00  0.00    +0.000 C 
ENDBRANCH  15  17
ENDBRANCH  14  15
ENDBRANCH  13  14
ENDBRANCH  12  13
ENDBRANCH  11  12
ENDBRANCH  10  11
ENDBRANCH   9  10
ENDBRANCH   8   9
ENDBRANCH   7   8
ENDBRANCH   6   7
ENDBRANCH   5   6
ENDBRANCH   3   5
ENDBRANCH   2   3
ENDBRANCH   1   2
BRANCH   1  18
ATOM     18  C   UNL     1       4.566   6.021  17.562  0.00  0.00    +0.000 C 
BRANCH  18  19
ATOM     19  C   UNL     1       4.997   5.191  16.343  0.00  0.00    +0.000 C 
BRANCH  19  20
ATOM     20  C   UNL     1       4.524   3.738  16.467  0.00  0.00    +0.000 C 
BRANCH  20  21
ATOM     21  N   UNL     1       3.204   3.617  17.052  0.00  0.00    +0.000 N 
ATOM     22  C   UNL     1       2.767   2.501  17.697  0.00  0.00    +0.000 C 
ATOM     23  O   UNL     1       3.430   1.494  17.914  0.00  0.00    +0.000 OA
ATOM     24  H   UNL     1       2.486   4.285  16.813  0.00  0.00    +0.000 HD
BRANCH  22  25
ATOM     25  O   UNL     1       1.441   2.628  17.950  0.00  0.00    +0.000 OA
BRANCH  25  26
ATOM     26  C   UNL     1       1.069   2.320  19.299  0.00  0.00    +0.000 C 
BRANCH  26  27
ATOM     27  C   UNL     1       0.685   3.539  20.133  0.00  0.00    +0.000 C 
BRANCH  27  28
ATOM     28  C   UNL     1       1.819   3.864  21.113  0.00  0.00    +0.000 C 
BRANCH  28  29
ATOM     29  C   UNL     1       2.504   5.196  20.809  0.00  0.00    +0.000 C 
BRANCH  29  30
ATOM     30  C   UNL     1       1.481   6.288  20.468  0.00  0.00    +0.000 C 
BRANCH  30  31
ATOM     31  C   UNL     1       2.174   7.561  19.975  0.00  0.00    +0.000 C 
BRANCH  31  32
ATOM     32  C   UNL     1       1.458   8.165  18.768  0.00  0.00    +0.000 C 
ATOM     33  C   UNL     1       2.435   8.871  17.840  0.00  0.00    +0.000 C 
ENDBRANCH  31  32
ENDBRANCH  30  31
ENDBRANCH  29  30
ENDBRANCH  28  29
ENDBRANCH  27  28
ENDBRANCH  26  27
ENDBRANCH  25  26
ENDBRANCH  22  25
ENDBRANCH  20  21
ENDBRANCH  19  20
ENDBRANCH  18  19
ENDBRANCH   1  18
TORSDOF 26
ENDMDL
MODEL 5
REMARK VINA RESULT:      -5.5      4.541      8.669
REMARK  Name = 
REMARK  28 active torsions:
REMARK  status: ('A' for Active; 'I' for Inactive)
REMARK    1  A    between atoms: C_1  and  C_2
REMARK    2  A    between atoms: C_2  and  C_3
REMARK    3  A    between atoms: C_3  and  C_4
REMARK    4  A    between atoms: C_4  and  C_5
REMARK    5  A    between atoms: C_5  and  C_6
REMARK    6  A    between atoms: C_6  and  C_7
REMARK    7  A    between atoms: C_7  and  C_8
REMARK    8  A    between atoms: C_8  and  C_9
REMARK    9  A    between atoms: C_9  and  C_10
REMARK   10  A    between atoms: C_10  and  C_11
REMARK   11  A    between atoms: C_11  and  C_12
REMARK   12  A    between atoms: C_12  and  O_13
REMARK   13  A    between atoms: O_13  and  C_14
REMARK   14  A    between atoms: C_14  and  C_16
REMARK   15  A    between atoms: C_16  and  C_17
REMARK   16  A    between atoms: C_17  and  C_18
REMARK   17  A    between atoms: C_18  and  C_19
REMARK   18  A    between atoms: C_19  and  C_20
REMARK   19  A    between atoms: C_20  and  N_21
REMARK   20  A    between atoms: C_22  and  O_24
REMARK   21  A    between atoms: O_24  and  C_25
REMARK   22  A    between atoms: C_25  and  C_26
REMARK   23  A    between atoms: C_26  and  C_27
REMARK   24  A    between atoms: C_27  and  C_28
REMARK   25  A    between atoms: C_28  and  C_29
REMARK   26  A    between atoms: C_29  and  C_30
REMARK   27  A    between atoms: C_30  and  C_31
REMARK   28  A    between atoms: C_31  and  C_32
REMARK                            x       y       z     vdW  Elec       q    Type
REMARK                         _______ _______ _______ _____ _____    ______ ____
ROOT
ATOM      1  C   UNL     1       3.145   7.364  18.142  0.00  0.00    +0.000 C 
ENDROOT
BRANCH   1   2
ATOM      2  C   UNL     1       2.515   8.658  17.623  0.00  0.00    +0.000 C 
BRANCH   2   3
ATOM      3  C   UNL     1       1.353   9.103  18.485  0.00  0.00    +0.000 C 
ATOM      4  O   UNL     1       0.456   9.858  18.140  0.00  0.00    +0.000 OA
BRANCH   3   5
ATOM      5  O   UNL     1       1.541   8.645  19.758  0.00  0.00    +0.000 OA
BRANCH   5   6
ATOM      6  C   UNL     1       0.656   9.235  20.714  0.00  0.00    +0.000 C 
BRANCH   6   7
ATOM      7  C   UNL     1       1.098   9.006  22.152  0.00  0.00    +0.000 C 
BRANCH   7   8
ATOM      8  C   UNL     1       0.090   9.662  23.100  0.00  0.00    +0.000 C 
BRANCH   8   9
ATOM      9  C   UNL     1      -0.961  10.473  22.353  0.00  0.00    +0.000 C 
BRANCH   9  10
ATOM     10  C   UNL     1      -0.720  11.971  22.532  0.00  0.00    +0.000 C 
BRANCH  10  11
ATOM     11  C   UNL     1      -0.468  12.645  21.187  0.00  0.00    +0.000 C 
BRANCH  11  12
ATOM     12  C   UNL     1       1.018  12.910  20.977  0.00  0.00    +0.000 C 
BRANCH  12  13
ATOM     13  C   UNL     1       1.331  13.077  19.489  0.00  0.00    +0.000 C 
BRANCH  13  14
ATOM     14  C   UNL     1       0.679  14.338  18.931  0.00  0.00    +0.000 C 
BRANCH  14  15
ATOM     15  C   UNL     1       1.599  15.545  19.099  0.00  0.00    +0.000 C 
BRANCH  15  17
ATOM     16  C   UNL     1       3.499  15.498  17.460  0.00  0.00    +0.000 C 
ATOM     17  C   UNL     1       3.057  15.160  18.874  0.00  0.00    +0.000 C 
ENDBRANCH  15  17
ENDBRANCH  14  15
ENDBRANCH  13  14
ENDBRANCH  12  13
ENDBRANCH  11  12
ENDBRANCH  10  11
ENDBRANCH   9  10
ENDBRANCH   8   9
ENDBRANCH   7   8
ENDBRANCH   6   7
ENDBRANCH   5   6
ENDBRANCH   3   5
ENDBRANCH   2   3
ENDBRANCH   1   2
BRANCH   1  18
ATOM     18  C   UNL     1       4.096   6.736  17.116  0.00  0.00    +0.000 C 
BRANCH  18  19
ATOM     19  C   UNL     1       5.310   7.634  16.835  0.00  0.00    +0.000 C 
BRANCH  19  20
ATOM     20  C   UNL     1       6.592   7.031  17.418  0.00  0.00    +0.000 C 
BRANCH  20  21
ATOM     21  N   UNL     1       6.342   5.933  18.328  0.00  0.00    +0.000 N 
ATOM     22  C   UNL     1       6.572   4.628  18.013  0.00  0.00    +0.000 C 
ATOM     23  O   UNL     1       7.060   4.219  16.967  0.00  0.00    +0.000 OA
ATOM     24  H   UNL     1       5.785   6.083  19.157  0.00  0.00    +0.000 HD
BRANCH  22  25
ATOM     25  O   UNL     1       6.056   3.841  18.990  0.00  0.00    +0.000 OA
BRANCH  25  26
ATOM     26  C   UNL     1       4.627   3.737  18.966  0.00  0.00    +0.000 C 
BRANCH  26  27
ATOM     27  C   UNL     1       4.098   2.660  18.023  0.00  0.00    +0.000 C 
BRANCH  27  28
ATOM     28  C   UNL     1       3.034   3.266  17.102  0.00  0.00    +0.000 C 
BRANCH  28  29
ATOM     29  C   UNL     1       1.807   3.771  17.860  0.00  0.00    +0.000 C 
BRANCH  29  30
ATOM     30  C   UNL     1       1.041   2.617  18.519  0.00  0.00    +0.000 C 
BRANCH  30  31
ATOM     31  C   UNL     1       1.068   2.733  20.045  0.00  0.00    +0.000 C 
BRANCH  31  32
ATOM     32  C   UNL     1       0.943   4.185  20.505  0.00  0.00    +0.000 C 
ATOM     33  C   UNL     1       2.204   4.652  21.216  0.00  0.00    +0.000 C 
ENDBRANCH  31  32
ENDBRANCH  30  31
ENDBRANCH  29  30
ENDBRANCH  28  29
ENDBRANCH  27  28
ENDBRANCH  26  27
ENDBRANCH  25  26
ENDBRANCH  22  25
ENDBRANCH  20  21
ENDBRANCH  19  20
ENDBRANCH  18  19
ENDBRANCH   1  18
TORSDOF 26
ENDMDL
MODEL 6
REMARK VINA RESULT:      -5.5      5.032      8.694
REMARK  Name = 
REMARK  28 active torsions:
REMARK  status: ('A' for Active; 'I' for Inactive)
REMARK    1  A    between atoms: C_1  and  C_2
REMARK    2  A    between atoms: C_2  and  C_3
REMARK    3  A    between atoms: C_3  and  C_4
REMARK    4  A    between atoms: C_4  and  C_5
REMARK    5  A    between atoms: C_5  and  C_6
REMARK    6  A    between atoms: C_6  and  C_7
REMARK    7  A    between atoms: C_7  and  C_8
REMARK    8  A    between atoms: C_8  and  C_9
REMARK    9  A    between atoms: C_9  and  C_10
REMARK   10  A    between atoms: C_10  and  C_11
REMARK   11  A    between atoms: C_11  and  C_12
REMARK   12  A    between atoms: C_12  and  O_13
REMARK   13  A    between atoms: O_13  and  C_14
REMARK   14  A    between atoms: C_14  and  C_16
REMARK   15  A    between atoms: C_16  and  C_17
REMARK   16  A    between atoms: C_17  and  C_18
REMARK   17  A    between atoms: C_18  and  C_19
REMARK   18  A    between atoms: C_19  and  C_20
REMARK   19  A    between atoms: C_20  and  N_21
REMARK   20  A    between atoms: C_22  and  O_24
REMARK   21  A    between atoms: O_24  and  C_25
REMARK   22  A    between atoms: C_25  and  C_26
REMARK   23  A    between atoms: C_26  and  C_27
REMARK   24  A    between atoms: C_27  and  C_28
REMARK   25  A    between atoms: C_28  and  C_29
REMARK   26  A    between atoms: C_29  and  C_30
REMARK   27  A    between atoms: C_30  and  C_31
REMARK   28  A    between atoms: C_31  and  C_32
REMARK                            x       y       z     vdW  Elec       q    Type
REMARK                         _______ _______ _______ _____ _____    ______ ____
ROOT
ATOM      1  C   UNL     1       3.407   6.130  19.618  0.00  0.00    +0.000 C 
ENDROOT
BRANCH   1   2
ATOM      2  C   UNL     1       2.392   6.665  18.604  0.00  0.00    +0.000 C 
BRANCH   2   3
ATOM      3  C   UNL     1       2.010   8.100  18.894  0.00  0.00    +0.000 C 
ATOM      4  O   UNL     1       2.111   9.036  18.116  0.00  0.00    +0.000 OA
BRANCH   3   5
ATOM      5  O   UNL     1       1.671   8.214  20.212  0.00  0.00    +0.000 OA
BRANCH   5   6
ATOM      6  C   UNL     1       0.612   9.145  20.451  0.00  0.00    +0.000 C 
BRANCH   6   7
ATOM      7  C   UNL     1       1.098  10.450  21.066  0.00  0.00    +0.000 C 
BRANCH   7   8
ATOM      8  C   UNL     1       0.360  11.622  20.412  0.00  0.00    +0.000 C 
BRANCH   8   9
ATOM      9  C   UNL     1      -1.154  11.482  20.520  0.00  0.00    +0.000 C 
BRANCH   9  10
ATOM     10  C   UNL     1      -1.850  12.214  19.373  0.00  0.00    +0.000 C 
BRANCH  10  11
ATOM     11  C   UNL     1      -1.439  11.627  18.026  0.00  0.00    +0.000 C 
BRANCH  11  12
ATOM     12  C   UNL     1      -1.781  10.144  17.950  0.00  0.00    +0.000 C 
BRANCH  12  13
ATOM     13  C   UNL     1      -3.173   9.941  17.350  0.00  0.00    +0.000 C 
BRANCH  13  14
ATOM     14  C   UNL     1      -3.550  11.103  16.436  0.00  0.00    +0.000 C 
BRANCH  14  15
ATOM     15  C   UNL     1      -4.948  11.621  16.762  0.00  0.00    +0.000 C 
BRANCH  15  17
ATOM     16  C   UNL     1      -5.567  12.483  19.036  0.00  0.00    +0.000 C 
ATOM     17  C   UNL     1      -5.356  11.244  18.182  0.00  0.00    +0.000 C 
ENDBRANCH  15  17
ENDBRANCH  14  15
ENDBRANCH  13  14
ENDBRANCH  12  13
ENDBRANCH  11  12
ENDBRANCH  10  11
ENDBRANCH   9  10
ENDBRANCH   8   9
ENDBRANCH   7   8
ENDBRANCH   6   7
ENDBRANCH   5   6
ENDBRANCH   3   5
ENDBRANCH   2   3
ENDBRANCH   1   2
BRANCH   1  18
ATOM     18  C   UNL     1       2.995   4.763  20.176  0.00  0.00    +0.000 C 
BRANCH  18  19
ATOM     19  C   UNL     1       1.477   4.543  20.092  0.00  0.00    +0.000 C 
BRANCH  19  20
ATOM     20  C   UNL     1       1.139   3.347  19.196  0.00  0.00    +0.000 C 
BRANCH  20  21
ATOM     21  N   UNL     1       2.026   3.220  18.058  0.00  0.00    +0.000 N 
ATOM     22  C   UNL     1       3.047   2.321  17.998  0.00  0.00    +0.000 C 
ATOM     23  O   UNL     1       3.315   1.483  18.850  0.00  0.00    +0.000 OA
ATOM     24  H   UNL     1       2.047   3.943  17.354  0.00  0.00    +0.000 HD
BRANCH  22  25
ATOM     25  O   UNL     1       3.801   2.585  16.902  0.00  0.00    +0.000 OA
BRANCH  25  26
ATOM     26  C   UNL     1       4.514   3.826  16.965  0.00  0.00    +0.000 C 
BRANCH  26  27
ATOM     27  C   UNL     1       5.492   4.042  15.812  0.00  0.00    +0.000 C 
BRANCH  27  28
ATOM     28  C   UNL     1       5.611   5.541  15.517  0.00  0.00    +0.000 C 
BRANCH  28  29
ATOM     29  C   UNL     1       5.594   6.399  16.780  0.00  0.00    +0.000 C 
BRANCH  29  30
ATOM     30  C   UNL     1       6.767   7.389  16.802  0.00  0.00    +0.000 C 
BRANCH  30  31
ATOM     31  C   UNL     1       7.664   7.157  18.020  0.00  0.00    +0.000 C 
BRANCH  31  32
ATOM     32  C   UNL     1       7.683   5.687  18.440  0.00  0.00    +0.000 C 
ATOM     33  C   UNL     1       7.916   5.540  19.936  0.00  0.00    +0.000 C 
ENDBRANCH  31  32
ENDBRANCH  30  31
ENDBRANCH  29  30
ENDBRANCH  28  29
ENDBRANCH  27  28
ENDBRANCH  26  27
ENDBRANCH  25  26
ENDBRANCH  22  25
ENDBRANCH  20  21
ENDBRANCH  19  20
ENDBRANCH  18  19
ENDBRANCH   1  18
TORSDOF 26
ENDMDL
MODEL 7
REMARK VINA RESULT:      -5.4      5.406      9.581
REMARK  Name = 
REMARK  28 active torsions:
REMARK  status: ('A' for Active; 'I' for Inactive)
REMARK    1  A    between atoms: C_1  and  C_2
REMARK    2  A    between atoms: C_2  and  C_3
REMARK    3  A    between atoms: C_3  and  C_4
REMARK    4  A    between atoms: C_4  and  C_5
REMARK    5  A    between atoms: C_5  and  C_6
REMARK    6  A    between atoms: C_6  and  C_7
REMARK    7  A    between atoms: C_7  and  C_8
REMARK    8  A    between atoms: C_8  and  C_9
REMARK    9  A    between atoms: C_9  and  C_10
REMARK   10  A    between atoms: C_10  and  C_11
REMARK   11  A    between atoms: C_11  and  C_12
REMARK   12  A    between atoms: C_12  and  O_13
REMARK   13  A    between atoms: O_13  and  C_14
REMARK   14  A    between atoms: C_14  and  C_16
REMARK   15  A    between atoms: C_16  and  C_17
REMARK   16  A    between atoms: C_17  and  C_18
REMARK   17  A    between atoms: C_18  and  C_19
REMARK   18  A    between atoms: C_19  and  C_20
REMARK   19  A    between atoms: C_20  and  N_21
REMARK   20  A    between atoms: C_22  and  O_24
REMARK   21  A    between atoms: O_24  and  C_25
REMARK   22  A    between atoms: C_25  and  C_26
REMARK   23  A    between atoms: C_26  and  C_27
REMARK   24  A    between atoms: C_27  and  C_28
REMARK   25  A    between atoms: C_28  and  C_29
REMARK   26  A    between atoms: C_29  and  C_30
REMARK   27  A    between atoms: C_30  and  C_31
REMARK   28  A    between atoms: C_31  and  C_32
REMARK                            x       y       z     vdW  Elec       q    Type
REMARK                         _______ _______ _______ _____ _____    ______ ____
ROOT
ATOM      1  C   UNL     1       3.436   7.509  17.423  0.00  0.00    +0.000 C 
ENDROOT
BRANCH   1   2
ATOM      2  C   UNL     1       1.977   7.969  17.427  0.00  0.00    +0.000 C 
BRANCH   2   3
ATOM      3  C   UNL     1       1.846   9.422  17.825  0.00  0.00    +0.000 C 
ATOM      4  O   UNL     1       2.621  10.318  17.523  0.00  0.00    +0.000 OA
BRANCH   3   5
ATOM      5  O   UNL     1       0.805   9.554  18.699  0.00  0.00    +0.000 OA
BRANCH   5   6
ATOM      6  C   UNL     1       0.278  10.882  18.764  0.00  0.00    +0.000 C 
BRANCH   6   7
ATOM      7  C   UNL     1       0.451  11.522  20.134  0.00  0.00    +0.000 C 
BRANCH   7   8
ATOM      8  C   UNL     1      -0.781  11.220  20.991  0.00  0.00    +0.000 C 
BRANCH   8   9
ATOM      9  C   UNL     1      -0.484  10.203  22.088  0.00  0.00    +0.000 C 
BRANCH   9  10
ATOM     10  C   UNL     1      -0.235   8.819  21.491  0.00  0.00    +0.000 C 
BRANCH  10  11
ATOM     11  C   UNL     1       1.088   8.244  21.986  0.00  0.00    +0.000 C 
BRANCH  11  12
ATOM     12  C   UNL     1       1.811   7.497  20.872  0.00  0.00    +0.000 C 
BRANCH  12  13
ATOM     13  C   UNL     1       1.150   6.141  20.616  0.00  0.00    +0.000 C 
BRANCH  13  14
ATOM     14  C   UNL     1       2.053   4.998  21.070  0.00  0.00    +0.000 C 
BRANCH  14  15
ATOM     15  C   UNL     1       1.349   3.653  20.914  0.00  0.00    +0.000 C 
BRANCH  15  17
ATOM     16  C   UNL     1       1.264   2.752  18.572  0.00  0.00    +0.000 C 
ATOM     17  C   UNL     1       2.049   2.785  19.874  0.00  0.00    +0.000 C 
ENDBRANCH  15  17
ENDBRANCH  14  15
ENDBRANCH  13  14
ENDBRANCH  12  13
ENDBRANCH  11  12
ENDBRANCH  10  11
ENDBRANCH   9  10
ENDBRANCH   8   9
ENDBRANCH   7   8
ENDBRANCH   6   7
ENDBRANCH   5   6
ENDBRANCH   3   5
ENDBRANCH   2   3
ENDBRANCH   1   2
BRANCH   1  18
ATOM     18  C   UNL     1       3.572   6.025  17.781  0.00  0.00    +0.000 C 
BRANCH  18  19
ATOM     19  C   UNL     1       4.779   5.763  18.695  0.00  0.00    +0.000 C 
BRANCH  19  20
ATOM     20  C   UNL     1       5.184   4.285  18.670  0.00  0.00    +0.000 C 
BRANCH  20  21
ATOM     21  N   UNL     1       6.024   3.945  17.540  0.00  0.00    +0.000 N 
ATOM     22  C   UNL     1       6.906   4.812  16.972  0.00  0.00    +0.000 C 
ATOM     23  O   UNL     1       7.145   5.949  17.360  0.00  0.00    +0.000 OA
ATOM     24  H   UNL     1       5.828   3.115  17.000  0.00  0.00    +0.000 HD
BRANCH  22  25
ATOM     25  O   UNL     1       7.388   4.265  15.828  0.00  0.00    +0.000 OA
BRANCH  25  26
ATOM     26  C   UNL     1       7.341   5.140  14.694  0.00  0.00    +0.000 C 
BRANCH  26  27
ATOM     27  C   UNL     1       6.078   4.995  13.848  0.00  0.00    +0.000 C 
BRANCH  27  28
ATOM     28  C   UNL     1       6.346   4.022  12.695  0.00  0.00    +0.000 C 
BRANCH  28  29
ATOM     29  C   UNL     1       5.285   2.929  12.580  0.00  0.00    +0.000 C 
BRANCH  29  30
ATOM     30  C   UNL     1       4.809   2.758  11.131  0.00  0.00    +0.000 C 
BRANCH  30  31
ATOM     31  C   UNL     1       3.538   3.569  10.867  0.00  0.00    +0.000 C 
BRANCH  31  32
ATOM     32  C   UNL     1       3.460   4.045   9.417  0.00  0.00    +0.000 C 
ATOM     33  C   UNL     1       2.192   4.847   9.163  0.00  0.00    +0.000 C 
ENDBRANCH  31  32
ENDBRANCH  30  31
ENDBRANCH  29  30
ENDBRANCH  28  29
ENDBRANCH  27  28
ENDBRANCH  26  27
ENDBRANCH  25  26
ENDBRANCH  22  25
ENDBRANCH  20  21
ENDBRANCH  19  20
ENDBRANCH  18  19
ENDBRANCH   1  18
TORSDOF 26
ENDMDL
MODEL 8
REMARK VINA RESULT:      -5.4      5.380      9.102
REMARK  Name = 
REMARK  28 active torsions:
REMARK  status: ('A' for Active; 'I' for Inactive)
REMARK    1  A    between atoms: C_1  and  C_2
REMARK    2  A    between atoms: C_2  and  C_3
REMARK    3  A    between atoms: C_3  and  C_4
REMARK    4  A    between atoms: C_4  and  C_5
REMARK    5  A    between atoms: C_5  and  C_6
REMARK    6  A    between atoms: C_6  and  C_7
REMARK    7  A    between atoms: C_7  and  C_8
REMARK    8  A    between atoms: C_8  and  C_9
REMARK    9  A    between atoms: C_9  and  C_10
REMARK   10  A    between atoms: C_10  and  C_11
REMARK   11  A    between atoms: C_11  and  C_12
REMARK   12  A    between atoms: C_12  and  O_13
REMARK   13  A    between atoms: O_13  and  C_14
REMARK   14  A    between atoms: C_14  and  C_16
REMARK   15  A    between atoms: C_16  and  C_17
REMARK   16  A    between atoms: C_17  and  C_18
REMARK   17  A    between atoms: C_18  and  C_19
REMARK   18  A    between atoms: C_19  and  C_20
REMARK   19  A    between atoms: C_20  and  N_21
REMARK   20  A    between atoms: C_22  and  O_24
REMARK   21  A    between atoms: O_24  and  C_25
REMARK   22  A    between atoms: C_25  and  C_26
REMARK   23  A    between atoms: C_26  and  C_27
REMARK   24  A    between atoms: C_27  and  C_28
REMARK   25  A    between atoms: C_28  and  C_29
REMARK   26  A    between atoms: C_29  and  C_30
REMARK   27  A    between atoms: C_30  and  C_31
REMARK   28  A    between atoms: C_31  and  C_32
REMARK                            x       y       z     vdW  Elec       q    Type
REMARK                         _______ _______ _______ _____ _____    ______ ____
ROOT
ATOM      1  C   UNL     1       4.143   7.064  17.248  0.00  0.00    +0.000 C 
ENDROOT
BRANCH   1   2
ATOM      2  C   UNL     1       4.717   7.027  15.830  0.00  0.00    +0.000 C 
BRANCH   2   3
ATOM      3  C   UNL     1       5.586   5.809  15.606  0.00  0.00    +0.000 C 
ATOM      4  O   UNL     1       5.234   4.768  15.071  0.00  0.00    +0.000 OA
BRANCH   3   5
ATOM      5  O   UNL     1       6.787   5.998  16.228  0.00  0.00    +0.000 OA
BRANCH   5   6
ATOM      6  C   UNL     1       7.184   4.897  17.051  0.00  0.00    +0.000 C 
BRANCH   6   7
ATOM      7  C   UNL     1       7.230   5.249  18.531  0.00  0.00    +0.000 C 
BRANCH   7   8
ATOM      8  C   UNL     1       5.907   4.844  19.187  0.00  0.00    +0.000 C 
BRANCH   8   9
ATOM      9  C   UNL     1       5.249   3.665  18.479  0.00  0.00    +0.000 C 
BRANCH   9  10
ATOM     10  C   UNL     1       4.556   2.747  19.485  0.00  0.00    +0.000 C 
BRANCH  10  11
ATOM     11  C   UNL     1       3.497   1.890  18.797  0.00  0.00    +0.000 C 
BRANCH  11  12
ATOM     12  C   UNL     1       2.769   2.683  17.718  0.00  0.00    +0.000 C 
BRANCH  12  13
ATOM     13  C   UNL     1       1.424   3.194  18.239  0.00  0.00    +0.000 C 
BRANCH  13  14
ATOM     14  C   UNL     1       1.391   4.718  18.267  0.00  0.00    +0.000 C 
BRANCH  14  15
ATOM     15  C   UNL     1       2.257   5.261  19.401  0.00  0.00    +0.000 C 
BRANCH  15  17
ATOM     16  C   UNL     1       1.489   6.998  21.042  0.00  0.00    +0.000 C 
ATOM     17  C   UNL     1       1.420   5.532  20.648  0.00  0.00    +0.000 C 
ENDBRANCH  15  17
ENDBRANCH  14  15
ENDBRANCH  13  14
ENDBRANCH  12  13
ENDBRANCH  11  12
ENDBRANCH  10  11
ENDBRANCH   9  10
ENDBRANCH   8   9
ENDBRANCH   7   8
ENDBRANCH   6   7
ENDBRANCH   5   6
ENDBRANCH   3   5
ENDBRANCH   2   3
ENDBRANCH   1   2
BRANCH   1  18
ATOM     18  C   UNL     1       3.481   8.410  17.564  0.00  0.00    +0.000 C 
BRANCH  18  19
ATOM     19  C   UNL     1       1.948   8.316  17.534  0.00  0.00    +0.000 C 
BRANCH  19  20
ATOM     20  C   UNL     1       1.303   9.636  17.971  0.00  0.00    +0.000 C 
BRANCH  20  21
ATOM     21  N   UNL     1      -0.135   9.650  17.800  0.00  0.00    +0.000 N 
ATOM     22  C   UNL     1      -0.919  10.718  18.115  0.00  0.00    +0.000 C 
ATOM     23  O   UNL     1      -0.522  11.802  18.524  0.00  0.00    +0.000 OA
ATOM     24  H   UNL     1      -0.631   8.786  17.637  0.00  0.00    +0.000 HD
BRANCH  22  25
ATOM     25  O   UNL     1      -2.221  10.350  18.028  0.00  0.00    +0.000 OA
BRANCH  25  26
ATOM     26  C   UNL     1      -2.711  10.240  16.686  0.00  0.00    +0.000 C 
BRANCH  26  27
ATOM     27  C   UNL     1      -3.818  11.235  16.344  0.00  0.00    +0.000 C 
BRANCH  27  28
ATOM     28  C   UNL     1      -4.923  11.152  17.403  0.00  0.00    +0.000 C 
BRANCH  28  29
ATOM     29  C   UNL     1      -5.730  12.443  17.523  0.00  0.00    +0.000 C 
BRANCH  29  30
ATOM     30  C   UNL     1      -7.204  12.156  17.839  0.00  0.00    +0.000 C 
BRANCH  30  31
ATOM     31  C   UNL     1      -7.608  12.752  19.190  0.00  0.00    +0.000 C 
BRANCH  31  32
ATOM     32  C   UNL     1      -6.948  12.015  20.355  0.00  0.00    +0.000 C 
ATOM     33  C   UNL     1      -7.547  10.630  20.546  0.00  0.00    +0.000 C 
ENDBRANCH  31  32
ENDBRANCH  30  31
ENDBRANCH  29  30
ENDBRANCH  28  29
ENDBRANCH  27  28
ENDBRANCH  26  27
ENDBRANCH  25  26
ENDBRANCH  22  25
ENDBRANCH  20  21
ENDBRANCH  19  20
ENDBRANCH  18  19
ENDBRANCH   1  18
TORSDOF 26
ENDMDL
MODEL 9
REMARK VINA RESULT:      -5.4      5.772      9.909
REMARK  Name = 
REMARK  28 active torsions:
REMARK  status: ('A' for Active; 'I' for Inactive)
REMARK    1  A    between atoms: C_1  and  C_2
REMARK    2  A    between atoms: C_2  and  C_3
REMARK    3  A    between atoms: C_3  and  C_4
REMARK    4  A    between atoms: C_4  and  C_5
REMARK    5  A    between atoms: C_5  and  C_6
REMARK    6  A    between atoms: C_6  and  C_7
REMARK    7  A    between atoms: C_7  and  C_8
REMARK    8  A    between atoms: C_8  and  C_9
REMARK    9  A    between atoms: C_9  and  C_10
REMARK   10  A    between atoms: C_10  and  C_11
REMARK   11  A    between atoms: C_11  and  C_12
REMARK   12  A    between atoms: C_12  and  O_13
REMARK   13  A    between atoms: O_13  and  C_14
REMARK   14  A    between atoms: C_14  and  C_16
REMARK   15  A    between atoms: C_16  and  C_17
REMARK   16  A    between atoms: C_17  and  C_18
REMARK   17  A    between atoms: C_18  and  C_19
REMARK   18  A    between atoms: C_19  and  C_20
REMARK   19  A    between atoms: C_20  and  N_21
REMARK   20  A    between atoms: C_22  and  O_24
REMARK   21  A    between atoms: O_24  and  C_25
REMARK   22  A    between atoms: C_25  and  C_26
REMARK   23  A    between atoms: C_26  and  C_27
REMARK   24  A    between atoms: C_27  and  C_28
REMARK   25  A    between atoms: C_28  and  C_29
REMARK   26  A    between atoms: C_29  and  C_30
REMARK   27  A    between atoms: C_30  and  C_31
REMARK   28  A    between atoms: C_31  and  C_32
REMARK                            x       y       z     vdW  Elec       q    Type
REMARK                         _______ _______ _______ _____ _____    ______ ____
ROOT
ATOM      1  C   UNL     1       2.140   6.364  20.550  0.00  0.00    +0.000 C 
ENDROOT
BRANCH   1   2
ATOM      2  C   UNL     1       1.530   7.676  20.051  0.00  0.00    +0.000 C 
BRANCH   2   3
ATOM      3  C   UNL     1       1.106   8.570  21.195  0.00  0.00    +0.000 C 
ATOM      4  O   UNL     1       1.655   8.644  22.284  0.00  0.00    +0.000 OA
BRANCH   3   5
ATOM      5  O   UNL     1      -0.075   9.176  20.874  0.00  0.00    +0.000 OA
BRANCH   5   6
ATOM      6  C   UNL     1      -0.363  10.326  21.673  0.00  0.00    +0.000 C 
BRANCH   6   7
ATOM      7  C   UNL     1      -0.488  11.603  20.853  0.00  0.00    +0.000 C 
BRANCH   7   8
ATOM      8  C   UNL     1      -1.838  12.261  21.147  0.00  0.00    +0.000 C 
BRANCH   8   9
ATOM      9  C   UNL     1      -2.692  12.408  19.893  0.00  0.00    +0.000 C 
BRANCH   9  10
ATOM     10  C   UNL     1      -4.146  12.707  20.259  0.00  0.00    +0.000 C 
BRANCH  10  11
ATOM     11  C   UNL     1      -5.058  12.526  19.050  0.00  0.00    +0.000 C 
BRANCH  11  12
ATOM     12  C   UNL     1      -5.452  11.063  18.878  0.00  0.00    +0.000 C 
BRANCH  12  13
ATOM     13  C   UNL     1      -4.887  10.503  17.571  0.00  0.00    +0.000 C 
BRANCH  13  14
ATOM     14  C   UNL     1      -4.146  11.582  16.788  0.00  0.00    +0.000 C 
BRANCH  14  15
ATOM     15  C   UNL     1      -2.823  11.048  16.245  0.00  0.00    +0.000 C 
BRANCH  15  17
ATOM     16  C   UNL     1      -3.193   9.991  13.999  0.00  0.00    +0.000 C 
ATOM     17  C   UNL     1      -3.027   9.740  15.489  0.00  0.00    +0.000 C 
ENDBRANCH  15  17
ENDBRANCH  14  15
ENDBRANCH  13  14
ENDBRANCH  12  13
ENDBRANCH  11  12
ENDBRANCH  10  11
ENDBRANCH   9  10
ENDBRANCH   8   9
ENDBRANCH   7   8
ENDBRANCH   6   7
ENDBRANCH   5   6
ENDBRANCH   3   5
ENDBRANCH   2   3
ENDBRANCH   1   2
BRANCH   1  18
ATOM     18  C   UNL     1       1.134   5.208  20.499  0.00  0.00    +0.000 C 
BRANCH  18  19
ATOM     19  C   UNL     1       1.774   3.872  20.908  0.00  0.00    +0.000 C 
BRANCH  19  20
ATOM     20  C   UNL     1       1.992   2.967  19.691  0.00  0.00    +0.000 C 
BRANCH  20  21
ATOM     21  N   UNL     1       3.130   3.359  18.886  0.00  0.00    +0.000 N 
ATOM     22  C   UNL     1       4.417   3.038  19.196  0.00  0.00    +0.000 C 
ATOM     23  O   UNL     1       4.774   2.347  20.142  0.00  0.00    +0.000 OA
ATOM     24  H   UNL     1       3.023   4.069  18.176  0.00  0.00    +0.000 HD
BRANCH  22  25
ATOM     25  O   UNL     1       5.251   3.711  18.366  0.00  0.00    +0.000 OA
BRANCH  25  26
ATOM     26  C   UNL     1       5.321   5.120  18.619  0.00  0.00    +0.000 C 
BRANCH  26  27
ATOM     27  C   UNL     1       6.168   5.892  17.611  0.00  0.00    +0.000 C 
BRANCH  27  28
ATOM     28  C   UNL     1       5.541   5.771  16.218  0.00  0.00    +0.000 C 
BRANCH  28  29
ATOM     29  C   UNL     1       6.375   4.919  15.262  0.00  0.00    +0.000 C 
BRANCH  29  30
ATOM     30  C   UNL     1       5.531   4.401  14.090  0.00  0.00    +0.000 C 
BRANCH  30  31
ATOM     31  C   UNL     1       6.415   3.990  12.910  0.00  0.00    +0.000 C 
BRANCH  31  32
ATOM     32  C   UNL     1       5.818   2.814  12.137  0.00  0.00    +0.000 C 
ATOM     33  C   UNL     1       4.479   3.181  11.517  0.00  0.00    +0.000 C 
ENDBRANCH  31  32
ENDBRANCH  30  31
ENDBRANCH  29  30
ENDBRANCH  28  29
ENDBRANCH  27  28
ENDBRANCH  26  27
ENDBRANCH  25  26
ENDBRANCH  22  25
ENDBRANCH  20  21
ENDBRANCH  19  20
ENDBRANCH  18  19
ENDBRANCH   1  18
TORSDOF 26
ENDMDL
