MODEL 1
REMARK VINA RESULT:      -7.8      0.000      0.000
REMARK  Name = 
REMARK  7 active torsions:
REMARK  status: ('A' for Active; 'I' for Inactive)
REMARK    1  A    between atoms: C_1  and  N_2
REMARK    2  A    between atoms: N_2  and  C_20
REMARK    3  A    between atoms: C_3  and  C_5
REMARK    4  A    between atoms: C_6  and  C_7
REMARK    5  A    between atoms: C_10  and  C_11
REMARK    6  A    between atoms: C_23  and  C_24
REMARK    7  A    between atoms: C_24  and  N_25
REMARK                            x       y       z     vdW  Elec       q    Type
REMARK                         _______ _______ _______ _____ _____    ______ ____
ROOT
ATOM      1  C   UNL     1       1.996   6.858  20.215  0.00  0.00    +0.000 C 
ATOM      2  N   UNL     1       2.394   7.394  18.911  0.00  0.00    +0.000 N 
ATOM      3  C   UNL     1       1.904   8.566  18.344  0.00  0.00    +0.000 C 
ATOM      4  O   UNL     1       2.204   9.001  17.234  0.00  0.00    +0.000 OA
ENDROOT
BRANCH   2   5
ATOM      5  C   UNL     1       3.269   6.576  18.143  0.00  0.00    +0.000 A 
ATOM      6  C   UNL     1       2.978   5.223  17.937  0.00  0.00    +0.000 A 
ATOM      7  C   UNL     1       3.825   4.432  17.159  0.00  0.00    +0.000 A 
ATOM      8  C   UNL     1       4.996   4.969  16.608  0.00  0.00    +0.000 A 
ATOM      9  C   UNL     1       5.302   6.316  16.847  0.00  0.00    +0.000 A 
ATOM     10  C   UNL     1       4.434   7.118  17.590  0.00  0.00    +0.000 A 
BRANCH   8  11
ATOM     11  C   UNL     1       5.927   4.100  15.795  0.00  0.00    +0.000 C 
BRANCH  11  12
ATOM     12  N   UNL     1       6.013   4.477  14.365  0.00  0.00    +0.000 NA
ATOM     13  C   UNL     1       7.381   4.904  14.021  0.00  0.00    +0.000 C 
ATOM     14  C   UNL     1       7.588   5.126  12.522  0.00  0.00    +0.000 C 
ATOM     15  C   UNL     1       7.184   3.893  11.728  0.00  0.00    +0.000 C 
ATOM     16  C   UNL     1       5.739   3.544  12.050  0.00  0.00    +0.000 C 
ATOM     17  C   UNL     1       5.551   3.339  13.552  0.00  0.00    +0.000 C 
ENDBRANCH  11  12
ENDBRANCH   8  11
ENDBRANCH   2   5
BRANCH   3  18
ATOM     18  C   UNL     1       0.883   9.290  19.128  0.00  0.00    +0.000 C 
ATOM     19  C   UNL     1       0.039  10.102  18.466  0.00  0.00    +0.000 C 
BRANCH  19  20
ATOM     20  C   UNL     1      -0.912  10.933  19.186  0.00  0.00    +0.000 A 
ATOM     21  C   UNL     1      -2.142  11.207  18.593  0.00  0.00    +0.000 A 
ATOM     22  C   UNL     1      -3.055  12.049  19.231  0.00  0.00    +0.000 A 
ATOM     23  C   UNL     1      -2.775  12.635  20.479  0.00  0.00    +0.000 A 
ATOM     24  C   UNL     1      -1.534  12.326  21.069  0.00  0.00    +0.000 A 
ATOM     25  C   UNL     1      -0.608  11.490  20.428  0.00  0.00    +0.000 A 
BRANCH  23  26
ATOM     26  C   UNL     1      -3.749  13.558  21.105  0.00  0.00    +0.000 A 
ATOM     27  C   UNL     1      -3.360  14.850  21.515  0.00  0.00    +0.000 A 
ATOM     28  C   UNL     1      -4.235  15.699  22.197  0.00  0.00    +0.000 A 
ATOM     29  C   UNL     1      -5.531  15.279  22.465  0.00  0.00    +0.000 A 
ATOM     30 CL   UNL     1      -6.602  16.308  23.334  0.00  0.00    +0.000 Cl
ATOM     31  C   UNL     1      -5.960  14.025  22.044  0.00  0.00    +0.000 A 
ATOM     32  C   UNL     1      -5.075  13.173  21.372  0.00  0.00    +0.000 A 
ENDBRANCH  23  26
ENDBRANCH  19  20
ENDBRANCH   3  18
TORSDOF 6
ENDMDL
MODEL 2
REMARK VINA RESULT:      -7.8      0.854      1.242
REMARK  Name = 
REMARK  7 active torsions:
REMARK  status: ('A' for Active; 'I' for Inactive)
REMARK    1  A    between atoms: C_1  and  N_2
REMARK    2  A    between atoms: N_2  and  C_20
REMARK    3  A    between atoms: C_3  and  C_5
REMARK    4  A    between atoms: C_6  and  C_7
REMARK    5  A    between atoms: C_10  and  C_11
REMARK    6  A    between atoms: C_23  and  C_24
REMARK    7  A    between atoms: C_24  and  N_25
REMARK                            x       y       z     vdW  Elec       q    Type
REMARK                         _______ _______ _______ _____ _____    ______ ____
ROOT
ATOM      1  C   UNL     1       2.162   6.397  20.276  0.00  0.00    +0.000 C 
ATOM      2  N   UNL     1       2.573   7.025  19.018  0.00  0.00    +0.000 N 
ATOM      3  C   UNL     1       2.160   8.277  18.575  0.00  0.00    +0.000 C 
ATOM      4  O   UNL     1       2.470   8.793  17.503  0.00  0.00    +0.000 OA
ENDROOT
BRANCH   2   5
ATOM      5  C   UNL     1       3.373   6.223  18.155  0.00  0.00    +0.000 A 
ATOM      6  C   UNL     1       4.437   6.790  17.445  0.00  0.00    +0.000 A 
ATOM      7  C   UNL     1       5.236   5.993  16.621  0.00  0.00    +0.000 A 
ATOM      8  C   UNL     1       4.959   4.629  16.464  0.00  0.00    +0.000 A 
ATOM      9  C   UNL     1       3.870   4.074  17.149  0.00  0.00    +0.000 A 
ATOM     10  C   UNL     1       3.097   4.861  18.005  0.00  0.00    +0.000 A 
BRANCH   8  11
ATOM     11  C   UNL     1       5.806   3.779  15.546  0.00  0.00    +0.000 C 
BRANCH  11  12
ATOM     12  N   UNL     1       5.982   4.343  14.187  0.00  0.00    +0.000 NA
ATOM     13  C   UNL     1       7.363   4.824  14.000  0.00  0.00    +0.000 C 
ATOM     14  C   UNL     1       7.667   5.245  12.560  0.00  0.00    +0.000 C 
ATOM     15  C   UNL     1       7.340   4.125  11.584  0.00  0.00    +0.000 C 
ATOM     16  C   UNL     1       5.883   3.724  11.756  0.00  0.00    +0.000 C 
ATOM     17  C   UNL     1       5.597   3.320  13.202  0.00  0.00    +0.000 C 
ENDBRANCH  11  12
ENDBRANCH   8  11
ENDBRANCH   2   5
BRANCH   3  18
ATOM     18  C   UNL     1       1.209   8.994  19.448  0.00  0.00    +0.000 C 
ATOM     19  C   UNL     1       0.370   9.876  18.877  0.00  0.00    +0.000 C 
BRANCH  19  20
ATOM     20  C   UNL     1      -0.510  10.701  19.689  0.00  0.00    +0.000 A 
ATOM     21  C   UNL     1      -1.483  11.468  19.053  0.00  0.00    +0.000 A 
ATOM     22  C   UNL     1      -2.304  12.315  19.797  0.00  0.00    +0.000 A 
ATOM     23  C   UNL     1      -2.188  12.418  21.196  0.00  0.00    +0.000 A 
ATOM     24  C   UNL     1      -1.212  11.617  21.819  0.00  0.00    +0.000 A 
ATOM     25  C   UNL     1      -0.375  10.773  21.076  0.00  0.00    +0.000 A 
BRANCH  23  26
ATOM     26  C   UNL     1      -3.048  13.360  21.949  0.00  0.00    +0.000 A 
ATOM     27  C   UNL     1      -3.352  14.635  21.428  0.00  0.00    +0.000 A 
ATOM     28  C   UNL     1      -4.078  15.575  22.164  0.00  0.00    +0.000 A 
ATOM     29  C   UNL     1      -4.535  15.250  23.434  0.00  0.00    +0.000 A 
ATOM     30 CL   UNL     1      -5.399  16.416  24.358  0.00  0.00    +0.000 Cl
ATOM     31  C   UNL     1      -4.285  13.989  23.965  0.00  0.00    +0.000 A 
ATOM     32  C   UNL     1      -3.546  13.055  23.228  0.00  0.00    +0.000 A 
ENDBRANCH  23  26
ENDBRANCH  19  20
ENDBRANCH   3  18
TORSDOF 6
ENDMDL
MODEL 3
REMARK VINA RESULT:      -7.7      0.762      1.602
REMARK  Name = 
REMARK  7 active torsions:
REMARK  status: ('A' for Active; 'I' for Inactive)
REMARK    1  A    between atoms: C_1  and  N_2
REMARK    2  A    between atoms: N_2  and  C_20
REMARK    3  A    between atoms: C_3  and  C_5
REMARK    4  A    between atoms: C_6  and  C_7
REMARK    5  A    between atoms: C_10  and  C_11
REMARK    6  A    between atoms: C_23  and  C_24
REMARK    7  A    between atoms: C_24  and  N_25
REMARK                            x       y       z     vdW  Elec       q    Type
REMARK                         _______ _______ _______ _____ _____    ______ ____
ROOT
ATOM      1  C   UNL     1       1.957   6.863  20.244  0.00  0.00    +0.000 C 
ATOM      2  N   UNL     1       2.372   7.393  18.943  0.00  0.00    +0.000 N 
ATOM      3  C   UNL     1       1.930   8.590  18.388  0.00  0.00    +0.000 C 
ATOM      4  O   UNL     1       2.244   9.021  17.280  0.00  0.00    +0.000 OA
ENDROOT
BRANCH   2   5
ATOM      5  C   UNL     1       3.209   6.545  18.164  0.00  0.00    +0.000 A 
ATOM      6  C   UNL     1       4.353   7.057  17.541  0.00  0.00    +0.000 A 
ATOM      7  C   UNL     1       5.186   6.215  16.802  0.00  0.00    +0.000 A 
ATOM      8  C   UNL     1       4.869   4.860  16.641  0.00  0.00    +0.000 A 
ATOM      9  C   UNL     1       3.703   4.361  17.237  0.00  0.00    +0.000 A 
ATOM     10  C   UNL     1       2.892   5.192  18.011  0.00  0.00    +0.000 A 
BRANCH   8  11
ATOM     11  C   UNL     1       5.756   3.960  15.812  0.00  0.00    +0.000 C 
BRANCH  11  12
ATOM     12  N   UNL     1       5.866   4.360  14.390  0.00  0.00    +0.000 NA
ATOM     13  C   UNL     1       7.248   4.762  14.068  0.00  0.00    +0.000 C 
ATOM     14  C   UNL     1       7.475   5.006  12.575  0.00  0.00    +0.000 C 
ATOM     15  C   UNL     1       7.053   3.797  11.755  0.00  0.00    +0.000 C 
ATOM     16  C   UNL     1       5.597   3.475  12.056  0.00  0.00    +0.000 C 
ATOM     17  C   UNL     1       5.388   3.248  13.552  0.00  0.00    +0.000 C 
ENDBRANCH  11  12
ENDBRANCH   8  11
ENDBRANCH   2   5
BRANCH   3  18
ATOM     18  C   UNL     1       0.943   9.350  19.182  0.00  0.00    +0.000 C 
ATOM     19  C   UNL     1       0.450  10.484  18.655  0.00  0.00    +0.000 C 
BRANCH  19  20
ATOM     20  C   UNL     1      -0.434  11.341  19.429  0.00  0.00    +0.000 A 
ATOM     21  C   UNL     1       0.050  11.914  20.603  0.00  0.00    +0.000 A 
ATOM     22  C   UNL     1      -0.789  12.693  21.400  0.00  0.00    +0.000 A 
ATOM     23  C   UNL     1      -2.131  12.933  21.049  0.00  0.00    +0.000 A 
ATOM     24  C   UNL     1      -2.591  12.362  19.847  0.00  0.00    +0.000 A 
ATOM     25  C   UNL     1      -1.757  11.568  19.047  0.00  0.00    +0.000 A 
BRANCH  23  26
ATOM     26  C   UNL     1      -3.005  13.730  21.941  0.00  0.00    +0.000 A 
ATOM     27  C   UNL     1      -4.350  13.979  21.600  0.00  0.00    +0.000 A 
ATOM     28  C   UNL     1      -5.163  14.810  22.376  0.00  0.00    +0.000 A 
ATOM     29  C   UNL     1      -4.649  15.393  23.527  0.00  0.00    +0.000 A 
ATOM     30 CL   UNL     1      -5.635  16.443  24.468  0.00  0.00    +0.000 Cl
ATOM     31  C   UNL     1      -3.337  15.140  23.913  0.00  0.00    +0.000 A 
ATOM     32  C   UNL     1      -2.523  14.317  23.124  0.00  0.00    +0.000 A 
ENDBRANCH  23  26
ENDBRANCH  19  20
ENDBRANCH   3  18
TORSDOF 6
ENDMDL
MODEL 4
REMARK VINA RESULT:      -7.7      0.375      1.216
REMARK  Name = 
REMARK  7 active torsions:
REMARK  status: ('A' for Active; 'I' for Inactive)
REMARK    1  A    between atoms: C_1  and  N_2
REMARK    2  A    between atoms: N_2  and  C_20
REMARK    3  A    between atoms: C_3  and  C_5
REMARK    4  A    between atoms: C_6  and  C_7
REMARK    5  A    between atoms: C_10  and  C_11
REMARK    6  A    between atoms: C_23  and  C_24
REMARK    7  A    between atoms: C_24  and  N_25
REMARK                            x       y       z     vdW  Elec       q    Type
REMARK                         _______ _______ _______ _____ _____    ______ ____
ROOT
ATOM      1  C   UNL     1       1.810   6.997  20.246  0.00  0.00    +0.000 C 
ATOM      2  N   UNL     1       2.297   7.529  18.971  0.00  0.00    +0.000 N 
ATOM      3  C   UNL     1       1.900   8.736  18.404  0.00  0.00    +0.000 C 
ATOM      4  O   UNL     1       2.274   9.171  17.316  0.00  0.00    +0.000 OA
ENDROOT
BRANCH   2   5
ATOM      5  C   UNL     1       3.160   6.675  18.228  0.00  0.00    +0.000 A 
ATOM      6  C   UNL     1       2.779   5.361  17.938  0.00  0.00    +0.000 A 
ATOM      7  C   UNL     1       3.617   4.536  17.184  0.00  0.00    +0.000 A 
ATOM      8  C   UNL     1       4.864   4.999  16.744  0.00  0.00    +0.000 A 
ATOM      9  C   UNL     1       5.256   6.304  17.068  0.00  0.00    +0.000 A 
ATOM     10  C   UNL     1       4.401   7.143  17.786  0.00  0.00    +0.000 A 
BRANCH   8  11
ATOM     11  C   UNL     1       5.782   4.091  15.958  0.00  0.00    +0.000 C 
BRANCH  11  12
ATOM     12  N   UNL     1       5.890   4.436  14.522  0.00  0.00    +0.000 NA
ATOM     13  C   UNL     1       7.226   4.981  14.218  0.00  0.00    +0.000 C 
ATOM     14  C   UNL     1       7.472   5.181  12.721  0.00  0.00    +0.000 C 
ATOM     15  C   UNL     1       7.217   3.896  11.950  0.00  0.00    +0.000 C 
ATOM     16  C   UNL     1       5.799   3.421  12.227  0.00  0.00    +0.000 C 
ATOM     17  C   UNL     1       5.569   3.239  13.727  0.00  0.00    +0.000 C 
ENDBRANCH  11  12
ENDBRANCH   8  11
ENDBRANCH   2   5
BRANCH   3  18
ATOM     18  C   UNL     1       0.885   9.505  19.153  0.00  0.00    +0.000 C 
ATOM     19  C   UNL     1      -0.063  10.149  18.451  0.00  0.00    +0.000 C 
BRANCH  19  20
ATOM     20  C   UNL     1      -1.021  11.018  19.117  0.00  0.00    +0.000 A 
ATOM     21  C   UNL     1      -0.876  11.249  20.483  0.00  0.00    +0.000 A 
ATOM     22  C   UNL     1      -1.811  12.029  21.164  0.00  0.00    +0.000 A 
ATOM     23  C   UNL     1      -2.911  12.611  20.506  0.00  0.00    +0.000 A 
ATOM     24  C   UNL     1      -3.023  12.382  19.121  0.00  0.00    +0.000 A 
ATOM     25  C   UNL     1      -2.094  11.588  18.433  0.00  0.00    +0.000 A 
BRANCH  23  26
ATOM     26  C   UNL     1      -3.906  13.398  21.269  0.00  0.00    +0.000 A 
ATOM     27  C   UNL     1      -4.956  12.759  21.960  0.00  0.00    +0.000 A 
ATOM     28  C   UNL     1      -5.962  13.485  22.602  0.00  0.00    +0.000 A 
ATOM     29  C   UNL     1      -5.926  14.873  22.585  0.00  0.00    +0.000 A 
ATOM     30 CL   UNL     1      -7.180  15.772  23.345  0.00  0.00    +0.000 Cl
ATOM     31  C   UNL     1      -4.885  15.536  21.944  0.00  0.00    +0.000 A 
ATOM     32  C   UNL     1      -3.887  14.804  21.290  0.00  0.00    +0.000 A 
ENDBRANCH  23  26
ENDBRANCH  19  20
ENDBRANCH   3  18
TORSDOF 6
ENDMDL
MODEL 5
REMARK VINA RESULT:      -7.5      1.829      2.344
REMARK  Name = 
REMARK  7 active torsions:
REMARK  status: ('A' for Active; 'I' for Inactive)
REMARK    1  A    between atoms: C_1  and  N_2
REMARK    2  A    between atoms: N_2  and  C_20
REMARK    3  A    between atoms: C_3  and  C_5
REMARK    4  A    between atoms: C_6  and  C_7
REMARK    5  A    between atoms: C_10  and  C_11
REMARK    6  A    between atoms: C_23  and  C_24
REMARK    7  A    between atoms: C_24  and  N_25
REMARK                            x       y       z     vdW  Elec       q    Type
REMARK                         _______ _______ _______ _____ _____    ______ ____
ROOT
ATOM      1  C   UNL     1       1.990   8.472  18.264  0.00  0.00    +0.000 C 
ATOM      2  N   UNL     1       2.417   7.203  18.858  0.00  0.00    +0.000 N 
ATOM      3  C   UNL     1       2.087   6.767  20.138  0.00  0.00    +0.000 C 
ATOM      4  O   UNL     1       2.474   5.722  20.657  0.00  0.00    +0.000 OA
ENDROOT
BRANCH   2   5
ATOM      5  C   UNL     1       3.324   6.426  18.084  0.00  0.00    +0.000 A 
ATOM      6  C   UNL     1       3.054   5.080  17.815  0.00  0.00    +0.000 A 
ATOM      7  C   UNL     1       3.933   4.330  17.030  0.00  0.00    +0.000 A 
ATOM      8  C   UNL     1       5.113   4.902  16.536  0.00  0.00    +0.000 A 
ATOM      9  C   UNL     1       5.396   6.241  16.839  0.00  0.00    +0.000 A 
ATOM     10  C   UNL     1       4.497   7.003  17.588  0.00  0.00    +0.000 A 
BRANCH   8  11
ATOM     11  C   UNL     1       6.077   4.077  15.716  0.00  0.00    +0.000 C 
BRANCH  11  12
ATOM     12  N   UNL     1       6.096   4.421  14.275  0.00  0.00    +0.000 NA
ATOM     13  C   UNL     1       7.440   4.863  13.863  0.00  0.00    +0.000 C 
ATOM     14  C   UNL     1       7.578   5.052  12.351  0.00  0.00    +0.000 C 
ATOM     15  C   UNL     1       7.163   3.794  11.604  0.00  0.00    +0.000 C 
ATOM     16  C   UNL     1       5.740   3.430  11.997  0.00  0.00    +0.000 C 
ATOM     17  C   UNL     1       5.619   3.257  13.510  0.00  0.00    +0.000 C 
ENDBRANCH  11  12
ENDBRANCH   8  11
ENDBRANCH   2   5
BRANCH   3  18
ATOM     18  C   UNL     1       1.267   7.690  20.948  0.00  0.00    +0.000 C 
ATOM     19  C   UNL     1       0.700   8.740  20.329  0.00  0.00    +0.000 C 
BRANCH  19  20
ATOM     20  C   UNL     1      -0.021   9.751  21.085  0.00  0.00    +0.000 A 
ATOM     21  C   UNL     1      -0.370  10.940  20.449  0.00  0.00    +0.000 A 
ATOM     22  C   UNL     1      -1.010  11.954  21.162  0.00  0.00    +0.000 A 
ATOM     23  C   UNL     1      -1.331  11.812  22.525  0.00  0.00    +0.000 A 
ATOM     24  C   UNL     1      -0.988  10.593  23.141  0.00  0.00    +0.000 A 
ATOM     25  C   UNL     1      -0.334   9.575  22.433  0.00  0.00    +0.000 A 
BRANCH  23  26
ATOM     26  C   UNL     1      -1.972  12.927  23.261  0.00  0.00    +0.000 A 
ATOM     27  C   UNL     1      -3.332  12.864  23.625  0.00  0.00    +0.000 A 
ATOM     28  C   UNL     1      -3.981  13.943  24.230  0.00  0.00    +0.000 A 
ATOM     29  C   UNL     1      -3.273  15.105  24.504  0.00  0.00    +0.000 A 
ATOM     30 CL   UNL     1      -4.075  16.450  25.218  0.00  0.00    +0.000 Cl
ATOM     31  C   UNL     1      -1.920  15.189  24.191  0.00  0.00    +0.000 A 
ATOM     32  C   UNL     1      -1.278  14.110  23.573  0.00  0.00    +0.000 A 
ENDBRANCH  23  26
ENDBRANCH  19  20
ENDBRANCH   3  18
TORSDOF 6
ENDMDL
MODEL 6
REMARK VINA RESULT:      -7.5      1.504      2.131
REMARK  Name = 
REMARK  7 active torsions:
REMARK  status: ('A' for Active; 'I' for Inactive)
REMARK    1  A    between atoms: C_1  and  N_2
REMARK    2  A    between atoms: N_2  and  C_20
REMARK    3  A    between atoms: C_3  and  C_5
REMARK    4  A    between atoms: C_6  and  C_7
REMARK    5  A    between atoms: C_10  and  C_11
REMARK    6  A    between atoms: C_23  and  C_24
REMARK    7  A    between atoms: C_24  and  N_25
REMARK                            x       y       z     vdW  Elec       q    Type
REMARK                         _______ _______ _______ _____ _____    ______ ____
ROOT
ATOM      1  C   UNL     1       1.865   7.304  20.454  0.00  0.00    +0.000 C 
ATOM      2  N   UNL     1       2.199   7.724  19.091  0.00  0.00    +0.000 N 
ATOM      3  C   UNL     1       1.701   8.859  18.459  0.00  0.00    +0.000 C 
ATOM      4  O   UNL     1       1.947   9.196  17.302  0.00  0.00    +0.000 OA
ENDROOT
BRANCH   2   5
ATOM      5  C   UNL     1       3.012   6.825  18.344  0.00  0.00    +0.000 A 
ATOM      6  C   UNL     1       4.234   7.252  17.811  0.00  0.00    +0.000 A 
ATOM      7  C   UNL     1       5.042   6.359  17.104  0.00  0.00    +0.000 A 
ATOM      8  C   UNL     1       4.624   5.040  16.885  0.00  0.00    +0.000 A 
ATOM      9  C   UNL     1       3.384   4.628  17.390  0.00  0.00    +0.000 A 
ATOM     10  C   UNL     1       2.594   5.508  18.133  0.00  0.00    +0.000 A 
BRANCH   8  11
ATOM     11  C   UNL     1       5.487   4.087  16.090  0.00  0.00    +0.000 C 
BRANCH  11  12
ATOM     12  N   UNL     1       5.724   4.507  14.690  0.00  0.00    +0.000 NA
ATOM     13  C   UNL     1       7.145   4.838  14.479  0.00  0.00    +0.000 C 
ATOM     14  C   UNL     1       7.495   5.097  13.012  0.00  0.00    +0.000 C 
ATOM     15  C   UNL     1       7.070   3.929  12.136  0.00  0.00    +0.000 C 
ATOM     16  C   UNL     1       5.580   3.684  12.322  0.00  0.00    +0.000 C 
ATOM     17  C   UNL     1       5.249   3.440  13.794  0.00  0.00    +0.000 C 
ENDBRANCH  11  12
ENDBRANCH   8  11
ENDBRANCH   2   5
BRANCH   3  18
ATOM     18  C   UNL     1       0.741   9.668  19.236  0.00  0.00    +0.000 C 
ATOM     19  C   UNL     1       1.066  10.945  19.506  0.00  0.00    +0.000 C 
BRANCH  19  20
ATOM     20  C   UNL     1       0.222  11.762  20.364  0.00  0.00    +0.000 A 
ATOM     21  C   UNL     1       0.166  13.134  20.134  0.00  0.00    +0.000 A 
ATOM     22  C   UNL     1      -0.587  13.954  20.975  0.00  0.00    +0.000 A 
ATOM     23  C   UNL     1      -1.312  13.434  22.063  0.00  0.00    +0.000 A 
ATOM     24  C   UNL     1      -1.257  12.041  22.262  0.00  0.00    +0.000 A 
ATOM     25  C   UNL     1      -0.493  11.212  21.428  0.00  0.00    +0.000 A 
BRANCH  23  26
ATOM     26  C   UNL     1      -2.065  14.341  22.960  0.00  0.00    +0.000 A 
ATOM     27  C   UNL     1      -3.470  14.427  22.887  0.00  0.00    +0.000 A 
ATOM     28  C   UNL     1      -4.191  15.346  23.652  0.00  0.00    +0.000 A 
ATOM     29  C   UNL     1      -3.519  16.187  24.529  0.00  0.00    +0.000 A 
ATOM     30 CL   UNL     1      -4.398  17.345  25.449  0.00  0.00    +0.000 Cl
ATOM     31  C   UNL     1      -2.136  16.105  24.653  0.00  0.00    +0.000 A 
ATOM     32  C   UNL     1      -1.417  15.191  23.874  0.00  0.00    +0.000 A 
ENDBRANCH  23  26
ENDBRANCH  19  20
ENDBRANCH   3  18
TORSDOF 6
ENDMDL
MODEL 7
REMARK VINA RESULT:      -7.4      4.831     13.239
REMARK  Name = 
REMARK  7 active torsions:
REMARK  status: ('A' for Active; 'I' for Inactive)
REMARK    1  A    between atoms: C_1  and  N_2
REMARK    2  A    between atoms: N_2  and  C_20
REMARK    3  A    between atoms: C_3  and  C_5
REMARK    4  A    between atoms: C_6  and  C_7
REMARK    5  A    between atoms: C_10  and  C_11
REMARK    6  A    between atoms: C_23  and  C_24
REMARK    7  A    between atoms: C_24  and  N_25
REMARK                            x       y       z     vdW  Elec       q    Type
REMARK                         _______ _______ _______ _____ _____    ______ ____
ROOT
ATOM      1  C   UNL     1      -2.122  11.590  19.155  0.00  0.00    +0.000 C 
ATOM      2  N   UNL     1      -1.520  12.005  20.424  0.00  0.00    +0.000 N 
ATOM      3  C   UNL     1      -0.252  11.642  20.865  0.00  0.00    +0.000 C 
ATOM      4  O   UNL     1       0.244  11.954  21.946  0.00  0.00    +0.000 OA
ENDROOT
BRANCH   2   5
ATOM      5  C   UNL     1      -2.362  12.749  21.299  0.00  0.00    +0.000 A 
ATOM      6  C   UNL     1      -2.863  12.165  22.467  0.00  0.00    +0.000 A 
ATOM      7  C   UNL     1      -3.665  12.908  23.336  0.00  0.00    +0.000 A 
ATOM      8  C   UNL     1      -4.010  14.231  23.032  0.00  0.00    +0.000 A 
ATOM      9  C   UNL     1      -3.535  14.800  21.842  0.00  0.00    +0.000 A 
ATOM     10  C   UNL     1      -2.699  14.071  20.994  0.00  0.00    +0.000 A 
BRANCH   8  11
ATOM     11  C   UNL     1      -4.905  15.020  23.959  0.00  0.00    +0.000 C 
BRANCH  11  12
ATOM     12  N   UNL     1      -4.179  15.935  24.870  0.00  0.00    +0.000 NA
ATOM     13  C   UNL     1      -2.837  15.408  25.174  0.00  0.00    +0.000 C 
ATOM     14  C   UNL     1      -1.963  16.391  25.956  0.00  0.00    +0.000 C 
ATOM     15  C   UNL     1      -1.876  17.730  25.240  0.00  0.00    +0.000 C 
ATOM     16  C   UNL     1      -3.281  18.274  25.028  0.00  0.00    +0.000 C 
ATOM     17  C   UNL     1      -4.141  17.273  24.257  0.00  0.00    +0.000 C 
ENDBRANCH  11  12
ENDBRANCH   8  11
ENDBRANCH   2   5
BRANCH   3  18
ATOM     18  C   UNL     1       0.513  10.742  19.977  0.00  0.00    +0.000 C 
ATOM     19  C   UNL     1       0.868   9.537  20.455  0.00  0.00    +0.000 C 
BRANCH  19  20
ATOM     20  C   UNL     1       1.720   8.650  19.679  0.00  0.00    +0.000 A 
ATOM     21  C   UNL     1       2.199   9.093  18.448  0.00  0.00    +0.000 A 
ATOM     22  C   UNL     1       2.970   8.245  17.651  0.00  0.00    +0.000 A 
ATOM     23  C   UNL     1       3.295   6.938  18.059  0.00  0.00    +0.000 A 
ATOM     24  C   UNL     1       2.818   6.521  19.316  0.00  0.00    +0.000 A 
ATOM     25  C   UNL     1       2.032   7.363  20.117  0.00  0.00    +0.000 A 
BRANCH  23  26
ATOM     26  C   UNL     1       4.080   6.052  17.168  0.00  0.00    +0.000 A 
ATOM     27  C   UNL     1       4.981   6.589  16.226  0.00  0.00    +0.000 A 
ATOM     28  C   UNL     1       5.656   5.779  15.310  0.00  0.00    +0.000 A 
ATOM     29  C   UNL     1       5.458   4.404  15.332  0.00  0.00    +0.000 A 
ATOM     30 CL   UNL     1       6.260   3.405  14.184  0.00  0.00    +0.000 Cl
ATOM     31  C   UNL     1       4.604   3.837  16.272  0.00  0.00    +0.000 A 
ATOM     32  C   UNL     1       3.920   4.655  17.179  0.00  0.00    +0.000 A 
ENDBRANCH  23  26
ENDBRANCH  19  20
ENDBRANCH   3  18
TORSDOF 6
ENDMDL
MODEL 8
REMARK VINA RESULT:      -7.4      1.511      1.954
REMARK  Name = 
REMARK  7 active torsions:
REMARK  status: ('A' for Active; 'I' for Inactive)
REMARK    1  A    between atoms: C_1  and  N_2
REMARK    2  A    between atoms: N_2  and  C_20
REMARK    3  A    between atoms: C_3  and  C_5
REMARK    4  A    between atoms: C_6  and  C_7
REMARK    5  A    between atoms: C_10  and  C_11
REMARK    6  A    between atoms: C_23  and  C_24
REMARK    7  A    between atoms: C_24  and  N_25
REMARK                            x       y       z     vdW  Elec       q    Type
REMARK                         _______ _______ _______ _____ _____    ______ ____
ROOT
ATOM      1  C   UNL     1       1.875   9.203  18.100  0.00  0.00    +0.000 C 
ATOM      2  N   UNL     1       2.160   7.958  18.818  0.00  0.00    +0.000 N 
ATOM      3  C   UNL     1       1.819   7.702  20.142  0.00  0.00    +0.000 C 
ATOM      4  O   UNL     1       2.090   6.675  20.762  0.00  0.00    +0.000 OA
ENDROOT
BRANCH   2   5
ATOM      5  C   UNL     1       2.939   6.998  18.113  0.00  0.00    +0.000 A 
ATOM      6  C   UNL     1       2.544   5.656  18.073  0.00  0.00    +0.000 A 
ATOM      7  C   UNL     1       3.297   4.723  17.356  0.00  0.00    +0.000 A 
ATOM      8  C   UNL     1       4.475   5.108  16.704  0.00  0.00    +0.000 A 
ATOM      9  C   UNL     1       4.885   6.446  16.777  0.00  0.00    +0.000 A 
ATOM     10  C   UNL     1       4.111   7.387  17.458  0.00  0.00    +0.000 A 
BRANCH   8  11
ATOM     11  C   UNL     1       5.304   4.088  15.958  0.00  0.00    +0.000 C 
BRANCH  11  12
ATOM     12  N   UNL     1       5.647   4.482  14.572  0.00  0.00    +0.000 NA
ATOM     13  C   UNL     1       7.090   4.759  14.453  0.00  0.00    +0.000 C 
ATOM     14  C   UNL     1       7.546   4.988  13.010  0.00  0.00    +0.000 C 
ATOM     15  C   UNL     1       7.137   3.825  12.119  0.00  0.00    +0.000 C 
ATOM     16  C   UNL     1       5.630   3.635  12.209  0.00  0.00    +0.000 C 
ATOM     17  C   UNL     1       5.194   3.422  13.657  0.00  0.00    +0.000 C 
ENDBRANCH  11  12
ENDBRANCH   8  11
ENDBRANCH   2   5
BRANCH   3  18
ATOM     18  C   UNL     1       1.145   8.799  20.865  0.00  0.00    +0.000 C 
ATOM     19  C   UNL     1       0.055   9.349  20.302  0.00  0.00    +0.000 C 
BRANCH  19  20
ATOM     20  C   UNL     1      -0.587  10.509  20.900  0.00  0.00    +0.000 A 
ATOM     21  C   UNL     1      -0.595  10.626  22.288  0.00  0.00    +0.000 A 
ATOM     22  C   UNL     1      -1.253  11.695  22.897  0.00  0.00    +0.000 A 
ATOM     23  C   UNL     1      -1.914  12.683  22.144  0.00  0.00    +0.000 A 
ATOM     24  C   UNL     1      -1.874  12.555  20.742  0.00  0.00    +0.000 A 
ATOM     25  C   UNL     1      -1.224  11.477  20.124  0.00  0.00    +0.000 A 
BRANCH  23  26
ATOM     26  C   UNL     1      -2.639  13.780  22.826  0.00  0.00    +0.000 A 
ATOM     27  C   UNL     1      -1.972  14.963  23.203  0.00  0.00    +0.000 A 
ATOM     28  C   UNL     1      -2.611  15.967  23.935  0.00  0.00    +0.000 A 
ATOM     29  C   UNL     1      -3.946  15.817  24.286  0.00  0.00    +0.000 A 
ATOM     30 CL   UNL     1      -4.729  17.034  25.216  0.00  0.00    +0.000 Cl
ATOM     31  C   UNL     1      -4.646  14.678  23.899  0.00  0.00    +0.000 A 
ATOM     32  C   UNL     1      -3.997  13.670  23.178  0.00  0.00    +0.000 A 
ENDBRANCH  23  26
ENDBRANCH  19  20
ENDBRANCH   3  18
TORSDOF 6
ENDMDL
MODEL 9
REMARK VINA RESULT:      -7.2      0.897      1.032
REMARK  Name = 
REMARK  7 active torsions:
REMARK  status: ('A' for Active; 'I' for Inactive)
REMARK    1  A    between atoms: C_1  and  N_2
REMARK    2  A    between atoms: N_2  and  C_20
REMARK    3  A    between atoms: C_3  and  C_5
REMARK    4  A    between atoms: C_6  and  C_7
REMARK    5  A    between atoms: C_10  and  C_11
REMARK    6  A    between atoms: C_23  and  C_24
REMARK    7  A    between atoms: C_24  and  N_25
REMARK                            x       y       z     vdW  Elec       q    Type
REMARK                         _______ _______ _______ _____ _____    ______ ____
ROOT
ATOM      1  C   UNL     1       1.849   6.408  20.304  0.00  0.00    +0.000 C 
ATOM      2  N   UNL     1       2.461   7.167  19.212  0.00  0.00    +0.000 N 
ATOM      3  C   UNL     1       2.110   8.462  18.842  0.00  0.00    +0.000 C 
ATOM      4  O   UNL     1       2.593   9.091  17.902  0.00  0.00    +0.000 OA
ENDROOT
BRANCH   2   5
ATOM      5  C   UNL     1       3.410   6.462  18.419  0.00  0.00    +0.000 A 
ATOM      6  C   UNL     1       3.842   5.187  18.797  0.00  0.00    +0.000 A 
ATOM      7  C   UNL     1       4.752   4.488  18.001  0.00  0.00    +0.000 A 
ATOM      8  C   UNL     1       5.273   5.068  16.837  0.00  0.00    +0.000 A 
ATOM      9  C   UNL     1       4.863   6.360  16.481  0.00  0.00    +0.000 A 
ATOM     10  C   UNL     1       3.923   7.043  17.255  0.00  0.00    +0.000 A 
BRANCH   8  11
ATOM     11  C   UNL     1       6.282   4.320  15.996  0.00  0.00    +0.000 C 
BRANCH  11  12
ATOM     12  N   UNL     1       6.198   4.611  14.546  0.00  0.00    +0.000 NA
ATOM     13  C   UNL     1       7.512   5.023  14.022  0.00  0.00    +0.000 C 
ATOM     14  C   UNL     1       7.541   5.156  12.498  0.00  0.00    +0.000 C 
ATOM     15  C   UNL     1       7.062   3.877  11.830  0.00  0.00    +0.000 C 
ATOM     16  C   UNL     1       5.669   3.541  12.338  0.00  0.00    +0.000 C 
ATOM     17  C   UNL     1       5.658   3.425  13.861  0.00  0.00    +0.000 C 
ENDBRANCH  11  12
ENDBRANCH   8  11
ENDBRANCH   2   5
BRANCH   3  18
ATOM     18  C   UNL     1       1.011   9.083  19.609  0.00  0.00    +0.000 C 
ATOM     19  C   UNL     1       0.499  10.239  19.154  0.00  0.00    +0.000 C 
BRANCH  19  20
ATOM     20  C   UNL     1      -0.502  10.963  19.921  0.00  0.00    +0.000 A 
ATOM     21  C   UNL     1      -1.529  11.609  19.238  0.00  0.00    +0.000 A 
ATOM     22  C   UNL     1      -2.472  12.361  19.939  0.00  0.00    +0.000 A 
ATOM     23  C   UNL     1      -2.426  12.486  21.340  0.00  0.00    +0.000 A 
ATOM     24  C   UNL     1      -1.391  11.807  22.011  0.00  0.00    +0.000 A 
ATOM     25  C   UNL     1      -0.433  11.059  21.311  0.00  0.00    +0.000 A 
BRANCH  23  26
ATOM     26  C   UNL     1      -3.418  13.329  22.047  0.00  0.00    +0.000 A 
ATOM     27  C   UNL     1      -4.474  13.945  21.345  0.00  0.00    +0.000 A 
ATOM     28  C   UNL     1      -5.361  14.823  21.973  0.00  0.00    +0.000 A 
ATOM     29  C   UNL     1      -5.222  15.086  23.330  0.00  0.00    +0.000 A 
ATOM     30 CL   UNL     1      -6.291  16.192  24.101  0.00  0.00    +0.000 Cl
ATOM     31  C   UNL     1      -4.214  14.467  24.061  0.00  0.00    +0.000 A 
ATOM     32  C   UNL     1      -3.320  13.599  23.424  0.00  0.00    +0.000 A 
ENDBRANCH  23  26
ENDBRANCH  19  20
ENDBRANCH   3  18
TORSDOF 6
ENDMDL
